@<TRIPOS>MOLECULE
*****
 29 32 0 0 0
SMALL
GASTEIGER

@<TRIPOS>ATOM
      1 S           4.0567   -1.3011   26.3808 S.O2    1  UNL1        0.0277
      2 O           2.9610   -0.3621   25.9714 O.2     1  UNL1       -0.1642
      3 O           5.1525   -2.2402   26.7901 O.2     1  UNL1       -0.1642
      4 C           4.3491   -1.5890   24.9380 C.ar    1  UNL1        0.1133
      5 C           5.5118   -2.4613   24.5678 C.ar    1  UNL1        0.0186
      6 C           5.8042   -2.7491   23.1250 C.ar    1  UNL1        0.0002
      7 C           4.9338   -2.1646   22.0523 C.ar    1  UNL1        0.0151
      8 C           3.7710   -1.2923   22.4224 C.ar    1  UNL1        0.1358
      9 C           3.4787   -1.0044   23.8653 C.ar    1  UNL1        0.0553
     10 O           3.0943   -0.8598   21.1555 O.3     1  UNL1       -0.4777
     11 C           3.8388   -1.4648   20.0024 C.3     1  UNL1        0.1855
     12 C           3.6285   -1.3856   18.5194 C.3     1  UNL1        0.1130
     13 N           4.5550   -2.1129   17.5906 N.3     1  UNL1       -0.2944
     14 C           5.6918   -2.9193   18.1449 C.3     1  UNL1        0.0691
     15 C           5.9022   -2.9985   19.6279 C.3     1  UNL1        0.0252
     16 C           4.9757   -2.2713   20.5567 C.3     1  UNL1        0.0681
     17 H           4.9648   -1.4110   16.9744 H       1  UNL1        0.1234
     18 C           4.5433   -0.9100   30.3000 C.ar    1  UNL1        0.1431
     19 C           3.1797   -0.4377   30.7092 C.ar    1  UNL1        0.0738
     20 C           2.1084   -0.2532   29.6755 C.ar    1  UNL1        0.1427
     21 C           2.4008   -0.5410   28.2328 C.ar    1  UNL1        0.0558
     22 C           3.7644   -1.0133   27.8236 C.ar    1  UNL1        0.1163
     23 C           4.8356   -1.1978   28.8571 C.ar    1  UNL1        0.0558
     24 C           5.9184   -2.4650   31.8624 C.3     1  UNL1        0.2525
     25 O           5.6146   -1.0946   31.3336 O.3     1  UNL1       -0.4713
     26 O           0.7448    0.2191   30.0847 O.3     1  UNL1       -0.4790
     27 C          -0.3094    0.4585   29.0449 C.3     1  UNL1        0.1661
     28 C          -1.3631   -0.5788   28.7924 C.3     1  UNL1        0.0472
     29 C          -0.3100    1.7352   28.2575 C.3     1  UNL1        0.0472
@<TRIPOS>BOND
     1    24    25    1
     2    25    18    1
     3    18    19   ar
     4    19    20   ar
     5    20    26    1
     6    26    27    1
     7    27    28    1
     8    27    29    1
     9    20    21   ar
    10    21    22   ar
    11    22     1    1
    12     1     2    2
    13     1     3    2
    14     1     4    1
    15     4     5   ar
    16     5     6   ar
    17     6     7   ar
    18     7     8   ar
    19     8     9   ar
    20     8    10    1
    21    10    11    1
    22    11    12    1
    23    12    13    1
    24    13    14    1
    25    14    15    1
    26    16    15    1
    27    22    23   ar
    28    23    18   ar
    29     9     4   ar
    30    16    11    1
    31    16     7    1
    32    13    17    1
@<TRIPOS>MOLECULE
*****
 29 32 0 0 0
SMALL
GASTEIGER

@<TRIPOS>ATOM
      1 S           3.9524   -1.2447   26.3404 S.O2    1  UNL1        0.0277
      2 O           5.0405   -2.1776   26.7828 O.2     1  UNL1       -0.1642
      3 O           2.8642   -0.3118   25.8981 O.2     1  UNL1       -0.1642
      4 C           4.2980   -1.5210   24.9072 C.ar    1  UNL1        0.1133
      5 C           5.5518   -2.2721   24.5694 C.ar    1  UNL1        0.0186
      6 C           5.8974   -2.5484   23.1362 C.ar    1  UNL1        0.0002
      7 C           4.9894   -2.0737   22.0407 C.ar    1  UNL1        0.0151
      8 C           3.7357   -1.3226   22.3785 C.ar    1  UNL1        0.1358
      9 C           3.3900   -1.0463   23.8117 C.ar    1  UNL1        0.0553
     10 O           3.0395   -0.9816   21.0943 O.3     1  UNL1       -0.4777
     11 C           3.8629   -1.5219   19.9629 C.3     1  UNL1        0.1855
     12 C           3.6711   -1.4864   18.4757 C.3     1  UNL1        0.1130
     13 N           4.6843   -2.1260   17.5734 N.3     1  UNL1       -0.2944
     14 C           5.8894   -2.8009   18.1583 C.3     1  UNL1        0.0691
     15 C           6.0813   -2.8364   19.6455 C.3     1  UNL1        0.0252
     16 C           5.0681   -2.1968   20.5478 C.3     1  UNL1        0.0681
     17 H           5.0292   -1.3940   16.9524 H       1  UNL1        0.1234
     18 C           1.8709   -0.2649   29.5742 C.ar    1  UNL1        0.1431
     19 C           2.9154   -0.4158   30.6401 C.ar    1  UNL1        0.0738
     20 C           4.3055   -0.8430   30.2728 C.ar    1  UNL1        0.1427
     21 C           4.6512   -1.1193   28.8396 C.ar    1  UNL1        0.0558
     22 C           3.6067   -0.9684   27.7737 C.ar    1  UNL1        0.1163
     23 C           2.2166   -0.5412   28.1409 C.ar    1  UNL1        0.0558
     24 C          -0.6637   -0.1346   29.0183 C.3     1  UNL1        0.2525
     25 O           0.4806    0.1624   29.9414 O.3     1  UNL1       -0.4713
     26 O           5.3500   -0.9939   31.3387 O.3     1  UNL1       -0.4790
     27 C           5.4258   -2.2591   32.1409 C.3     1  UNL1        0.1661
     28 C           4.5427   -2.4414   33.3395 C.3     1  UNL1        0.0472
     29 C           6.3849   -3.3422   31.7442 C.3     1  UNL1        0.0472
@<TRIPOS>BOND
     1    24    25    1
     2    25    18    1
     3    18    19   ar
     4    19    20   ar
     5    20    26    1
     6    26    27    1
     7    27    28    1
     8    27    29    1
     9    20    21   ar
    10    21    22   ar
    11    22     1    1
    12     1     2    2
    13     1     3    2
    14     1     4    1
    15     4     5   ar
    16     5     6   ar
    17     6     7   ar
    18     7     8   ar
    19     8     9   ar
    20     8    10    1
    21    10    11    1
    22    11    12    1
    23    12    13    1
    24    13    14    1
    25    14    15    1
    26    16    15    1
    27    22    23   ar
    28    23    18   ar
    29     9     4   ar
    30    16    11    1
    31    16     7    1
    32    13    17    1
@<TRIPOS>MOLECULE
*****
 29 32 0 0 0
SMALL
GASTEIGER

@<TRIPOS>ATOM
      1 S          -0.5762    2.4436   20.2322 S.O2    1  UNL1        0.0277
      2 O          -0.5463    3.0064   18.8420 O.2     1  UNL1       -0.1642
      3 O          -0.6061    1.8809   21.6223 O.2     1  UNL1       -0.1642
      4 C           0.5489    1.5159   19.8808 C.ar    1  UNL1        0.1133
      5 C           0.5066    0.0838   20.3250 C.ar    1  UNL1        0.0186
      6 C           1.6317   -0.8440   19.9737 C.ar    1  UNL1        0.0002
      7 C           2.7991   -0.3397   19.1781 C.ar    1  UNL1        0.0151
      8 C           2.8413    1.0924   18.7338 C.ar    1  UNL1        0.1358
      9 C           1.7162    2.0202   19.0852 C.ar    1  UNL1        0.0553
     10 O           4.1131    1.3024   17.9668 O.3     1  UNL1       -0.4777
     11 C           4.8569    0.0001   17.9369 C.3     1  UNL1        0.1855
     12 C           6.1687   -0.3927   17.3248 C.3     1  UNL1        0.1130
     13 N           6.6684   -1.8004   17.4613 N.3     1  UNL1       -0.2944
     14 C           5.8563   -2.8153   18.2099 C.3     1  UNL1        0.0691
     15 C           4.5444   -2.4225   18.8221 C.3     1  UNL1        0.0252
     16 C           4.0447   -1.0148   18.6856 C.3     1  UNL1        0.0681
     17 H           7.5746   -1.7473   17.9264 H       1  UNL1        0.1234
     18 C          -3.7379    4.8133   19.8603 C.ar    1  UNL1        0.1431
     19 C          -3.9514    5.2269   21.2863 C.ar    1  UNL1        0.0738
     20 C          -3.0399    4.7127   22.3608 C.ar    1  UNL1        0.1427
     21 C          -1.9148    3.7850   22.0095 C.ar    1  UNL1        0.0558
     22 C          -1.7013    3.3714   20.5835 C.ar    1  UNL1        0.1163
     23 C          -2.6128    3.8855   19.5090 C.ar    1  UNL1        0.0558
     24 C          -4.8820    4.5141   17.5469 C.3     1  UNL1        0.2525
     25 O          -4.6495    5.3274   18.7857 O.3     1  UNL1       -0.4713
     26 O          -3.2534    5.1264   23.7867 O.3     1  UNL1       -0.4790
     27 C          -3.5773    4.0948   24.8265 C.3     1  UNL1        0.1661
     28 C          -4.9889    3.6160   24.9938 C.3     1  UNL1        0.0472
     29 C          -2.4895    3.5421   25.6990 C.3     1  UNL1        0.0472
@<TRIPOS>BOND
     1    24    25    1
     2    25    18    1
     3    18    19   ar
     4    19    20   ar
     5    20    26    1
     6    26    27    1
     7    27    28    1
     8    27    29    1
     9    20    21   ar
    10    21    22   ar
    11    22     1    1
    12     1     2    2
    13     1     3    2
    14     1     4    1
    15     4     5   ar
    16     5     6   ar
    17     6     7   ar
    18     7     8   ar
    19     8     9   ar
    20     8    10    1
    21    10    11    1
    22    11    12    1
    23    12    13    1
    24    13    14    1
    25    14    15    1
    26    16    15    1
    27    22    23   ar
    28    23    18   ar
    29     9     4   ar
    30    16    11    1
    31    16     7    1
    32    13    17    1
@<TRIPOS>MOLECULE
*****
 29 32 0 0 0
SMALL
GASTEIGER

@<TRIPOS>ATOM
      1 S          -0.5620    2.3693   20.4778 S.O2    1  UNL1        0.0277
      2 O          -0.6259    2.9218   19.0846 O.2     1  UNL1       -0.1642
      3 O          -0.4981    1.8169   21.8709 O.2     1  UNL1       -0.1642
      4 C           0.5621    1.4648   20.0675 C.ar    1  UNL1        0.1133
      5 C           0.5485    0.0205   20.4722 C.ar    1  UNL1        0.0186
      6 C           1.6725   -0.8840   20.0620 C.ar    1  UNL1        0.0002
      7 C           2.8103   -0.3443   19.2470 C.ar    1  UNL1        0.0151
      8 C           2.8239    1.1000   18.8423 C.ar    1  UNL1        0.1358
      9 C           1.6998    2.0046   19.2526 C.ar    1  UNL1        0.0553
     10 O           4.0701    1.3460   18.0445 O.3     1  UNL1       -0.4777
     11 C           4.8266    0.0538   17.9561 C.3     1  UNL1        0.1855
     12 C           6.1239   -0.3066   17.2950 C.3     1  UNL1        0.1130
     13 N           6.6425   -1.7116   17.3770 N.3     1  UNL1       -0.2944
     14 C           5.8639   -2.7563   18.1202 C.3     1  UNL1        0.0691
     15 C           4.5666   -2.3959   18.7814 C.3     1  UNL1        0.0252
     16 C           4.0480   -0.9909   18.6994 C.3     1  UNL1        0.0681
     17 H           7.5615   -1.6611   17.8166 H       1  UNL1        0.1234
     18 C          -3.0272    4.4947   22.7483 C.ar    1  UNL1        0.1431
     19 C          -3.9342    5.0829   21.7084 C.ar    1  UNL1        0.0738
     20 C          -3.7171    4.7666   20.2583 C.ar    1  UNL1        0.1427
     21 C          -2.5931    3.8621   19.8481 C.ar    1  UNL1        0.0558
     22 C          -1.6861    3.2739   20.8880 C.ar    1  UNL1        0.1163
     23 C          -1.9031    3.5901   22.3381 C.ar    1  UNL1        0.0558
     24 C          -3.0910    3.7346   25.2320 C.3     1  UNL1        0.2525
     25 O          -3.2443    4.8109   24.1985 O.3     1  UNL1       -0.4713
     26 O          -4.6241    5.3548   19.2185 O.3     1  UNL1       -0.4790
     27 C          -5.3111    4.4602   18.2296 C.3     1  UNL1        0.1661
     28 C          -6.2793    3.4186   18.7067 C.3     1  UNL1        0.0472
     29 C          -5.0297    4.6072   16.7636 C.3     1  UNL1        0.0472
@<TRIPOS>BOND
     1    24    25    1
     2    25    18    1
     3    18    19   ar
     4    19    20   ar
     5    20    26    1
     6    26    27    1
     7    27    28    1
     8    27    29    1
     9    20    21   ar
    10    21    22   ar
    11    22     1    1
    12     1     2    2
    13     1     3    2
    14     1     4    1
    15     4     5   ar
    16     5     6   ar
    17     6     7   ar
    18     7     8   ar
    19     8     9   ar
    20     8    10    1
    21    10    11    1
    22    11    12    1
    23    12    13    1
    24    13    14    1
    25    14    15    1
    26    16    15    1
    27    22    23   ar
    28    23    18   ar
    29     9     4   ar
    30    16    11    1
    31    16     7    1
    32    13    17    1
@<TRIPOS>MOLECULE
*****
 29 32 0 0 0
SMALL
GASTEIGER

@<TRIPOS>ATOM
      1 S           3.5456   -0.8280   26.6707 S.O2    1  UNL1        0.0277
      2 O           2.5817    0.2978   26.4395 O.2     1  UNL1       -0.1642
      3 O           4.5095   -1.9539   26.9018 O.2     1  UNL1       -0.1642
      4 C           3.6314   -1.0584   25.1909 C.ar    1  UNL1        0.1133
      5 C           2.8256   -0.2104   24.2519 C.ar    1  UNL1        0.0186
      6 C           2.9114   -0.4408   22.7722 C.ar    1  UNL1        0.0002
      7 C           3.8030   -1.5190   22.2314 C.ar    1  UNL1        0.0151
      8 C           4.6087   -2.3669   23.1704 C.ar    1  UNL1        0.1358
      9 C           4.5230   -2.1366   24.6502 C.ar    1  UNL1        0.0553
     10 O           5.3944   -3.3475   22.3511 O.3     1  UNL1       -0.4777
     11 C           5.0742   -3.1056   20.9058 C.3     1  UNL1        0.1855
     12 C           5.5511   -3.7683   19.6476 C.3     1  UNL1        0.1130
     13 N           5.0445   -3.3010   18.3153 N.3     1  UNL1       -0.2944
     14 C           4.0609   -2.1709   18.2414 C.3     1  UNL1        0.0691
     15 C           3.5840   -1.5082   19.4996 C.3     1  UNL1        0.0252
     16 C           4.0906   -1.9755   20.8318 C.3     1  UNL1        0.0681
     17 H           4.6031   -4.1053   17.8696 H       1  UNL1        0.1234
     18 C           2.1532    0.2745   30.2197 C.ar    1  UNL1        0.1431
     19 C           3.2883   -0.1370   31.1098 C.ar    1  UNL1        0.0738
     20 C           4.5091   -0.7789   30.5202 C.ar    1  UNL1        0.1427
     21 C           4.5949   -1.0092   29.0405 C.ar    1  UNL1        0.0558
     22 C           3.4598   -0.5977   28.1504 C.ar    1  UNL1        0.1163
     23 C           2.2390    0.0441   28.7399 C.ar    1  UNL1        0.0558
     24 C           1.0689    2.1341   31.6744 C.3     1  UNL1        0.2525
     25 O           0.9323    0.9163   30.8093 O.3     1  UNL1       -0.4713
     26 O           5.6441   -1.1904   31.4103 O.3     1  UNL1       -0.4790
     27 C           5.5661   -2.4757   32.1796 C.3     1  UNL1        0.1661
     28 C           6.4713   -3.6180   31.8254 C.3     1  UNL1        0.0472
     29 C           4.5827   -2.6186   33.3033 C.3     1  UNL1        0.0472
@<TRIPOS>BOND
     1    24    25    1
     2    25    18    1
     3    18    19   ar
     4    19    20   ar
     5    20    26    1
     6    26    27    1
     7    27    28    1
     8    27    29    1
     9    20    21   ar
    10    21    22   ar
    11    22     1    1
    12     1     2    2
    13     1     3    2
    14     1     4    1
    15     4     5   ar
    16     5     6   ar
    17     6     7   ar
    18     7     8   ar
    19     8     9   ar
    20     8    10    1
    21    10    11    1
    22    11    12    1
    23    12    13    1
    24    13    14    1
    25    14    15    1
    26    16    15    1
    27    22    23   ar
    28    23    18   ar
    29     9     4   ar
    30    16    11    1
    31    16     7    1
    32    13    17    1
@<TRIPOS>MOLECULE
*****
 29 32 0 0 0
SMALL
GASTEIGER

@<TRIPOS>ATOM
      1 S           6.2166   -3.2989   23.3731 S.O2    1  UNL1        0.0277
      2 O           5.9039   -1.9079   23.8392 O.2     1  UNL1       -0.1642
      3 O           6.5293   -4.6900   22.9071 O.2     1  UNL1       -0.1642
      4 C           6.3891   -3.7373   24.7973 C.ar    1  UNL1        0.1133
      5 C           6.8704   -5.1249   25.1018 C.ar    1  UNL1        0.0186
      6 C           7.0429   -5.5633   26.5260 C.ar    1  UNL1        0.0002
      7 C           6.7340   -4.6140   27.6455 C.ar    1  UNL1        0.0151
      8 C           6.2527   -3.2264   27.3410 C.ar    1  UNL1        0.1358
      9 C           6.0802   -2.7880   25.9168 C.ar    1  UNL1        0.0553
     10 O           6.0291   -2.5171   28.6436 O.3     1  UNL1       -0.4777
     11 C           6.3722   -3.4663   29.7532 C.3     1  UNL1        0.1855
     12 C           6.3442   -3.3180   31.2456 C.3     1  UNL1        0.1130
     13 N           6.7519   -4.4656   32.1211 N.3     1  UNL1       -0.2944
     14 C           7.1876   -5.7617   31.5042 C.3     1  UNL1        0.0691
     15 C           7.2156   -5.9100   30.0119 C.3     1  UNL1        0.0252
     16 C           6.8079   -4.7623   29.1364 C.3     1  UNL1        0.0681
     17 H           5.9534   -4.6780   32.7191 H       1  UNL1        0.1234
     18 C           7.0706   -2.2705   19.6365 C.ar    1  UNL1        0.1431
     19 C           5.6991   -1.9839   19.1009 C.ar    1  UNL1        0.0738
     20 C           4.5001   -2.1356   19.9894 C.ar    1  UNL1        0.1427
     21 C           4.6726   -2.5739   21.4134 C.ar    1  UNL1        0.0558
     22 C           6.0441   -2.8606   21.9490 C.ar    1  UNL1        0.1163
     23 C           7.2430   -2.7089   21.0606 C.ar    1  UNL1        0.0558
     24 C           9.5348   -2.8608   19.0624 C.3     1  UNL1        0.2525
     25 O           8.2696   -2.1188   18.7480 O.3     1  UNL1       -0.4713
     26 O           3.1287   -1.8490   19.4537 O.3     1  UNL1       -0.4790
     27 C           2.4715   -0.5315   19.7408 C.3     1  UNL1        0.1661
     28 C           1.0105   -0.4793   20.0765 C.3     1  UNL1        0.0472
     29 C           3.2755    0.7340   19.6922 C.3     1  UNL1        0.0472
@<TRIPOS>BOND
     1    24    25    1
     2    25    18    1
     3    18    19   ar
     4    19    20   ar
     5    20    26    1
     6    26    27    1
     7    27    28    1
     8    27    29    1
     9    20    21   ar
    10    21    22   ar
    11    22     1    1
    12     1     2    2
    13     1     3    2
    14     1     4    1
    15     4     5   ar
    16     5     6   ar
    17     6     7   ar
    18     7     8   ar
    19     8     9   ar
    20     8    10    1
    21    10    11    1
    22    11    12    1
    23    12    13    1
    24    13    14    1
    25    14    15    1
    26    16    15    1
    27    22    23   ar
    28    23    18   ar
    29     9     4   ar
    30    16    11    1
    31    16     7    1
    32    13    17    1
@<TRIPOS>MOLECULE
*****
 29 32 0 0 0
SMALL
GASTEIGER

@<TRIPOS>ATOM
      1 S           1.2298    1.2130   23.6455 S.O2    1  UNL1        0.0277
      2 O           0.5287    1.8864   22.5031 O.2     1  UNL1       -0.1642
      3 O           1.9309    0.5395   24.7878 O.2     1  UNL1       -0.1642
      4 C           2.2047    0.5988   22.6850 C.ar    1  UNL1        0.1133
      5 C           2.8795   -0.6965   23.0269 C.ar    1  UNL1        0.0186
      6 C           3.8543   -1.3107   22.0664 C.ar    1  UNL1        0.0002
      7 C           4.1544   -0.6296   20.7641 C.ar    1  UNL1        0.0151
      8 C           3.4796    0.6656   20.4223 C.ar    1  UNL1        0.1358
      9 C           2.5048    1.2798   21.3827 C.ar    1  UNL1        0.0553
     10 O           3.9712    1.1026   19.0741 O.3     1  UNL1       -0.4777
     11 C           4.9497    0.0774   18.5828 C.3     1  UNL1        0.1855
     12 C           5.7523   -0.0195   17.3193 C.3     1  UNL1        0.1130
     13 N           6.6681   -1.1871   17.1003 N.3     1  UNL1       -0.2944
     14 C           6.7814   -2.2577   18.1448 C.3     1  UNL1        0.0691
     15 C           5.9788   -2.1608   19.4083 C.3     1  UNL1        0.0252
     16 C           5.0630   -0.9932   19.6273 C.3     1  UNL1        0.0681
     17 H           7.6047   -0.8057   16.9668 H       1  UNL1        0.1234
     18 C          -1.7494    3.4133   25.0711 C.ar    1  UNL1        0.1431
     19 C          -1.6947    3.0555   26.5268 C.ar    1  UNL1        0.0738
     20 C          -0.6651    2.0835   27.0220 C.ar    1  UNL1        0.1427
     21 C           0.3097    1.4694   26.0616 C.ar    1  UNL1        0.0558
     22 C           0.2550    1.8271   24.6059 C.ar    1  UNL1        0.1163
     23 C          -0.7745    2.7991   24.1106 C.ar    1  UNL1        0.0558
     24 C          -4.1447    4.4119   25.1956 C.3     1  UNL1        0.2525
     25 O          -2.7790    4.3853   24.5758 O.3     1  UNL1       -0.4713
     26 O          -0.6104    1.7257   28.4776 O.3     1  UNL1       -0.4790
     27 C          -0.3684    0.3046   28.8922 C.3     1  UNL1        0.1661
     28 C           1.0059   -0.1327   29.3046 C.3     1  UNL1        0.0472
     29 C          -1.5007   -0.6793   28.8942 C.3     1  UNL1        0.0472
@<TRIPOS>BOND
     1    24    25    1
     2    25    18    1
     3    18    19   ar
     4    19    20   ar
     5    20    26    1
     6    26    27    1
     7    27    28    1
     8    27    29    1
     9    20    21   ar
    10    21    22   ar
    11    22     1    1
    12     1     2    2
    13     1     3    2
    14     1     4    1
    15     4     5   ar
    16     5     6   ar
    17     6     7   ar
    18     7     8   ar
    19     8     9   ar
    20     8    10    1
    21    10    11    1
    22    11    12    1
    23    12    13    1
    24    13    14    1
    25    14    15    1
    26    16    15    1
    27    22    23   ar
    28    23    18   ar
    29     9     4   ar
    30    16    11    1
    31    16     7    1
    32    13    17    1
@<TRIPOS>MOLECULE
*****
 29 32 0 0 0
SMALL
GASTEIGER

@<TRIPOS>ATOM
      1 S         -14.0040   -3.0880   19.1285 S.O2    1  UNL1        0.0277
      2 O         -12.7322   -2.6099   19.7641 O.2     1  UNL1       -0.1642
      3 O         -15.2758   -3.5661   18.4929 O.2     1  UNL1       -0.1642
      4 C         -14.5857   -1.7114   19.2571 C.ar    1  UNL1        0.1133
      5 C         -13.9658   -0.5631   18.5174 C.ar    1  UNL1        0.0186
      6 C         -14.5476    0.8135   18.6460 C.ar    1  UNL1        0.0002
      7 C         -15.7492    1.0419   19.5142 C.ar    1  UNL1        0.0151
      8 C         -16.3691   -0.1064   20.2539 C.ar    1  UNL1        0.1358
      9 C         -15.7874   -1.4831   20.1254 C.ar    1  UNL1        0.0553
     10 O         -17.5399    0.4200   21.0298 O.3     1  UNL1       -0.4777
     11 C         -17.6437    1.8936   20.7697 C.3     1  UNL1        0.1855
     12 C         -18.6029    2.9352   21.2648 C.3     1  UNL1        0.1130
     13 N         -18.4553    4.3610   20.8231 N.3     1  UNL1       -0.2944
     14 C         -17.3486    4.7453   19.8864 C.3     1  UNL1        0.0691
     15 C         -16.3894    3.7038   19.3913 C.3     1  UNL1        0.0252
     16 C         -16.5369    2.2780   19.8330 C.3     1  UNL1        0.0681
     17 H         -18.3336    4.9198   21.6677 H       1  UNL1        0.1234
     18 C         -11.3555   -6.0380   18.9486 C.ar    1  UNL1        0.1431
     19 C         -12.2587   -7.2178   18.7429 C.ar    1  UNL1        0.0738
     20 C         -13.7437   -7.0209   18.6656 C.ar    1  UNL1        0.1427
     21 C         -14.3254   -5.6443   18.7942 C.ar    1  UNL1        0.0558
     22 C         -13.4222   -4.4646   19.0000 C.ar    1  UNL1        0.1163
     23 C         -11.9372   -4.6614   19.0772 C.ar    1  UNL1        0.0558
     24 C          -9.2936   -7.6187   18.9756 C.3     1  UNL1        0.2525
     25 O          -9.8704   -6.2349   19.0259 O.3     1  UNL1       -0.4713
     26 O         -14.6470   -8.2006   18.4599 O.3     1  UNL1       -0.4790
     27 C         -16.1342   -8.0332   18.5604 C.3     1  UNL1        0.1661
     28 C         -16.8138   -8.1494   19.8926 C.3     1  UNL1        0.0472
     29 C         -16.9419   -7.7495   17.3287 C.3     1  UNL1        0.0472
@<TRIPOS>BOND
     1    24    25    1
     2    25    18    1
     3    18    19   ar
     4    19    20   ar
     5    20    26    1
     6    26    27    1
     7    27    28    1
     8    27    29    1
     9    20    21   ar
    10    21    22   ar
    11    22     1    1
    12     1     2    2
    13     1     3    2
    14     1     4    1
    15     4     5   ar
    16     5     6   ar
    17     6     7   ar
    18     7     8   ar
    19     8     9   ar
    20     8    10    1
    21    10    11    1
    22    11    12    1
    23    12    13    1
    24    13    14    1
    25    14    15    1
    26    16    15    1
    27    22    23   ar
    28    23    18   ar
    29     9     4   ar
    30    16    11    1
    31    16     7    1
    32    13    17    1
@<TRIPOS>MOLECULE
*****
 29 32 0 0 0
SMALL
GASTEIGER

@<TRIPOS>ATOM
      1 S           3.7097   -0.9117   26.1391 S.O2    1  UNL1        0.0277
      2 O           4.8153   -1.9232   26.2050 O.2     1  UNL1       -0.1642
      3 O           2.6041    0.0999   26.0732 O.2     1  UNL1       -0.1642
      4 C           3.7319   -0.9850   24.6410 C.ar    1  UNL1        0.1133
      5 C           2.8957   -0.0390   23.8313 C.ar    1  UNL1        0.0186
      6 C           2.9179   -0.1123   22.3333 C.ar    1  UNL1        0.0002
      7 C           3.7764   -1.1317   21.6449 C.ar    1  UNL1        0.0151
      8 C           4.6127   -2.0777   22.4547 C.ar    1  UNL1        0.1358
      9 C           4.5904   -2.0044   23.9527 C.ar    1  UNL1        0.0553
     10 O           5.3547   -2.9701   21.5043 O.3     1  UNL1       -0.4777
     11 C           4.9770   -2.5755   20.1073 C.3     1  UNL1        0.1855
     12 C           5.3953   -3.1041   18.7673 C.3     1  UNL1        0.1130
     13 N           4.8382   -2.4964   17.5142 N.3     1  UNL1       -0.2944
     14 C           3.8627   -1.3602   17.6011 C.3     1  UNL1        0.0691
     15 C           3.4444   -0.8317   18.9411 C.3     1  UNL1        0.0252
     16 C           4.0016   -1.4393   20.1942 C.3     1  UNL1        0.0681
     17 H           4.3713   -3.2471   17.0053 H       1  UNL1        0.1234
     18 C           4.8597   -1.2102   29.9256 C.ar    1  UNL1        0.1431
     19 C           3.6430   -0.6916   30.6332 C.ar    1  UNL1        0.0738
     20 C           2.4485   -0.2464   29.8426 C.ar    1  UNL1        0.1427
     21 C           2.4707   -0.3198   28.3447 C.ar    1  UNL1        0.0558
     22 C           3.6875   -0.8383   27.6372 C.ar    1  UNL1        0.1163
     23 C           4.8820   -1.2835   28.4276 C.ar    1  UNL1        0.0558
     24 C           5.8980   -2.6855   31.7953 C.3     1  UNL1        0.2525
     25 O           6.0543   -1.6554   30.7162 O.3     1  UNL1       -0.4713
     26 O           1.2317    0.2721   30.5502 O.3     1  UNL1       -0.4790
     27 C           1.1197    1.7315   30.8781 C.3     1  UNL1        0.1661
     28 C           1.2730    2.1956   32.2963 C.3     1  UNL1        0.0472
     29 C           0.8543    2.7269   29.7878 C.3     1  UNL1        0.0472
@<TRIPOS>BOND
     1    24    25    1
     2    25    18    1
     3    18    19   ar
     4    19    20   ar
     5    20    26    1
     6    26    27    1
     7    27    28    1
     8    27    29    1
     9    20    21   ar
    10    21    22   ar
    11    22     1    1
    12     1     2    2
    13     1     3    2
    14     1     4    1
    15     4     5   ar
    16     5     6   ar
    17     6     7   ar
    18     7     8   ar
    19     8     9   ar
    20     8    10    1
    21    10    11    1
    22    11    12    1
    23    12    13    1
    24    13    14    1
    25    14    15    1
    26    16    15    1
    27    22    23   ar
    28    23    18   ar
    29     9     4   ar
    30    16    11    1
    31    16     7    1
    32    13    17    1
