@<TRIPOS>MOLECULE
*****
 32 36 0 0 0
SMALL
GASTEIGER

@<TRIPOS>ATOM
      1 C          -8.9060  -16.6653   23.8076 C.ar    1  UNL1        0.0957
      2 C          -9.3857  -16.0688   25.0975 C.ar    1  UNL1        0.1191
      3 N          -8.4011  -15.4779   26.0626 N.ar    1  UNL1       -0.2223
      4 C          -6.9367  -15.4835   25.7378 C.ar    1  UNL1        0.1784
      5 N          -5.7402  -14.9779   26.4879 N.ar    1  UNL1       -0.2236
      6 C          -4.5210  -15.2619   25.6616 C.ar    1  UNL1        0.1066
      7 C          -4.9640  -15.9430   24.4007 C.ar    1  UNL1        0.0910
      8 C          -6.4570  -16.0800   24.4478 C.ar    1  UNL1        0.0988
      9 N          -7.4416  -16.6709   23.4827 N.ar    1  UNL1       -0.3481
     10 H          -7.1267  -17.0624   22.6361 H       1  UNL1        0.1661
     11 C          -9.4950  -20.7401   18.0040 C.3     1  UNL1        0.0311
     12 C          -9.5162  -19.8687   19.2248 C.ar    1  UNL1       -0.0204
     13 C          -8.2321  -19.5064   19.9101 C.ar    1  UNL1       -0.0041
     14 C          -8.2534  -18.6350   21.1309 C.ar    1  UNL1        0.0028
     15 C          -9.5588  -18.1260   21.6664 C.ar    1  UNL1        0.0381
     16 C          -9.8906  -17.2561   22.8425 C.ar    1  UNL1        0.1193
     17 N         -11.3797  -17.0808   22.8840 N.ar    1  UNL1       -0.1677
     18 N         -11.9684  -17.8424   21.7336 N.ar    1  UNL1       -0.2488
     19 C         -13.4264  -17.9408   21.3951 C.3     1  UNL1        0.1537
     20 C         -10.8430  -18.4884   20.9810 C.ar    1  UNL1        0.0791
     21 C         -10.8217  -19.3597   19.7603 C.ar    1  UNL1        0.0145
     22 C          -4.0707  -16.4059   23.2882 C.2     1  UNL1        0.2488
     23 O          -3.4067  -15.4024   22.3926 O.2     1  UNL1       -0.2700
     24 N          -3.8415  -17.8723   23.0711 N.am    1  UNL1       -0.3026
     25 H          -4.2774  -18.5310   23.6589 H       1  UNL1        0.1497
     26 C          -2.9483  -18.3352   21.9585 C.3     1  UNL1        0.0728
     27 C          -1.8440  -17.9953   22.9150 C.3     1  UNL1        0.0211
     28 C          -1.8242  -18.7270   21.0458 C.3     1  UNL1        0.0364
     29 C          -2.4205  -19.2123   19.7579 C.3     1  UNL1        0.0703
     30 N          -3.9132  -19.1204   19.8744 N.3     1  UNL1       -0.2961
     31 C          -4.2393  -18.5783   21.2346 C.3     1  UNL1        0.0868
     32 H          -4.3267  -20.0461   19.7624 H       1  UNL1        0.1233
@<TRIPOS>BOND
     1    11    12    1
     2    12    13   ar
     3    13    14   ar
     4    14    15   ar
     5    15    16   ar
     6    16     1    1
     7     1     2   ar
     8     2     3   ar
     9     3     4   ar
    10     4     5   ar
    11     5     6   ar
    12     6     7   ar
    13     7    22    1
    14    22    23    2
    15    22    24   am
    16    24    26    1
    17    26    27    1
    18    26    28    1
    19    28    29    1
    20    29    30    1
    21    30    31    1
    22     7     8   ar
    23     8     9   ar
    24    16    17   ar
    25    17    18   ar
    26    18    19    1
    27    18    20   ar
    28    20    21   ar
    29    21    12   ar
    30    20    15   ar
    31     9     1   ar
    32     8     4    1
    33    31    26    1
    34    24    25    1
    35    30    32    1
    36     9    10    1
@<TRIPOS>MOLECULE
*****
 32 36 0 0 0
SMALL
GASTEIGER

@<TRIPOS>ATOM
      1 C           4.0438   -1.1200   25.4503 C.ar    1  UNL1        0.0957
      2 C           3.4967   -0.2722   26.5601 C.ar    1  UNL1        0.1191
      3 N           3.9819   -0.4717   27.9654 N.ar    1  UNL1       -0.2223
      4 C           5.0141   -1.5192   28.2609 C.ar    1  UNL1        0.1784
      5 N           5.6782   -1.9420   29.5376 N.ar    1  UNL1       -0.2236
      6 C           6.6357   -3.0511   29.2169 C.ar    1  UNL1        0.1066
      7 C           6.5633   -3.3139   27.7419 C.ar    1  UNL1        0.0910
      8 C           5.5611   -2.3671   27.1510 C.ar    1  UNL1        0.0988
      9 N           5.0760   -2.1675   25.7457 N.ar    1  UNL1       -0.3481
     10 H           5.4350   -2.7241   25.0173 H       1  UNL1        0.1661
     11 C           4.0655   -3.9631   18.9273 C.3     1  UNL1        0.0311
     12 C           3.9809   -3.2549   20.2470 C.ar    1  UNL1       -0.0204
     13 C           4.6478   -3.8402   21.4563 C.ar    1  UNL1       -0.0041
     14 C           4.5632   -3.1321   22.7759 C.ar    1  UNL1        0.0028
     15 C           3.8117   -1.8387   22.8862 C.ar    1  UNL1        0.0381
     16 C           3.5586   -0.9205   24.0450 C.ar    1  UNL1        0.1193
     17 N           2.7353    0.2324   23.5518 N.ar    1  UNL1       -0.1677
     18 N           2.4795    0.0266   22.0882 N.ar    1  UNL1       -0.2488
     19 C           1.6960    0.9404   21.1931 C.3     1  UNL1        0.1537
     20 C           3.1447   -1.2534   21.6768 C.ar    1  UNL1        0.0791
     21 C           3.2293   -1.9615   20.3572 C.ar    1  UNL1        0.0145
     22 C           7.3543   -4.3428   26.9898 C.2     1  UNL1        0.2488
     23 O           8.8457   -4.3996   27.1402 O.2     1  UNL1       -0.2700
     24 N           6.6540   -5.3149   26.0873 N.am    1  UNL1       -0.3026
     25 H           5.6752   -5.2777   25.9886 H       1  UNL1        0.1497
     26 C           7.4451   -6.3439   25.3353 C.3     1  UNL1        0.0728
     27 C           7.2473   -7.1707   26.5711 C.3     1  UNL1        0.0211
     28 C           8.1948   -7.5456   24.8416 C.3     1  UNL1        0.0364
     29 C           8.6905   -7.2464   23.4578 C.3     1  UNL1        0.0703
     30 N           8.2472   -5.8597   23.0963 N.3     1  UNL1       -0.2961
     31 C           7.4774   -5.3019   24.2567 C.3     1  UNL1        0.0868
     32 H           7.6515   -5.8914   22.2689 H       1  UNL1        0.1233
@<TRIPOS>BOND
     1    11    12    1
     2    12    13   ar
     3    13    14   ar
     4    14    15   ar
     5    15    16   ar
     6    16     1    1
     7     1     2   ar
     8     2     3   ar
     9     3     4   ar
    10     4     5   ar
    11     5     6   ar
    12     6     7   ar
    13     7    22    1
    14    22    23    2
    15    22    24   am
    16    24    26    1
    17    26    27    1
    18    26    28    1
    19    28    29    1
    20    29    30    1
    21    30    31    1
    22     7     8   ar
    23     8     9   ar
    24    16    17   ar
    25    17    18   ar
    26    18    19    1
    27    18    20   ar
    28    20    21   ar
    29    21    12   ar
    30    20    15   ar
    31     9     1   ar
    32     8     4    1
    33    31    26    1
    34    24    25    1
    35    30    32    1
    36     9    10    1
@<TRIPOS>MOLECULE
*****
 32 36 0 0 0
SMALL
GASTEIGER

@<TRIPOS>ATOM
      1 C          -8.7044  -18.7520   20.6020 C.ar    1  UNL1        0.0957
      2 C          -8.4639  -19.7938   19.5500 C.ar    1  UNL1        0.1191
      3 N          -7.1115  -20.4293   19.4190 N.ar    1  UNL1       -0.2223
      4 C          -5.9995  -20.0230   20.3401 C.ar    1  UNL1        0.1784
      5 N          -4.5721  -20.4708   20.4488 N.ar    1  UNL1       -0.2236
      6 C          -3.9303  -19.7057   21.5681 C.ar    1  UNL1        0.1066
      7 C          -4.9611  -18.7851   22.1511 C.ar    1  UNL1        0.0910
      8 C          -6.2400  -18.9812   21.3921 C.ar    1  UNL1        0.0988
      9 N          -7.5924  -18.3457   21.5231 N.ar    1  UNL1       -0.3481
     10 H          -7.7501  -17.6620   22.2136 H       1  UNL1        0.1661
     11 C         -14.3887  -18.2092   24.8477 C.3     1  UNL1        0.0311
     12 C         -13.2597  -18.2341   23.8605 C.ar    1  UNL1       -0.0204
     13 C         -12.0307  -19.0451   24.1468 C.ar    1  UNL1       -0.0041
     14 C         -10.9017  -19.0700   23.1596 C.ar    1  UNL1        0.0028
     15 C         -11.0016  -18.2839   21.8860 C.ar    1  UNL1        0.0381
     16 C         -10.0568  -18.1165   20.7330 C.ar    1  UNL1        0.1193
     17 N         -10.7018  -17.2021   19.7341 N.ar    1  UNL1       -0.1677
     18 N         -12.0452  -16.8043   20.2697 N.ar    1  UNL1       -0.2488
     19 C         -13.0304  -15.8972   19.5940 C.3     1  UNL1        0.1537
     20 C         -12.2305  -17.4729   21.5996 C.ar    1  UNL1        0.0791
     21 C         -13.3595  -17.4480   22.5869 C.ar    1  UNL1        0.0145
     22 C          -4.7500  -17.8352   23.2926 C.2     1  UNL1        0.2488
     23 O          -3.5954  -18.0332   24.2294 O.2     1  UNL1       -0.2700
     24 N          -5.6936  -16.6873   23.4974 N.am    1  UNL1       -0.3026
     25 H          -6.4515  -16.5573   22.8825 H       1  UNL1        0.1497
     26 C          -5.4825  -15.7374   24.6390 C.3     1  UNL1        0.0728
     27 C          -4.3902  -15.1854   23.7717 C.3     1  UNL1        0.0211
     28 C          -5.0431  -14.6721   25.5992 C.3     1  UNL1        0.0364
     29 C          -5.9080  -14.7643   26.8213 C.3     1  UNL1        0.0703
     30 N          -6.8820  -15.8865   26.6164 N.3     1  UNL1       -0.2961
     31 C          -6.6190  -16.4879   25.2675 C.3     1  UNL1        0.0868
     32 H          -7.8362  -15.5282   26.6555 H       1  UNL1        0.1233
@<TRIPOS>BOND
     1    11    12    1
     2    12    13   ar
     3    13    14   ar
     4    14    15   ar
     5    15    16   ar
     6    16     1    1
     7     1     2   ar
     8     2     3   ar
     9     3     4   ar
    10     4     5   ar
    11     5     6   ar
    12     6     7   ar
    13     7    22    1
    14    22    23    2
    15    22    24   am
    16    24    26    1
    17    26    27    1
    18    26    28    1
    19    28    29    1
    20    29    30    1
    21    30    31    1
    22     7     8   ar
    23     8     9   ar
    24    16    17   ar
    25    17    18   ar
    26    18    19    1
    27    18    20   ar
    28    20    21   ar
    29    21    12   ar
    30    20    15   ar
    31     9     1   ar
    32     8     4    1
    33    31    26    1
    34    24    25    1
    35    30    32    1
    36     9    10    1
@<TRIPOS>MOLECULE
*****
 32 36 0 0 0
SMALL
GASTEIGER

@<TRIPOS>ATOM
      1 C           5.6892   -3.2770   23.9240 C.ar    1  UNL1        0.0957
      2 C           6.9108   -4.0882   24.2391 C.ar    1  UNL1        0.1191
      3 N           7.4917   -4.0632   25.6219 N.ar    1  UNL1       -0.2223
      4 C           6.8509   -3.2269   26.6895 C.ar    1  UNL1        0.1784
      5 N           7.1955   -3.0047   28.1324 N.ar    1  UNL1       -0.2236
      6 C           6.1867   -2.0560   28.7090 C.ar    1  UNL1        0.1066
      7 C           5.2187   -1.6920   27.6226 C.ar    1  UNL1        0.0910
      8 C           5.6292   -2.4157   26.3744 C.ar    1  UNL1        0.0988
      9 N           5.0483   -2.4407   24.9917 N.ar    1  UNL1       -0.3481
     10 H           4.2465   -1.9082   24.7849 H       1  UNL1        0.1661
     11 C           1.1397    0.0283   19.5640 C.3     1  UNL1        0.0311
     12 C           2.1255   -0.7611   20.3735 C.ar    1  UNL1       -0.0204
     13 C           2.4220   -0.3642   21.7892 C.ar    1  UNL1       -0.0041
     14 C           3.4078   -1.1535   22.5987 C.ar    1  UNL1        0.0028
     15 C           4.0970   -2.3398   21.9923 C.ar    1  UNL1        0.0381
     16 C           5.1083   -3.3020   22.5413 C.ar    1  UNL1        0.1193
     17 N           5.4368   -4.2936   21.4647 N.ar    1  UNL1       -0.1677
     18 N           4.6285   -3.9443   20.2505 N.ar    1  UNL1       -0.2488
     19 C           4.6452   -4.6742   18.9402 C.3     1  UNL1        0.1537
     20 C           3.8004   -2.7367   20.5765 C.ar    1  UNL1        0.0791
     21 C           2.8146   -1.9473   19.7671 C.ar    1  UNL1        0.0145
     22 C           4.0461   -0.7668   27.7601 C.2     1  UNL1        0.2488
     23 O           3.2417   -0.3906   26.5512 O.2     1  UNL1       -0.2700
     24 N           3.6779   -0.2177   29.1065 N.am    1  UNL1       -0.3026
     25 H           4.2059   -0.4645   29.9000 H       1  UNL1        0.1497
     26 C           2.5053    0.7076   29.2440 C.3     1  UNL1        0.0728
     27 C           3.5337    1.7841   29.0609 C.3     1  UNL1        0.0211
     28 C           1.5477    1.8579   29.3432 C.3     1  UNL1        0.0364
     29 C           0.1725    1.2989   29.5590 C.3     1  UNL1        0.0703
     30 N           0.2802   -0.1969   29.5931 N.3     1  UNL1       -0.2961
     31 C           1.7220   -0.5623   29.3985 C.3     1  UNL1        0.0868
     32 H          -0.2834   -0.6017   28.8456 H       1  UNL1        0.1233
@<TRIPOS>BOND
     1    11    12    1
     2    12    13   ar
     3    13    14   ar
     4    14    15   ar
     5    15    16   ar
     6    16     1    1
     7     1     2   ar
     8     2     3   ar
     9     3     4   ar
    10     4     5   ar
    11     5     6   ar
    12     6     7   ar
    13     7    22    1
    14    22    23    2
    15    22    24   am
    16    24    26    1
    17    26    27    1
    18    26    28    1
    19    28    29    1
    20    29    30    1
    21    30    31    1
    22     7     8   ar
    23     8     9   ar
    24    16    17   ar
    25    17    18   ar
    26    18    19    1
    27    18    20   ar
    28    20    21   ar
    29    21    12   ar
    30    20    15   ar
    31     9     1   ar
    32     8     4    1
    33    31    26    1
    34    24    25    1
    35    30    32    1
    36     9    10    1
@<TRIPOS>MOLECULE
*****
 32 36 0 0 0
SMALL
GASTEIGER

@<TRIPOS>ATOM
      1 C           3.2398   -0.4112   24.4609 C.ar    1  UNL1        0.0957
      2 C           2.4806    0.6363   25.2199 C.ar    1  UNL1        0.1191
      3 N           2.7594    0.8565   26.6772 N.ar    1  UNL1       -0.2223
      4 C           3.7975    0.0291   27.3756 C.ar    1  UNL1        0.1784
      5 N           4.2860    0.0193   28.7937 N.ar    1  UNL1       -0.2236
      6 C           5.3472   -1.0342   28.9112 C.ar    1  UNL1        0.1066
      7 C           5.5146   -1.6756   27.5656 C.ar    1  UNL1        0.0910
      8 C           4.5568   -1.0184   26.6165 C.ar    1  UNL1        0.0988
      9 N           4.2780   -1.2386   25.1592 N.ar    1  UNL1       -0.3481
     10 H           4.7764   -1.9261   24.6611 H       1  UNL1        0.1661
     11 C           4.6203   -4.6965   18.9507 C.3     1  UNL1        0.0311
     12 C           4.2467   -3.7145   20.0212 C.ar    1  UNL1       -0.0204
     13 C           4.7800   -3.8831   21.4129 C.ar    1  UNL1       -0.0041
     14 C           4.4064   -2.9010   22.4834 C.ar    1  UNL1        0.0028
     15 C           3.4994   -1.7503   22.1621 C.ar    1  UNL1        0.0381
     16 C           2.9610   -0.6313   23.0035 C.ar    1  UNL1        0.1193
     17 N           2.0949    0.2289   22.1318 N.ar    1  UNL1       -0.1677
     18 N           2.0980   -0.3585   20.7516 N.ar    1  UNL1       -0.2488
     19 C           1.3622    0.1823   19.5616 C.3     1  UNL1        0.1537
     20 C           2.9660   -1.5817   20.7704 C.ar    1  UNL1        0.0791
     21 C           3.3397   -2.5638   19.6999 C.ar    1  UNL1        0.0145
     22 C           6.4717   -2.7802   27.2284 C.2     1  UNL1        0.2488
     23 O           7.9505   -2.5361   27.2897 O.2     1  UNL1       -0.2700
     24 N           5.9501   -4.1289   26.8298 N.am    1  UNL1       -0.3026
     25 H           4.9796   -4.2891   26.7895 H       1  UNL1        0.1497
     26 C           6.9073   -5.2335   26.4925 C.3     1  UNL1        0.0728
     27 C           6.8820   -4.6242   25.1221 C.3     1  UNL1        0.0211
     28 C           7.8592   -6.2107   25.8688 C.3     1  UNL1        0.0364
     29 C           8.2727   -7.1931   26.9242 C.3     1  UNL1        0.0703
     30 N           7.5764   -6.8231   28.2003 N.3     1  UNL1       -0.2961
     31 C           6.7325   -5.6119   27.9335 C.3     1  UNL1        0.0868
     32 H           8.2656   -6.6125   28.9222 H       1  UNL1        0.1233
@<TRIPOS>BOND
     1    11    12    1
     2    12    13   ar
     3    13    14   ar
     4    14    15   ar
     5    15    16   ar
     6    16     1    1
     7     1     2   ar
     8     2     3   ar
     9     3     4   ar
    10     4     5   ar
    11     5     6   ar
    12     6     7   ar
    13     7    22    1
    14    22    23    2
    15    22    24   am
    16    24    26    1
    17    26    27    1
    18    26    28    1
    19    28    29    1
    20    29    30    1
    21    30    31    1
    22     7     8   ar
    23     8     9   ar
    24    16    17   ar
    25    17    18   ar
    26    18    19    1
    27    18    20   ar
    28    20    21   ar
    29    21    12   ar
    30    20    15   ar
    31     9     1   ar
    32     8     4    1
    33    31    26    1
    34    24    25    1
    35    30    32    1
    36     9    10    1
@<TRIPOS>MOLECULE
*****
 32 36 0 0 0
SMALL
GASTEIGER

@<TRIPOS>ATOM
      1 C           0.2718    2.0026   20.4667 C.ar    1  UNL1        0.0957
      2 C           0.8158    2.3361   19.1093 C.ar    1  UNL1        0.1191
      3 N          -0.0152    3.1249   18.1412 N.ar    1  UNL1       -0.2223
      4 C          -1.3903    3.5802   18.5305 C.ar    1  UNL1        0.1784
      5 N          -2.4335    4.3664   17.7933 N.ar    1  UNL1       -0.2236
      6 C          -3.6224    4.5188   18.6951 C.ar    1  UNL1        0.1066
      7 C          -3.3139    3.8269   19.9897 C.ar    1  UNL1        0.0910
      8 C          -1.9344    3.2468   19.8880 C.ar    1  UNL1        0.0988
      9 N          -1.1034    2.4580   20.8561 N.ar    1  UNL1       -0.3481
     10 H          -1.4605    2.2391   21.7470 H       1  UNL1        0.1661
     11 C           4.7040   -3.5364   21.0207 C.3     1  UNL1        0.0311
     12 C           3.7870   -2.3496   21.0476 C.ar    1  UNL1       -0.0204
     13 C           3.1350   -1.8768   19.7822 C.ar    1  UNL1       -0.0041
     14 C           2.2180   -0.6900   19.8092 C.ar    1  UNL1        0.0028
     15 C           1.9532    0.0240   21.1014 C.ar    1  UNL1        0.0381
     16 C           1.1028    1.2138   21.4348 C.ar    1  UNL1        0.1193
     17 N           1.2293    1.4764   22.9063 N.ar    1  UNL1       -0.1677
     18 N           2.1579    0.4488   23.4823 N.ar    1  UNL1       -0.2488
     19 C           2.5672    0.3382   24.9211 C.3     1  UNL1        0.1537
     20 C           2.6052   -0.4488   22.3668 C.ar    1  UNL1        0.0791
     21 C           3.5222   -1.6356   22.3399 C.ar    1  UNL1        0.0145
     22 C          -4.2250    3.7317   21.1774 C.2     1  UNL1        0.2488
     23 O          -4.6762    2.3890   21.6710 O.2     1  UNL1       -0.2700
     24 N          -4.6850    4.9793   21.8717 N.am    1  UNL1       -0.3026
     25 H          -4.3889    5.8606   21.5478 H       1  UNL1        0.1497
     26 C          -5.5962    4.8841   23.0595 C.3     1  UNL1        0.0728
     27 C          -4.3193    4.9343   23.8450 C.3     1  UNL1        0.0211
     28 C          -6.2404    4.7994   24.4115 C.3     1  UNL1        0.0364
     29 C          -7.7249    4.7168   24.2132 C.3     1  UNL1        0.0703
     30 N          -7.9983    4.7504   22.7387 N.3     1  UNL1       -0.2961
     31 C          -6.6825    4.8538   22.0256 C.3     1  UNL1        0.0868
     32 H          -8.5789    5.5580   22.5126 H       1  UNL1        0.1233
@<TRIPOS>BOND
     1    11    12    1
     2    12    13   ar
     3    13    14   ar
     4    14    15   ar
     5    15    16   ar
     6    16     1    1
     7     1     2   ar
     8     2     3   ar
     9     3     4   ar
    10     4     5   ar
    11     5     6   ar
    12     6     7   ar
    13     7    22    1
    14    22    23    2
    15    22    24   am
    16    24    26    1
    17    26    27    1
    18    26    28    1
    19    28    29    1
    20    29    30    1
    21    30    31    1
    22     7     8   ar
    23     8     9   ar
    24    16    17   ar
    25    17    18   ar
    26    18    19    1
    27    18    20   ar
    28    20    21   ar
    29    21    12   ar
    30    20    15   ar
    31     9     1   ar
    32     8     4    1
    33    31    26    1
    34    24    25    1
    35    30    32    1
    36     9    10    1
@<TRIPOS>MOLECULE
*****
 32 36 0 0 0
SMALL
GASTEIGER

@<TRIPOS>ATOM
      1 C          -6.0877  -19.0439   20.6286 C.ar    1  UNL1        0.0957
      2 C          -4.9911  -19.4537   19.6909 C.ar    1  UNL1        0.1191
      3 N          -3.5566  -19.2603   20.0842 N.ar    1  UNL1       -0.2223
      4 C          -3.2186  -18.6569   21.4153 C.ar    1  UNL1        0.1784
      5 N          -1.9065  -18.3460   22.0723 N.ar    1  UNL1       -0.2236
      6 C          -2.1922  -17.7440   23.4161 C.ar    1  UNL1        0.1066
      7 C          -3.6809  -17.6829   23.5896 C.ar    1  UNL1        0.0910
      8 C          -4.3153  -18.2471   22.3530 C.ar    1  UNL1        0.0988
      9 N          -5.7498  -18.4405   21.9597 N.ar    1  UNL1       -0.3481
     10 H          -6.4695  -18.1715   22.5752 H       1  UNL1        0.1661
     11 C         -12.7980  -17.9908   22.7487 C.3     1  UNL1        0.0311
     12 C         -11.4387  -18.2727   22.1806 C.ar    1  UNL1       -0.0204
     13 C         -10.2098  -17.8921   22.9519 C.ar    1  UNL1       -0.0041
     14 C          -8.8505  -18.1740   22.3838 C.ar    1  UNL1        0.0028
     15 C          -8.7200  -18.8364   21.0444 C.ar    1  UNL1        0.0381
     16 C          -7.5223  -19.2374   20.2353 C.ar    1  UNL1        0.1193
     17 N          -8.0109  -19.8658   18.9640 N.ar    1  UNL1       -0.1677
     18 N          -9.5106  -19.8532   18.9873 N.ar    1  UNL1       -0.2488
     19 C         -10.4136  -20.3836   17.9134 C.3     1  UNL1        0.1537
     20 C          -9.9489  -19.2170   20.2731 C.ar    1  UNL1        0.0791
     21 C         -11.3082  -18.9351   20.8412 C.ar    1  UNL1        0.0145
     22 C          -4.4076  -17.1509   24.7892 C.2     1  UNL1        0.2488
     23 O          -4.0738  -17.6663   26.1578 O.2     1  UNL1       -0.2700
     24 N          -5.4680  -16.1036   24.6201 N.am    1  UNL1       -0.3026
     25 H          -5.6871  -15.7653   23.7219 H       1  UNL1        0.1497
     26 C          -6.1947  -15.5716   25.8197 C.3     1  UNL1        0.0728
     27 C          -4.8889  -14.8951   26.1148 C.3     1  UNL1        0.0211
     28 C          -6.6484  -14.8982   27.0810 C.3     1  UNL1        0.0364
     29 C          -8.0828  -15.2698   27.3146 C.3     1  UNL1        0.0703
     30 N          -8.5156  -16.1728   26.1978 N.3     1  UNL1       -0.2961
     31 C          -7.3487  -16.3593   25.2739 C.3     1  UNL1        0.0868
     32 H          -9.2934  -15.7492   25.6919 H       1  UNL1        0.1233
@<TRIPOS>BOND
     1    11    12    1
     2    12    13   ar
     3    13    14   ar
     4    14    15   ar
     5    15    16   ar
     6    16     1    1
     7     1     2   ar
     8     2     3   ar
     9     3     4   ar
    10     4     5   ar
    11     5     6   ar
    12     6     7   ar
    13     7    22    1
    14    22    23    2
    15    22    24   am
    16    24    26    1
    17    26    27    1
    18    26    28    1
    19    28    29    1
    20    29    30    1
    21    30    31    1
    22     7     8   ar
    23     8     9   ar
    24    16    17   ar
    25    17    18   ar
    26    18    19    1
    27    18    20   ar
    28    20    21   ar
    29    21    12   ar
    30    20    15   ar
    31     9     1   ar
    32     8     4    1
    33    31    26    1
    34    24    25    1
    35    30    32    1
    36     9    10    1
@<TRIPOS>MOLECULE
*****
 32 36 0 0 0
SMALL
GASTEIGER

@<TRIPOS>ATOM
      1 C          -8.6220  -16.1353   23.5456 C.ar    1  UNL1        0.0957
      2 C          -8.8211  -15.5369   24.9065 C.ar    1  UNL1        0.1191
      3 N          -7.6589  -15.4058   25.8456 N.ar    1  UNL1       -0.2223
      4 C          -6.2974  -15.8732   25.4238 C.ar    1  UNL1        0.1784
      5 N          -4.9732  -15.8729   26.1284 N.ar    1  UNL1       -0.2236
      6 C          -3.9556  -16.4712   25.2030 C.ar    1  UNL1        0.1066
      7 C          -4.6509  -16.8413   23.9264 C.ar    1  UNL1        0.0910
      8 C          -6.0982  -16.4716   24.0629 C.ar    1  UNL1        0.0988
      9 N          -7.2605  -16.6027   23.1238 N.ar    1  UNL1       -0.3481
     10 H          -7.1297  -16.9955   22.2306 H       1  UNL1        0.1661
     11 C         -15.2153  -18.7378   22.9234 C.3     1  UNL1        0.0311
     12 C         -13.8392  -18.1409   22.9174 C.ar    1  UNL1       -0.0204
     13 C         -12.9704  -18.2469   24.1356 C.ar    1  UNL1       -0.0041
     14 C         -11.5943  -17.6501   24.1296 C.ar    1  UNL1        0.0028
     15 C         -11.0869  -16.9472   22.9055 C.ar    1  UNL1        0.0381
     16 C          -9.7842  -16.2664   22.6065 C.ar    1  UNL1        0.1193
     17 N          -9.8479  -15.7396   21.2034 N.ar    1  UNL1       -0.1677
     18 N         -11.1899  -16.0949   20.6354 N.ar    1  UNL1       -0.2488
     19 C         -11.6801  -15.7622   19.2573 C.3     1  UNL1        0.1537
     20 C         -11.9556  -16.8413   21.6873 C.ar    1  UNL1        0.0791
     21 C         -13.3318  -17.4381   21.6933 C.ar    1  UNL1        0.0145
     22 C          -4.0112  -17.4704   22.7244 C.2     1  UNL1        0.2488
     23 O          -4.8640  -18.1130   21.6709 O.2     1  UNL1       -0.2700
     24 N          -2.5186  -17.4570   22.5758 N.am    1  UNL1       -0.3026
     25 H          -1.9589  -17.0353   23.2672 H       1  UNL1        0.1497
     26 C          -1.8789  -18.0863   21.3737 C.3     1  UNL1        0.0728
     27 C          -2.3932  -19.3652   21.9651 C.3     1  UNL1        0.0211
     28 C          -1.3467  -18.9828   20.2953 C.3     1  UNL1        0.0364
     29 C          -0.6373  -18.1264   19.2887 C.3     1  UNL1        0.0703
     30 N          -0.7310  -16.7005   19.7450 N.3     1  UNL1       -0.2961
     31 C          -1.4984  -16.6758   21.0337 C.3     1  UNL1        0.0868
     32 H          -1.2167  -16.1434   19.0421 H       1  UNL1        0.1233
@<TRIPOS>BOND
     1    11    12    1
     2    12    13   ar
     3    13    14   ar
     4    14    15   ar
     5    15    16   ar
     6    16     1    1
     7     1     2   ar
     8     2     3   ar
     9     3     4   ar
    10     4     5   ar
    11     5     6   ar
    12     6     7   ar
    13     7    22    1
    14    22    23    2
    15    22    24   am
    16    24    26    1
    17    26    27    1
    18    26    28    1
    19    28    29    1
    20    29    30    1
    21    30    31    1
    22     7     8   ar
    23     8     9   ar
    24    16    17   ar
    25    17    18   ar
    26    18    19    1
    27    18    20   ar
    28    20    21   ar
    29    21    12   ar
    30    20    15   ar
    31     9     1   ar
    32     8     4    1
    33    31    26    1
    34    24    25    1
    35    30    32    1
    36     9    10    1
@<TRIPOS>MOLECULE
*****
 32 36 0 0 0
SMALL
GASTEIGER

@<TRIPOS>ATOM
      1 C          -0.1925    3.1575   22.1740 C.ar    1  UNL1        0.0957
      2 C          -1.5125    3.6595   21.6685 C.ar    1  UNL1        0.1191
      3 N          -2.6485    3.8758   22.6239 N.ar    1  UNL1       -0.2223
      4 C          -2.4645    3.5899   24.0848 C.ar    1  UNL1        0.1784
      5 N          -3.3951    3.7069   25.2554 N.ar    1  UNL1       -0.2236
      6 C          -2.6503    3.2771   26.4844 C.ar    1  UNL1        0.1066
      7 C          -1.2594    2.8945   26.0734 C.ar    1  UNL1        0.0910
      8 C          -1.1445    3.0879   24.5903 C.ar    1  UNL1        0.0988
      9 N          -0.0086    2.8717   23.6350 N.ar    1  UNL1       -0.3481
     10 H           0.8578    2.5422   23.9668 H       1  UNL1        0.1661
     11 C           3.6222   -1.8476   18.8530 C.3     1  UNL1        0.0311
     12 C           2.9019   -0.6938   19.4855 C.ar    1  UNL1       -0.0204
     13 C           1.7643   -0.9467   20.4299 C.ar    1  UNL1       -0.0041
     14 C           1.0440    0.2070   21.0625 C.ar    1  UNL1        0.0028
     15 C           1.4613    1.6136   20.7507 C.ar    1  UNL1        0.0381
     16 C           0.9434    2.9413   21.2186 C.ar    1  UNL1        0.1193
     17 N           1.7610    4.0148   20.5634 N.ar    1  UNL1       -0.1677
     18 N           2.7841    3.3505   19.6905 N.ar    1  UNL1       -0.2488
     19 C           3.8120    4.0478   18.8496 C.3     1  UNL1        0.1537
     20 C           2.5989    1.8665   19.8063 C.ar    1  UNL1        0.0791
     21 C           3.3192    0.7128   19.1737 C.ar    1  UNL1        0.0145
     22 C          -0.1739    2.4047   26.9853 C.2     1  UNL1        0.2488
     23 O           0.3827    3.3108   28.0433 O.2     1  UNL1       -0.2700
     24 N           0.3551    1.0087   26.8394 N.am    1  UNL1       -0.3026
     25 H          -0.0101    0.4139   26.1450 H       1  UNL1        0.1497
     26 C           1.4407    0.5188   27.7514 C.3     1  UNL1        0.0728
     27 C           2.3554    1.0115   26.6695 C.3     1  UNL1        0.0211
     28 C           2.7174    0.1319   28.4372 C.3     1  UNL1        0.0364
     29 C           2.3649   -0.4975   29.7523 C.3     1  UNL1        0.0703
     30 N           0.8702   -0.4996   29.8793 N.3     1  UNL1       -0.2961
     31 C           0.2991    0.1285   28.6426 C.3     1  UNL1        0.0868
     32 H           0.5918    0.0375   30.7006 H       1  UNL1        0.1233
@<TRIPOS>BOND
     1    11    12    1
     2    12    13   ar
     3    13    14   ar
     4    14    15   ar
     5    15    16   ar
     6    16     1    1
     7     1     2   ar
     8     2     3   ar
     9     3     4   ar
    10     4     5   ar
    11     5     6   ar
    12     6     7   ar
    13     7    22    1
    14    22    23    2
    15    22    24   am
    16    24    26    1
    17    26    27    1
    18    26    28    1
    19    28    29    1
    20    29    30    1
    21    30    31    1
    22     7     8   ar
    23     8     9   ar
    24    16    17   ar
    25    17    18   ar
    26    18    19    1
    27    18    20   ar
    28    20    21   ar
    29    21    12   ar
    30    20    15   ar
    31     9     1   ar
    32     8     4    1
    33    31    26    1
    34    24    25    1
    35    30    32    1
    36     9    10    1
