@<TRIPOS>MOLECULE
*****
 35 38 0 0 0
SMALL
GASTEIGER

@<TRIPOS>ATOM
      1 C          -9.2990  -19.5790   20.7009 C.ar    1  UNL1        0.1311
      2 C          -8.6975  -19.6127   19.3272 C.ar    1  UNL1        0.0339
      3 C          -7.2706  -20.0371   19.1435 C.ar    1  UNL1        0.0027
      4 C          -6.4452  -20.4278   20.3334 C.ar    1  UNL1        0.0283
      5 C          -7.0467  -20.3942   21.7071 C.ar    1  UNL1        0.2196
      6 F          -6.2212  -20.7849   22.8971 F       1  UNL1       -0.1835
      7 N          -8.4736  -19.9698   21.8908 N.ar    1  UNL1       -0.2035
      8 N         -10.7259  -19.1546   20.8847 N.pl3   1  UNL1       -0.3143
      9 H         -11.3379  -19.1387   20.1137 H       1  UNL1        0.1485
     10 C         -11.2205  -18.7546   22.2431 C.3     1  UNL1        0.1201
     11 C          -9.7027  -16.6680   22.5480 C.ar    1  UNL1        0.2225
     12 N          -8.8579  -15.7934   23.4261 N.ar    1  UNL1       -0.2080
     13 C          -8.6860  -16.1306   24.8776 C.ar    1  UNL1        0.1316
     14 C          -9.3589  -17.3424   25.4509 C.ar    1  UNL1        0.1592
     15 F          -9.1869  -17.6795   26.9024 F       1  UNL1       -0.2025
     16 C         -10.2037  -18.2170   24.5727 C.ar    1  UNL1        0.0333
     17 C         -10.3757  -17.8799   23.1212 C.ar    1  UNL1        0.0529
     18 C         -11.1226  -15.6423   20.6291 C.3     1  UNL1        0.2542
     19 O          -9.8747  -16.3309   21.0965 O.3     1  UNL1       -0.4563
     20 C          -5.0182  -20.8522   20.1496 C.3     1  UNL1        0.0582
     21 C          -3.9468  -19.8194   19.9619 C.ar    1  UNL1        0.0044
     22 C          -3.0535  -19.6833   18.7646 C.ar    1  UNL1        0.0966
     23 N          -2.1352  -18.5210   19.0012 N.ar    1  UNL1       -0.2273
     24 C          -2.4610  -17.9389   20.3447 C.ar    1  UNL1        0.1403
     25 N          -1.8828  -16.7818   21.1041 N.ar    1  UNL1       -0.3364
     26 C          -2.4242  -16.4271   22.4573 C.ar    1  UNL1        0.0883
     27 C          -3.5439  -17.2295   23.0510 C.ar    1  UNL1        0.0677
     28 C          -4.1221  -18.3866   22.2916 C.ar    1  UNL1        0.0189
     29 C          -3.5806  -18.7413   20.9384 C.ar    1  UNL1        0.0331
     30 H          -1.1479  -16.2551   20.7145 H       1  UNL1        0.1674
     31 N          -4.0853  -16.8748   24.4042 N.am    1  UNL1       -0.2827
     32 C          -5.0084  -15.7027   24.5590 C.2     1  UNL1        0.2266
     33 C          -5.5498  -15.3480   25.9122 C.3     1  UNL1        0.0949
     34 O          -5.3900  -14.8852   23.3606 O.2     1  UNL1       -0.2748
     35 H          -3.8348  -17.4113   25.1907 H       1  UNL1        0.1549
@<TRIPOS>BOND
     1    18    19    1
     2    19    11    1
     3    11    12   ar
     4    12    13   ar
     5    13    14   ar
     6    14    15    1
     7    14    16   ar
     8    16    17   ar
     9    17    10    1
    10    10     8    1
    11     8     1    1
    12     1     2   ar
    13     2     3   ar
    14     3     4   ar
    15     4    20    1
    16    20    21    1
    17    21    22   ar
    18    22    23   ar
    19    23    24   ar
    20    24    25   ar
    21    25    26   ar
    22    26    27   ar
    23    27    31    1
    24    31    32   am
    25    32    33    1
    26    32    34    2
    27    27    28   ar
    28    28    29   ar
    29     4     5   ar
    30     5     6    1
    31     5     7   ar
    32    17    11   ar
    33     7     1   ar
    34    29    21   ar
    35    29    24    1
    36     8     9    1
    37    25    30    1
    38    31    35    1
@<TRIPOS>MOLECULE
*****
 35 38 0 0 0
SMALL
GASTEIGER

@<TRIPOS>ATOM
      1 C          -9.3871  -19.6519   22.3297 C.ar    1  UNL1        0.1311
      2 C          -8.3426  -20.3541   23.1457 C.ar    1  UNL1        0.0339
      3 C          -7.0383  -20.7462   22.5173 C.ar    1  UNL1        0.0027
      4 C          -6.7785  -20.4363   21.0728 C.ar    1  UNL1        0.0283
      5 C          -7.8230  -19.7341   20.2568 C.ar    1  UNL1        0.2196
      6 F          -7.5633  -19.4241   18.8123 F       1  UNL1       -0.1835
      7 N          -9.1273  -19.3419   20.8852 N.ar    1  UNL1       -0.2035
      8 N         -10.6914  -19.2597   22.9581 N.pl3   1  UNL1       -0.3143
      9 H         -11.3273  -19.9538   23.2463 H       1  UNL1        0.1485
     10 C         -11.0269  -17.8099   23.1473 C.3     1  UNL1        0.1201
     11 C          -9.4430  -16.0153   22.1371 C.ar    1  UNL1        0.2225
     12 N          -9.1237  -15.0245   21.0572 N.ar    1  UNL1       -0.2080
     13 C         -10.0690  -14.8373   19.9077 C.ar    1  UNL1        0.1316
     14 C         -11.3336  -15.6411   19.8380 C.ar    1  UNL1        0.1592
     15 F         -12.2788  -15.4539   18.6884 F       1  UNL1       -0.2025
     16 C         -11.6528  -16.6319   20.9179 C.ar    1  UNL1        0.0333
     17 C         -10.7076  -16.8191   22.0675 C.ar    1  UNL1        0.0529
     18 C          -8.8629  -15.6916   24.6488 C.3     1  UNL1        0.2542
     19 O          -8.4977  -16.2024   23.2867 O.3     1  UNL1       -0.4563
     20 C          -5.4741  -20.8285   20.4444 C.3     1  UNL1        0.0582
     21 C          -4.4019  -19.8001   20.2379 C.ar    1  UNL1        0.0044
     22 C          -3.5455  -19.6525   19.0152 C.ar    1  UNL1        0.0966
     23 N          -2.6121  -18.4999   19.2396 N.ar    1  UNL1       -0.2273
     24 C          -2.8916  -17.9352   20.6008 C.ar    1  UNL1        0.1403
     25 N          -2.2818  -16.7931   21.3582 N.ar    1  UNL1       -0.3364
     26 C          -2.7781  -16.4546   22.7326 C.ar    1  UNL1        0.0883
     27 C          -3.8843  -17.2582   23.3496 C.ar    1  UNL1        0.0677
     28 C          -4.4941  -18.4003   22.5922 C.ar    1  UNL1        0.0189
     29 C          -3.9977  -18.7388   21.2178 C.ar    1  UNL1        0.0331
     30 H          -1.5558  -16.2657   20.9533 H       1  UNL1        0.1674
     31 N          -4.3806  -16.9196   24.7241 N.am    1  UNL1       -0.2827
     32 C          -5.1975  -15.6807   24.9424 C.2     1  UNL1        0.2266
     33 C          -5.6939  -15.3422   26.3169 C.3     1  UNL1        0.0949
     34 O          -5.5182  -14.7804   23.7863 O.2     1  UNL1       -0.2748
     35 H          -4.1701  -17.5105   25.4829 H       1  UNL1        0.1549
@<TRIPOS>BOND
     1    18    19    1
     2    19    11    1
     3    11    12   ar
     4    12    13   ar
     5    13    14   ar
     6    14    15    1
     7    14    16   ar
     8    16    17   ar
     9    17    10    1
    10    10     8    1
    11     8     1    1
    12     1     2   ar
    13     2     3   ar
    14     3     4   ar
    15     4    20    1
    16    20    21    1
    17    21    22   ar
    18    22    23   ar
    19    23    24   ar
    20    24    25   ar
    21    25    26   ar
    22    26    27   ar
    23    27    31    1
    24    31    32   am
    25    32    33    1
    26    32    34    2
    27    27    28   ar
    28    28    29   ar
    29     4     5   ar
    30     5     6    1
    31     5     7   ar
    32    17    11   ar
    33     7     1   ar
    34    29    21   ar
    35    29    24    1
    36     8     9    1
    37    25    30    1
    38    31    35    1
@<TRIPOS>MOLECULE
*****
 35 38 0 0 0
SMALL
GASTEIGER

@<TRIPOS>ATOM
      1 C          -5.6785  -19.8234   21.9937 C.ar    1  UNL1        0.1311
      2 C          -5.7211  -19.2067   20.6270 C.ar    1  UNL1        0.0339
      3 C          -7.0343  -19.0335   19.9231 C.ar    1  UNL1        0.0027
      4 C          -8.3048  -19.4770   20.5858 C.ar    1  UNL1        0.0283
      5 C          -8.2621  -20.0937   21.9524 C.ar    1  UNL1        0.2196
      6 F          -9.5326  -20.5373   22.6151 F       1  UNL1       -0.1835
      7 N          -6.9490  -20.2669   22.6563 N.ar    1  UNL1       -0.2035
      8 N          -4.3653  -19.9967   22.6977 N.pl3   1  UNL1       -0.3143
      9 H          -4.3372  -20.0523   23.6802 H       1  UNL1        0.1485
     10 C          -3.0951  -20.0852   21.9048 C.3     1  UNL1        0.1201
     11 C          -2.5575  -17.5655   22.2396 C.ar    1  UNL1        0.2225
     12 N          -1.8672  -16.3132   21.7868 N.ar    1  UNL1       -0.2080
     13 C          -1.0241  -16.3282   20.5462 C.ar    1  UNL1        0.1316
     14 C          -0.8714  -17.5955   19.7585 C.ar    1  UNL1        0.1592
     15 F          -0.0282  -17.6105   18.5180 F       1  UNL1       -0.2025
     16 C          -1.5617  -18.8479   20.2114 C.ar    1  UNL1        0.0333
     17 C          -2.4048  -18.8328   21.4520 C.ar    1  UNL1        0.0529
     18 C          -4.5357  -16.5777   23.6039 C.3     1  UNL1        0.2542
     19 O          -3.4006  -17.5504   23.4802 O.3     1  UNL1       -0.4563
     20 C          -9.6180  -19.3037   19.8817 C.3     1  UNL1        0.0582
     21 C         -10.5225  -18.1655   20.2510 C.ar    1  UNL1        0.0044
     22 C         -11.6349  -17.6145   19.4090 C.ar    1  UNL1        0.0966
     23 N         -12.2733  -16.4869   20.1648 N.ar    1  UNL1       -0.2273
     24 C         -11.5554  -16.3411   21.4738 C.ar    1  UNL1        0.1403
     25 N         -11.7473  -15.3978   22.6240 N.ar    1  UNL1       -0.3364
     26 C         -10.8571  -15.4918   23.8276 C.ar    1  UNL1        0.0883
     27 C          -9.7750  -16.5293   23.8809 C.ar    1  UNL1        0.0677
     28 C          -9.5832  -17.4727   22.7306 C.ar    1  UNL1        0.0189
     29 C         -10.4734  -17.3786   21.5270 C.ar    1  UNL1        0.0331
     30 H         -12.4575  -14.7168   22.5891 H       1  UNL1        0.1674
     31 N          -8.8848  -16.6233   25.0845 N.am    1  UNL1       -0.2827
     32 C          -7.7709  -15.6365   25.2725 C.2     1  UNL1        0.2266
     33 C          -6.8806  -15.7305   26.4761 C.3     1  UNL1        0.0949
     34 O          -7.5471  -14.5556   24.2568 O.2     1  UNL1       -0.2748
     35 H          -9.0316  -17.3327   25.7512 H       1  UNL1        0.1549
@<TRIPOS>BOND
     1    18    19    1
     2    19    11    1
     3    11    12   ar
     4    12    13   ar
     5    13    14   ar
     6    14    15    1
     7    14    16   ar
     8    16    17   ar
     9    17    10    1
    10    10     8    1
    11     8     1    1
    12     1     2   ar
    13     2     3   ar
    14     3     4   ar
    15     4    20    1
    16    20    21    1
    17    21    22   ar
    18    22    23   ar
    19    23    24   ar
    20    24    25   ar
    21    25    26   ar
    22    26    27   ar
    23    27    31    1
    24    31    32   am
    25    32    33    1
    26    32    34    2
    27    27    28   ar
    28    28    29   ar
    29     4     5   ar
    30     5     6    1
    31     5     7   ar
    32    17    11   ar
    33     7     1   ar
    34    29    21   ar
    35    29    24    1
    36     8     9    1
    37    25    30    1
    38    31    35    1
@<TRIPOS>MOLECULE
*****
 35 38 0 0 0
SMALL
GASTEIGER

@<TRIPOS>ATOM
      1 C          -8.2539  -20.0296   22.6962 C.ar    1  UNL1        0.1311
      2 C          -7.2310  -21.0645   23.0605 C.ar    1  UNL1        0.0339
      3 C          -6.0494  -21.2982   22.1666 C.ar    1  UNL1        0.0027
      4 C          -5.8907  -20.4972   20.9083 C.ar    1  UNL1        0.0283
      5 C          -6.9136  -19.4623   20.5440 C.ar    1  UNL1        0.2196
      6 F          -6.7550  -18.6613   19.2858 F       1  UNL1       -0.1835
      7 N          -8.0952  -19.2286   21.4379 N.ar    1  UNL1       -0.2035
      8 N          -9.4356  -19.7958   23.5901 N.pl3   1  UNL1       -0.3143
      9 H          -9.3013  -19.6404   24.5529 H       1  UNL1        0.1485
     10 C         -10.8218  -19.7988   23.0170 C.3     1  UNL1        0.1201
     11 C         -11.4094  -18.6462   20.7640 C.ar    1  UNL1        0.2225
     12 N         -11.9110  -17.4517   20.0080 N.ar    1  UNL1       -0.2080
     13 C         -12.3265  -16.2154   20.7489 C.ar    1  UNL1        0.1316
     14 C         -12.2405  -16.1736   22.2458 C.ar    1  UNL1        0.1592
     15 F         -12.6561  -14.9372   22.9866 F       1  UNL1       -0.2025
     16 C         -11.7389  -17.3681   23.0018 C.ar    1  UNL1        0.0333
     17 C         -11.3234  -18.6044   22.2609 C.ar    1  UNL1        0.0529
     18 C         -10.0300  -19.7824   18.8782 C.3     1  UNL1        0.2542
     19 O         -10.9939  -19.8825   20.0231 O.3     1  UNL1       -0.4563
     20 C          -4.7090  -20.7310   20.0144 C.3     1  UNL1        0.0582
     21 C          -3.6440  -19.6821   19.8894 C.ar    1  UNL1        0.0044
     22 C          -2.6875  -19.5289   18.7441 C.ar    1  UNL1        0.0966
     23 N          -1.8009  -18.3544   19.0347 N.ar    1  UNL1       -0.2273
     24 C          -2.2093  -17.7819   20.3596 C.ar    1  UNL1        0.1403
     25 N          -1.6911  -16.6193   21.1533 N.ar    1  UNL1       -0.3364
     26 C          -2.3120  -16.2774   22.4752 C.ar    1  UNL1        0.0883
     27 C          -3.4511  -17.0980   23.0034 C.ar    1  UNL1        0.0677
     28 C          -3.9693  -18.2605   22.2098 C.ar    1  UNL1        0.0189
     29 C          -3.3484  -18.6024   20.8879 C.ar    1  UNL1        0.0331
     30 H          -0.9434  -16.0807   20.8066 H       1  UNL1        0.1674
     31 N          -4.0721  -16.7560   24.3254 N.am    1  UNL1       -0.2827
     32 C          -5.0709  -15.6409   24.4188 C.2     1  UNL1        0.2266
     33 C          -5.6918  -15.2989   25.7408 C.3     1  UNL1        0.0949
     34 O          -5.4489  -14.8677   23.1902 O.2     1  UNL1       -0.2748
     35 H          -3.8240  -17.2634   25.1318 H       1  UNL1        0.1549
@<TRIPOS>BOND
     1    18    19    1
     2    19    11    1
     3    11    12   ar
     4    12    13   ar
     5    13    14   ar
     6    14    15    1
     7    14    16   ar
     8    16    17   ar
     9    17    10    1
    10    10     8    1
    11     8     1    1
    12     1     2   ar
    13     2     3   ar
    14     3     4   ar
    15     4    20    1
    16    20    21    1
    17    21    22   ar
    18    22    23   ar
    19    23    24   ar
    20    24    25   ar
    21    25    26   ar
    22    26    27   ar
    23    27    31    1
    24    31    32   am
    25    32    33    1
    26    32    34    2
    27    27    28   ar
    28    28    29   ar
    29     4     5   ar
    30     5     6    1
    31     5     7   ar
    32    17    11   ar
    33     7     1   ar
    34    29    21   ar
    35    29    24    1
    36     8     9    1
    37    25    30    1
    38    31    35    1
@<TRIPOS>MOLECULE
*****
 35 38 0 0 0
SMALL
GASTEIGER

@<TRIPOS>ATOM
      1 C          -4.5652  -19.7697   21.0056 C.ar    1  UNL1        0.1311
      2 C          -5.1773  -19.3856   19.6911 C.ar    1  UNL1        0.0339
      3 C          -6.6633  -19.4675   19.5034 C.ar    1  UNL1        0.0027
      4 C          -7.5371  -19.9335   20.6300 C.ar    1  UNL1        0.0283
      5 C          -6.9249  -20.3177   21.9444 C.ar    1  UNL1        0.2196
      6 F          -7.7987  -20.7837   23.0711 F       1  UNL1       -0.1835
      7 N          -5.4390  -20.2357   22.1322 N.ar    1  UNL1       -0.2035
      8 N          -3.0793  -19.6878   21.1934 N.pl3   1  UNL1       -0.3143
      9 H          -2.4769  -20.1259   20.5496 H       1  UNL1        0.1485
     10 C          -2.5111  -18.9384   22.3620 C.3     1  UNL1        0.1201
     11 C          -3.1386  -16.4546   21.9300 C.ar    1  UNL1        0.2225
     12 N          -3.7814  -15.1787   22.3871 N.ar    1  UNL1       -0.2080
     13 C          -4.4395  -15.1109   23.7334 C.ar    1  UNL1        0.1316
     14 C          -4.4548  -16.3189   24.6225 C.ar    1  UNL1        0.1592
     15 F          -5.1129  -16.2510   25.9687 F       1  UNL1       -0.2025
     16 C          -3.8120  -17.5947   24.1653 C.ar    1  UNL1        0.0333
     17 C          -3.1539  -17.6626   22.8191 C.ar    1  UNL1        0.0529
     18 C          -0.9852  -16.5811   20.4820 C.3     1  UNL1        0.2542
     19 O          -2.4805  -16.5224   20.5838 O.3     1  UNL1       -0.4563
     20 C          -9.0231  -20.0154   20.4422 C.3     1  UNL1        0.0582
     21 C          -9.8557  -18.7689   20.4959 C.ar    1  UNL1        0.0044
     22 C         -10.6593  -18.1960   19.3663 C.ar    1  UNL1        0.0966
     23 N         -11.3310  -16.9494   19.8609 N.ar    1  UNL1       -0.2273
     24 C         -10.9427  -16.7518   21.2963 C.ar    1  UNL1        0.1403
     25 N         -11.3015  -15.6933   22.2966 N.ar    1  UNL1       -0.3364
     26 C         -10.7485  -15.7593   23.6893 C.ar    1  UNL1        0.0883
     27 C          -9.8366  -16.8838   24.0817 C.ar    1  UNL1        0.0677
     28 C          -9.4778  -17.9423   23.0814 C.ar    1  UNL1        0.0189
     29 C         -10.0308  -17.8764   21.6887 C.ar    1  UNL1        0.0331
     30 H         -11.9000  -14.9552   22.0390 H       1  UNL1        0.1674
     31 N          -9.2836  -16.9497   25.4746 N.am    1  UNL1       -0.2827
     32 C          -8.2910  -15.9245   25.9367 C.2     1  UNL1        0.2266
     33 C          -7.7380  -15.9904   27.3296 C.3     1  UNL1        0.0949
     34 O          -7.8514  -14.8333   25.0061 O.2     1  UNL1       -0.2748
     35 H          -9.5721  -17.6659   26.0854 H       1  UNL1        0.1549
@<TRIPOS>BOND
     1    18    19    1
     2    19    11    1
     3    11    12   ar
     4    12    13   ar
     5    13    14   ar
     6    14    15    1
     7    14    16   ar
     8    16    17   ar
     9    17    10    1
    10    10     8    1
    11     8     1    1
    12     1     2   ar
    13     2     3   ar
    14     3     4   ar
    15     4    20    1
    16    20    21    1
    17    21    22   ar
    18    22    23   ar
    19    23    24   ar
    20    24    25   ar
    21    25    26   ar
    22    26    27   ar
    23    27    31    1
    24    31    32   am
    25    32    33    1
    26    32    34    2
    27    27    28   ar
    28    28    29   ar
    29     4     5   ar
    30     5     6    1
    31     5     7   ar
    32    17    11   ar
    33     7     1   ar
    34    29    21   ar
    35    29    24    1
    36     8     9    1
    37    25    30    1
    38    31    35    1
@<TRIPOS>MOLECULE
*****
 35 38 0 0 0
SMALL
GASTEIGER

@<TRIPOS>ATOM
      1 C         -12.7468   -6.4403   19.0481 C.ar    1  UNL1        0.1311
      2 C         -11.8217   -5.8563   18.0219 C.ar    1  UNL1        0.0339
      3 C         -11.4701   -4.3990   18.0721 C.ar    1  UNL1        0.0027
      4 C         -12.0435   -3.5257   19.1485 C.ar    1  UNL1        0.0283
      5 C         -12.9686   -4.1097   20.1747 C.ar    1  UNL1        0.2196
      6 F         -13.5420   -3.2365   21.2511 F       1  UNL1       -0.1835
      7 N         -13.3202   -5.5670   20.1245 N.ar    1  UNL1       -0.2035
      8 N         -13.0985   -7.8976   18.9980 N.pl3   1  UNL1       -0.3143
      9 H         -12.5789   -8.5477   19.5239 H       1  UNL1        0.1485
     10 C         -14.2418   -8.3645   18.1465 C.3     1  UNL1        0.1201
     11 C         -16.1100   -6.6453   17.5946 C.ar    1  UNL1        0.2225
     12 N         -17.4896   -6.1058   17.8301 N.ar    1  UNL1       -0.2080
     13 C         -18.3807   -6.7459   18.8530 C.ar    1  UNL1        0.1316
     14 C         -17.8922   -7.9254   19.6404 C.ar    1  UNL1        0.1592
     15 F         -18.7834   -8.5654   20.6633 F       1  UNL1       -0.2025
     16 C         -16.5125   -8.4649   19.4049 C.ar    1  UNL1        0.0333
     17 C         -15.6214   -7.8249   18.3820 C.ar    1  UNL1        0.0529
     18 C         -14.9632   -4.5281   16.6189 C.3     1  UNL1        0.2542
     19 O         -15.2189   -6.0053   16.5717 O.3     1  UNL1       -0.4563
     20 C         -11.6918   -2.0683   19.1987 C.3     1  UNL1        0.0582
     21 C         -12.4063   -1.0933   18.3104 C.ar    1  UNL1        0.0044
     22 C         -11.8048   -0.3473   17.1565 C.ar    1  UNL1        0.0966
     23 N         -12.8745    0.5138   16.5531 N.ar    1  UNL1       -0.2273
     24 C         -14.1372    0.3000   17.3341 C.ar    1  UNL1        0.1403
     25 N         -15.5130    0.8815   17.1966 N.ar    1  UNL1       -0.3364
     26 C         -16.5994    0.4697   18.1453 C.ar    1  UNL1        0.0883
     27 C         -16.3101   -0.5236   19.2314 C.ar    1  UNL1        0.0677
     28 C         -14.9342   -1.1051   19.3689 C.ar    1  UNL1        0.0189
     29 C         -13.8478   -0.6932   18.4202 C.ar    1  UNL1        0.0331
     30 H         -15.7029    1.5334   16.4838 H       1  UNL1        0.1674
     31 N         -17.3966   -0.9354   20.1801 N.am    1  UNL1       -0.2827
     32 C         -18.2333   -2.1444   19.8829 C.2     1  UNL1        0.2266
     33 C         -19.3198   -2.5562   20.8315 C.3     1  UNL1        0.0949
     34 O         -17.9834   -2.9416   18.6371 O.2     1  UNL1       -0.2748
     35 H         -17.5606   -0.4122   20.9977 H       1  UNL1        0.1549
@<TRIPOS>BOND
     1    18    19    1
     2    19    11    1
     3    11    12   ar
     4    12    13   ar
     5    13    14   ar
     6    14    15    1
     7    14    16   ar
     8    16    17   ar
     9    17    10    1
    10    10     8    1
    11     8     1    1
    12     1     2   ar
    13     2     3   ar
    14     3     4   ar
    15     4    20    1
    16    20    21    1
    17    21    22   ar
    18    22    23   ar
    19    23    24   ar
    20    24    25   ar
    21    25    26   ar
    22    26    27   ar
    23    27    31    1
    24    31    32   am
    25    32    33    1
    26    32    34    2
    27    27    28   ar
    28    28    29   ar
    29     4     5   ar
    30     5     6    1
    31     5     7   ar
    32    17    11   ar
    33     7     1   ar
    34    29    21   ar
    35    29    24    1
    36     8     9    1
    37    25    30    1
    38    31    35    1
@<TRIPOS>MOLECULE
*****
 35 38 0 0 0
SMALL
GASTEIGER

@<TRIPOS>ATOM
      1 C         -12.9197   -6.2915   19.0721 C.ar    1  UNL1        0.1311
      2 C         -12.0733   -5.6639   18.0045 C.ar    1  UNL1        0.0339
      3 C         -11.7408   -4.2029   18.0734 C.ar    1  UNL1        0.0027
      4 C         -12.2545   -3.3695   19.2098 C.ar    1  UNL1        0.0283
      5 C         -13.1008   -3.9971   20.2775 C.ar    1  UNL1        0.2196
      6 F         -13.6146   -3.1637   21.4139 F       1  UNL1       -0.1835
      7 N         -13.4334   -5.4582   20.2086 N.ar    1  UNL1       -0.2035
      8 N         -13.2523   -7.7526   19.0033 N.pl3   1  UNL1       -0.3143
      9 H         -12.7272   -8.4020   19.5246 H       1  UNL1        0.1485
     10 C         -14.3849   -8.2242   18.1402 C.3     1  UNL1        0.1201
     11 C         -16.6419   -9.3559   18.7525 C.ar    1  UNL1        0.2225
     12 N         -18.0544   -9.2536   19.2467 N.ar    1  UNL1       -0.2080
     13 C         -18.6224   -7.9172   19.6229 C.ar    1  UNL1        0.1316
     14 C         -17.7779   -6.6832   19.5049 C.ar    1  UNL1        0.1592
     15 F         -18.3460   -5.3469   19.8811 F       1  UNL1       -0.2025
     16 C         -16.3654   -6.7856   19.0106 C.ar    1  UNL1        0.0333
     17 C         -15.7974   -8.1219   18.6344 C.ar    1  UNL1        0.0529
     18 C         -16.6169  -11.9417   19.0040 C.3     1  UNL1        0.2542
     19 O         -16.0739  -10.6923   18.3762 O.3     1  UNL1       -0.4563
     20 C         -11.9219   -1.9084   19.2787 C.3     1  UNL1        0.0582
     21 C         -12.6672   -0.9284   18.4219 C.ar    1  UNL1        0.0044
     22 C         -12.0991   -0.1546   17.2692 C.ar    1  UNL1        0.0966
     23 N         -13.1922    0.7019   16.7023 N.ar    1  UNL1       -0.2273
     24 C         -14.4359    0.4575   17.5045 C.ar    1  UNL1        0.1403
     25 N         -15.8219    1.0223   17.4046 N.ar    1  UNL1       -0.3364
     26 C         -16.8833    0.5795   18.3674 C.ar    1  UNL1        0.0883
     27 C         -16.5588   -0.4281   19.4302 C.ar    1  UNL1        0.0677
     28 C         -15.1729   -0.9929   19.5301 C.ar    1  UNL1        0.0189
     29 C         -14.1114   -0.5501   18.5673 C.ar    1  UNL1        0.0331
     30 H         -16.0348    1.6836   16.7070 H       1  UNL1        0.1674
     31 N         -17.6204   -0.8709   20.3931 N.am    1  UNL1       -0.2827
     32 C         -18.6243   -1.9056   19.9789 C.2     1  UNL1        0.2266
     33 C         -19.6859   -2.3484   20.9417 C.3     1  UNL1        0.0949
     34 O         -18.5667   -2.4975   18.6018 O.2     1  UNL1       -0.2748
     35 H         -17.6583   -0.4824   21.2969 H       1  UNL1        0.1549
@<TRIPOS>BOND
     1    18    19    1
     2    19    11    1
     3    11    12   ar
     4    12    13   ar
     5    13    14   ar
     6    14    15    1
     7    14    16   ar
     8    16    17   ar
     9    17    10    1
    10    10     8    1
    11     8     1    1
    12     1     2   ar
    13     2     3   ar
    14     3     4   ar
    15     4    20    1
    16    20    21    1
    17    21    22   ar
    18    22    23   ar
    19    23    24   ar
    20    24    25   ar
    21    25    26   ar
    22    26    27   ar
    23    27    31    1
    24    31    32   am
    25    32    33    1
    26    32    34    2
    27    27    28   ar
    28    28    29   ar
    29     4     5   ar
    30     5     6    1
    31     5     7   ar
    32    17    11   ar
    33     7     1   ar
    34    29    21   ar
    35    29    24    1
    36     8     9    1
    37    25    30    1
    38    31    35    1
@<TRIPOS>MOLECULE
*****
 35 38 0 0 0
SMALL
GASTEIGER

@<TRIPOS>ATOM
      1 C          -5.9533  -20.2911   20.2691 C.ar    1  UNL1        0.1311
      2 C          -6.2606  -20.3813   21.7345 C.ar    1  UNL1        0.0339
      3 C          -7.6799  -20.2860   22.2103 C.ar    1  UNL1        0.0027
      4 C          -8.7919  -20.1006   21.2208 C.ar    1  UNL1        0.0283
      5 C          -8.4845  -20.0104   19.7554 C.ar    1  UNL1        0.2196
      6 F          -9.5965  -19.8249   18.7659 F       1  UNL1       -0.1835
      7 N          -7.0652  -20.1056   19.2796 N.ar    1  UNL1       -0.2035
      8 N          -4.5340  -20.3863   19.7932 N.pl3   1  UNL1       -0.3143
      9 H          -4.3440  -20.5905   18.8490 H       1  UNL1        0.1485
     10 C          -3.4040  -20.1704   20.7558 C.3     1  UNL1        0.1201
     11 C          -2.0578  -17.9717   20.4344 C.ar    1  UNL1        0.2225
     12 N          -1.7108  -16.5835   20.8844 N.ar    1  UNL1       -0.2080
     13 C          -2.3627  -16.0060   22.1057 C.ar    1  UNL1        0.1316
     14 C          -3.3617  -16.8166   22.8770 C.ar    1  UNL1        0.1592
     15 F          -4.0136  -16.2390   24.0982 F       1  UNL1       -0.2025
     16 C          -3.7087  -18.2048   22.4270 C.ar    1  UNL1        0.0333
     17 C          -3.0568  -18.7823   21.2057 C.ar    1  UNL1        0.0529
     18 C          -1.5402  -17.8534   17.8912 C.3     1  UNL1        0.2542
     19 O          -1.4059  -18.5492   19.2132 O.3     1  UNL1       -0.4563
     20 C         -10.2113  -20.0053   21.6967 C.3     1  UNL1        0.0582
     21 C         -10.8635  -18.6629   21.8467 C.ar    1  UNL1        0.0044
     22 C         -12.0298  -18.1556   21.0516 C.ar    1  UNL1        0.0966
     23 N         -12.3510  -16.7713   21.5317 N.ar    1  UNL1       -0.2273
     24 C         -11.3832  -16.4231   22.6236 C.ar    1  UNL1        0.1403
     25 N         -11.2204  -15.1925   23.4656 N.ar    1  UNL1       -0.3364
     26 C         -10.1381  -15.1311   24.5024 C.ar    1  UNL1        0.0883
     27 C          -9.2188  -16.3002   24.6971 C.ar    1  UNL1        0.0677
     28 C          -9.3816  -17.5308   23.8550 C.ar    1  UNL1        0.0189
     29 C         -10.4639  -17.5922   22.8183 C.ar    1  UNL1        0.0331
     30 H         -11.8238  -14.4252   23.3378 H       1  UNL1        0.1674
     31 N          -8.1365  -16.2387   25.7340 N.am    1  UNL1       -0.2827
     32 C          -6.9096  -15.4112   25.4893 C.2     1  UNL1        0.2266
     33 C          -5.8273  -15.3498   26.5261 C.3     1  UNL1        0.0949
     34 O          -6.7649  -14.6452   24.2078 O.2     1  UNL1       -0.2748
     35 H          -8.2315  -16.7415   26.5750 H       1  UNL1        0.1549
@<TRIPOS>BOND
     1    18    19    1
     2    19    11    1
     3    11    12   ar
     4    12    13   ar
     5    13    14   ar
     6    14    15    1
     7    14    16   ar
     8    16    17   ar
     9    17    10    1
    10    10     8    1
    11     8     1    1
    12     1     2   ar
    13     2     3   ar
    14     3     4   ar
    15     4    20    1
    16    20    21    1
    17    21    22   ar
    18    22    23   ar
    19    23    24   ar
    20    24    25   ar
    21    25    26   ar
    22    26    27   ar
    23    27    31    1
    24    31    32   am
    25    32    33    1
    26    32    34    2
    27    27    28   ar
    28    28    29   ar
    29     4     5   ar
    30     5     6    1
    31     5     7   ar
    32    17    11   ar
    33     7     1   ar
    34    29    21   ar
    35    29    24    1
    36     8     9    1
    37    25    30    1
    38    31    35    1
@<TRIPOS>MOLECULE
*****
 35 38 0 0 0
SMALL
GASTEIGER

@<TRIPOS>ATOM
      1 C           6.3035   -2.7622   24.6848 C.ar    1  UNL1        0.1311
      2 C           4.8805   -2.3991   24.3791 C.ar    1  UNL1        0.0339
      3 C           4.2692   -2.7995   23.0692 C.ar    1  UNL1        0.0027
      4 C           5.0807   -3.5631   22.0650 C.ar    1  UNL1        0.0283
      5 C           6.5036   -3.9262   22.3707 C.ar    1  UNL1        0.2196
      6 F           7.3151   -4.6898   21.3665 F       1  UNL1       -0.1835
      7 N           7.1150   -3.5258   23.6806 N.ar    1  UNL1       -0.2035
      8 N           6.9149   -2.3618   25.9947 N.pl3   1  UNL1       -0.3143
      9 H           7.8647   -2.1064   26.0369 H       1  UNL1        0.1485
     10 C           6.0792   -2.3506   27.2403 C.3     1  UNL1        0.1201
     11 C           6.5691   -4.7702   28.0501 C.ar    1  UNL1        0.2225
     12 N           6.8662   -5.7330   29.1613 N.ar    1  UNL1       -0.2080
     13 C           6.9702   -5.2391   30.5738 C.ar    1  UNL1        0.1316
     14 C           6.7773   -3.7824   30.8751 C.ar    1  UNL1        0.1592
     15 F           6.8814   -3.2886   32.2877 F       1  UNL1       -0.2025
     16 C           6.4803   -2.8196   29.7640 C.ar    1  UNL1        0.0333
     17 C           6.3762   -3.3135   28.3514 C.ar    1  UNL1        0.0529
     18 C           7.2543   -6.4629   26.2021 C.3     1  UNL1        0.2542
     19 O           6.4651   -5.2641   26.6375 O.3     1  UNL1       -0.4563
     20 C           4.4693   -3.9635   20.7550 C.3     1  UNL1        0.0582
     21 C           4.5521   -3.0406   19.5754 C.ar    1  UNL1        0.0044
     22 C           5.5332   -3.1404   18.4451 C.ar    1  UNL1        0.0966
     23 N           5.2558   -2.0174   17.4902 N.ar    1  UNL1       -0.2273
     24 C           4.1033   -1.2236   18.0303 C.ar    1  UNL1        0.1403
     25 N           3.3938   -0.0066   17.5151 N.ar    1  UNL1       -0.3364
     26 C           2.2493    0.5780   18.2887 C.ar    1  UNL1        0.0883
     27 C           1.8145   -0.0545   19.5775 C.ar    1  UNL1        0.0677
     28 C           2.5240   -1.2714   20.0927 C.ar    1  UNL1        0.0189
     29 C           3.6685   -1.8560   19.3191 C.ar    1  UNL1        0.0331
     30 H           3.6792    0.4085   16.6693 H       1  UNL1        0.1674
     31 N           0.6699    0.5302   20.3511 N.am    1  UNL1       -0.2827
     32 C           0.9059    1.6788   21.2865 C.2     1  UNL1        0.2266
     33 C          -0.2386    2.2634   22.0601 C.3     1  UNL1        0.0949
     34 O           2.2864    2.2428   21.4484 O.2     1  UNL1       -0.2748
     35 H          -0.2361    0.1600   20.2449 H       1  UNL1        0.1549
@<TRIPOS>BOND
     1    18    19    1
     2    19    11    1
     3    11    12   ar
     4    12    13   ar
     5    13    14   ar
     6    14    15    1
     7    14    16   ar
     8    16    17   ar
     9    17    10    1
    10    10     8    1
    11     8     1    1
    12     1     2   ar
    13     2     3   ar
    14     3     4   ar
    15     4    20    1
    16    20    21    1
    17    21    22   ar
    18    22    23   ar
    19    23    24   ar
    20    24    25   ar
    21    25    26   ar
    22    26    27   ar
    23    27    31    1
    24    31    32   am
    25    32    33    1
    26    32    34    2
    27    27    28   ar
    28    28    29   ar
    29     4     5   ar
    30     5     6    1
    31     5     7   ar
    32    17    11   ar
    33     7     1   ar
    34    29    21   ar
    35    29    24    1
    36     8     9    1
    37    25    30    1
    38    31    35    1
