@<TRIPOS>MOLECULE
*****
 28 32 0 0 0
SMALL
GASTEIGER

@<TRIPOS>ATOM
      1 S         -11.3942  -17.5698   20.9566 S.3     1  UNL1       -0.0656
      2 C         -10.3110  -16.7555   21.5996 C.ar    1  UNL1        0.1936
      3 N          -9.5653  -15.6204   20.9629 N.ar    1  UNL1       -0.1221
      4 N          -8.5766  -15.0968   21.9621 N.ar    1  UNL1       -0.1282
      5 C          -8.7112  -15.9083   23.2164 C.ar    1  UNL1        0.1668
      6 N          -9.7831  -16.9335   22.9924 N.ar    1  UNL1       -0.2923
      7 C          -7.9139  -15.7266   24.4738 C.ar    1  UNL1        0.0390
      8 C          -8.6153  -15.5708   25.7906 C.ar    1  UNL1        0.0237
      9 C          -7.8180  -15.3890   27.0481 C.ar    1  UNL1        0.0990
     10 N          -6.3194  -15.3631   26.9888 N.ar    1  UNL1       -0.2423
     11 C          -5.6181  -15.5189   25.6721 C.ar    1  UNL1        0.0990
     12 C          -6.4153  -15.7006   24.4146 C.ar    1  UNL1        0.0237
     13 C         -10.2459  -17.9570   23.9865 C.3     1  UNL1        0.0889
     14 C         -11.3406  -18.8034   24.5654 C.3     1  UNL1        0.0246
     15 C          -9.9529  -18.8832   25.1294 C.3     1  UNL1        0.0246
     16 C         -11.1090  -18.9695   20.4991 C.3     1  UNL1        0.1517
     17 C          -7.3016  -19.6947   20.2917 C.ar    1  UNL1        0.2497
     18 N          -7.7856  -20.3200   19.0170 N.ar    1  UNL1       -0.1072
     19 N          -9.2708  -20.1245   18.9396 N.ar    1  UNL1       -0.1105
     20 C          -9.7047  -19.3783   20.1664 C.ar    1  UNL1        0.2378
     21 O          -8.4877  -19.1127   21.0020 O.2     1  UNL1       -0.4186
     22 CL         -3.7452  -18.0430   23.7010 Cl      1  UNL1       -0.0613
     23 C          -4.1028  -18.8320   22.4765 C.ar    1  UNL1        0.1385
     24 C          -5.5233  -18.8688   21.9963 C.ar    1  UNL1        0.0355
     25 C          -5.8809  -19.6578   20.7718 C.ar    1  UNL1        0.0590
     26 C          -4.8179  -20.4100   20.0273 C.ar    1  UNL1        0.0254
     27 C          -3.3973  -20.3731   20.5074 C.ar    1  UNL1        0.1000
     28 N          -3.0398  -19.5841   21.7320 N.ar    1  UNL1       -0.2324
@<TRIPOS>BOND
     1    22    23    1
     2    23    24   ar
     3    24    25   ar
     4    25    17    1
     5    17    18   ar
     6    18    19   ar
     7    19    20   ar
     8    20    16    1
     9    16     1    1
    10     1     2    1
    11     2     3   ar
    12     3     4   ar
    13     4     5   ar
    14     5     7    1
    15     7     8   ar
    16     8     9   ar
    17     9    10   ar
    18    10    11   ar
    19    11    12   ar
    20     5     6   ar
    21     6    13    1
    22    13    14    1
    23    14    15    1
    24    20    21   ar
    25    25    26   ar
    26    26    27   ar
    27    27    28   ar
    28    28    23   ar
    29    21    17   ar
    30     6     2   ar
    31    15    13    1
    32    12     7   ar
@<TRIPOS>MOLECULE
*****
 28 32 0 0 0
SMALL
GASTEIGER

@<TRIPOS>ATOM
      1 S         -11.6929  -18.5782   22.3253 S.3     1  UNL1       -0.0656
      2 C         -10.7745  -18.3053   23.4794 C.ar    1  UNL1        0.1936
      3 N         -10.7501  -19.0491   24.7818 N.ar    1  UNL1       -0.1221
      4 N          -9.6798  -18.4441   25.6412 N.ar    1  UNL1       -0.1282
      5 C          -9.0427  -17.3264   24.8699 C.ar    1  UNL1        0.1668
      6 N          -9.7192  -17.2406   23.5339 N.ar    1  UNL1       -0.2923
      7 C          -7.9253  -16.4487   25.3504 C.ar    1  UNL1        0.0390
      8 C          -6.7724  -16.1380   24.4425 C.ar    1  UNL1        0.0237
      9 C          -5.6549  -15.2603   24.9229 C.ar    1  UNL1        0.0990
     10 N          -5.6903  -14.6933   26.3112 N.ar    1  UNL1       -0.2423
     11 C          -6.8432  -15.0040   27.2190 C.ar    1  UNL1        0.0990
     12 C          -7.9607  -15.8817   26.7386 C.ar    1  UNL1        0.0237
     13 C          -9.3972  -16.2620   22.4437 C.3     1  UNL1        0.0889
     14 C          -9.7714  -15.5714   21.1658 C.3     1  UNL1        0.0246
     15 C          -8.4653  -15.2575   21.8333 C.3     1  UNL1        0.0246
     16 C         -11.2496  -19.4792   21.2109 C.3     1  UNL1        0.1517
     17 C          -7.4204  -19.3819   20.5841 C.ar    1  UNL1        0.2497
     18 N          -7.9468  -19.1447   19.1997 N.ar    1  UNL1       -0.1072
     19 N          -9.4453  -19.1523   19.2660 N.ar    1  UNL1       -0.1105
     20 C          -9.8451  -19.3942   20.6914 C.ar    1  UNL1        0.2378
     21 O          -8.5936  -19.5361   21.5060 O.2     1  UNL1       -0.4186
     22 CL         -3.5557  -18.0267   23.7821 Cl      1  UNL1       -0.0613
     23 C          -4.0423  -18.7749   22.5765 C.ar    1  UNL1        0.1385
     24 C          -5.4880  -18.7043   22.1831 C.ar    1  UNL1        0.0355
     25 C          -5.9746  -19.4526   20.9775 C.ar    1  UNL1        0.0590
     26 C          -5.0155  -20.2714   20.1654 C.ar    1  UNL1        0.0254
     27 C          -3.5698  -20.3421   20.5589 C.ar    1  UNL1        0.1000
     28 N          -3.0831  -19.5938   21.7645 N.ar    1  UNL1       -0.2324
@<TRIPOS>BOND
     1    22    23    1
     2    23    24   ar
     3    24    25   ar
     4    25    17    1
     5    17    18   ar
     6    18    19   ar
     7    19    20   ar
     8    20    16    1
     9    16     1    1
    10     1     2    1
    11     2     3   ar
    12     3     4   ar
    13     4     5   ar
    14     5     7    1
    15     7     8   ar
    16     8     9   ar
    17     9    10   ar
    18    10    11   ar
    19    11    12   ar
    20     5     6   ar
    21     6    13    1
    22    13    14    1
    23    14    15    1
    24    20    21   ar
    25    25    26   ar
    26    26    27   ar
    27    27    28   ar
    28    28    23   ar
    29    21    17   ar
    30     6     2   ar
    31    15    13    1
    32    12     7   ar
@<TRIPOS>MOLECULE
*****
 28 32 0 0 0
SMALL
GASTEIGER

@<TRIPOS>ATOM
      1 S          -6.9143  -15.0736   25.3038 S.3     1  UNL1       -0.0656
      2 C          -7.5152  -15.4505   23.9821 C.ar    1  UNL1        0.1936
      3 N          -7.1991  -14.8204   22.6581 N.ar    1  UNL1       -0.1221
      4 N          -8.0263  -15.5041   21.6101 N.ar    1  UNL1       -0.1282
      5 C          -8.8537  -16.5567   22.2864 C.ar    1  UNL1        0.1668
      6 N          -8.5378  -16.5236   23.7524 N.ar    1  UNL1       -0.2923
      7 C          -9.8261  -17.4803   21.6146 C.ar    1  UNL1        0.0390
      8 C          -9.3241  -18.6561   20.8300 C.ar    1  UNL1        0.0237
      9 C         -10.2964  -19.5797   20.1582 C.ar    1  UNL1        0.0990
     10 N         -11.7708  -19.3276   20.2709 N.ar    1  UNL1       -0.2423
     11 C         -12.2728  -18.1518   21.0554 C.ar    1  UNL1        0.0990
     12 C         -11.3004  -17.2281   21.7273 C.ar    1  UNL1        0.0237
     13 C          -9.1389  -17.4083   24.8040 C.3     1  UNL1        0.0889
     14 C          -9.3341  -17.7604   26.2490 C.3     1  UNL1        0.0246
     15 C          -9.9848  -18.5884   25.1808 C.3     1  UNL1        0.0246
     16 C          -5.4390  -15.2261   25.5277 C.3     1  UNL1        0.1517
     17 C          -3.5776  -17.5720   23.0583 C.ar    1  UNL1        0.2497
     18 N          -3.4379  -18.3338   24.3429 N.ar    1  UNL1       -0.1072
     19 N          -4.1182  -17.5478   25.4243 N.ar    1  UNL1       -0.1105
     20 C          -4.6783  -16.3001   24.8080 C.ar    1  UNL1        0.2378
     21 O          -4.3442  -16.3151   23.3458 O.2     1  UNL1       -0.4186
     22 CL          0.3026  -17.7229   19.6056 Cl      1  UNL1       -0.0613
     23 C          -1.1042  -18.0685   19.9947 C.ar    1  UNL1        0.1385
     24 C          -1.6375  -17.6475   21.3319 C.ar    1  UNL1        0.0355
     25 C          -3.0443  -17.9931   21.7210 C.ar    1  UNL1        0.0590
     26 C          -3.9178  -18.7599   20.7729 C.ar    1  UNL1        0.0254
     27 C          -3.3845  -19.1809   19.4357 C.ar    1  UNL1        0.1000
     28 N          -1.9777  -18.8353   19.0466 N.ar    1  UNL1       -0.2324
@<TRIPOS>BOND
     1    22    23    1
     2    23    24   ar
     3    24    25   ar
     4    25    17    1
     5    17    18   ar
     6    18    19   ar
     7    19    20   ar
     8    20    16    1
     9    16     1    1
    10     1     2    1
    11     2     3   ar
    12     3     4   ar
    13     4     5   ar
    14     5     7    1
    15     7     8   ar
    16     8     9   ar
    17     9    10   ar
    18    10    11   ar
    19    11    12   ar
    20     5     6   ar
    21     6    13    1
    22    13    14    1
    23    14    15    1
    24    20    21   ar
    25    25    26   ar
    26    26    27   ar
    27    27    28   ar
    28    28    23   ar
    29    21    17   ar
    30     6     2   ar
    31    15    13    1
    32    12     7   ar
@<TRIPOS>MOLECULE
*****
 28 32 0 0 0
SMALL
GASTEIGER

@<TRIPOS>ATOM
      1 S          -9.9232   -4.9717   19.0081 S.3     1  UNL1       -0.0656
      2 C         -10.4817   -3.7733   18.2997 C.ar    1  UNL1        0.1936
      3 N          -9.8381   -3.0453   17.1570 N.ar    1  UNL1       -0.1221
      4 N         -10.7406   -1.9145   16.7606 N.ar    1  UNL1       -0.1282
      5 C         -11.9419   -1.9437   17.6583 C.ar    1  UNL1        0.1668
      6 N         -11.7820   -3.0925   18.6095 N.ar    1  UNL1       -0.2923
      7 C         -13.0999   -0.9914   17.6128 C.ar    1  UNL1        0.0390
      8 C         -12.9709    0.3755   18.2171 C.ar    1  UNL1        0.0237
      9 C         -14.1288    1.3279   18.1716 C.ar    1  UNL1        0.0990
     10 N         -15.4157    0.9135   17.5218 N.ar    1  UNL1       -0.2423
     11 C         -15.5447   -0.4534   16.9176 C.ar    1  UNL1        0.0990
     12 C         -14.3868   -1.4058   16.9631 C.ar    1  UNL1        0.0237
     13 C         -12.7519   -3.4907   19.6823 C.3     1  UNL1        0.0889
     14 C         -13.5027   -4.5564   20.4242 C.3     1  UNL1        0.0246
     15 C         -13.6810   -3.1148   20.7982 C.3     1  UNL1        0.0246
     16 C          -9.9298   -6.3118   18.3343 C.3     1  UNL1        0.1517
     17 C         -13.4904   -7.8219   18.0063 C.ar    1  UNL1        0.2497
     18 N         -12.9702   -8.0002   16.6107 N.ar    1  UNL1       -0.1072
     19 N         -11.5731   -7.4562   16.5637 N.ar    1  UNL1       -0.1105
     20 C         -11.2298   -6.9417   17.9303 C.ar    1  UNL1        0.2378
     21 O         -12.4147   -7.1677   18.8218 O.2     1  UNL1       -0.4186
     22 CL        -17.1311  -11.4678   18.6790 Cl      1  UNL1       -0.0613
     23 C         -16.6682  -10.0497   18.8361 C.ar    1  UNL1        0.1385
     24 C         -15.3108   -9.6448   18.3426 C.ar    1  UNL1        0.0355
     25 C         -14.8478   -8.2267   18.4998 C.ar    1  UNL1        0.0590
     26 C         -15.7423   -7.2135   19.1503 C.ar    1  UNL1        0.0254
     27 C         -17.0997   -7.6184   19.6438 C.ar    1  UNL1        0.1000
     28 N         -17.5626   -9.0364   19.4866 N.ar    1  UNL1       -0.2324
@<TRIPOS>BOND
     1    22    23    1
     2    23    24   ar
     3    24    25   ar
     4    25    17    1
     5    17    18   ar
     6    18    19   ar
     7    19    20   ar
     8    20    16    1
     9    16     1    1
    10     1     2    1
    11     2     3   ar
    12     3     4   ar
    13     4     5   ar
    14     5     7    1
    15     7     8   ar
    16     8     9   ar
    17     9    10   ar
    18    10    11   ar
    19    11    12   ar
    20     5     6   ar
    21     6    13    1
    22    13    14    1
    23    14    15    1
    24    20    21   ar
    25    25    26   ar
    26    26    27   ar
    27    27    28   ar
    28    28    23   ar
    29    21    17   ar
    30     6     2   ar
    31    15    13    1
    32    12     7   ar
@<TRIPOS>MOLECULE
*****
 28 32 0 0 0
SMALL
GASTEIGER

@<TRIPOS>ATOM
      1 S          -9.7541   -5.6287   19.0034 S.3     1  UNL1       -0.0656
      2 C          -9.9657   -4.4437   18.1086 C.ar    1  UNL1        0.1936
      3 N          -9.0788   -4.0267   16.9730 N.ar    1  UNL1       -0.1221
      4 N          -9.6663   -2.7928   16.3548 N.ar    1  UNL1       -0.1282
      5 C         -10.9164   -2.4471   17.1082 C.ar    1  UNL1        0.1668
      6 N         -11.1015   -3.4673   18.1921 N.ar    1  UNL1       -0.2923
      7 C         -11.8223   -1.2851   16.8271 C.ar    1  UNL1        0.0390
      8 C         -13.1921   -1.5213   16.2633 C.ar    1  UNL1        0.0237
      9 C         -14.0981   -0.3594   15.9822 C.ar    1  UNL1        0.0990
     10 N         -13.6343    1.0388   16.2648 N.ar    1  UNL1       -0.2423
     11 C         -12.2645    1.2751   16.8287 C.ar    1  UNL1        0.0990
     12 C         -11.3585    0.1131   17.1098 C.ar    1  UNL1        0.0237
     13 C         -12.2250   -3.5048   19.1853 C.3     1  UNL1        0.0889
     14 C         -13.1713   -2.7899   20.1036 C.3     1  UNL1        0.0246
     15 C         -13.2246   -4.2844   19.9871 C.3     1  UNL1        0.0246
     16 C         -10.0563   -7.0100   18.5027 C.3     1  UNL1        0.1517
     17 C         -13.8280   -7.8256   18.0849 C.ar    1  UNL1        0.2497
     18 N         -13.3418   -7.9716   16.6734 N.ar    1  UNL1       -0.1072
     19 N         -11.8698   -7.6839   16.6581 N.ar    1  UNL1       -0.1105
     20 C         -11.4461   -7.3600   18.0602 C.ar    1  UNL1        0.2378
     21 O         -12.6564   -7.4476   18.9419 O.2     1  UNL1       -0.4186
     22 CL        -18.3570   -5.8431   19.6844 Cl      1  UNL1       -0.0613
     23 C         -17.5027   -7.0316   19.3563 C.ar    1  UNL1        0.1385
     24 C         -16.0925   -6.8343   18.8846 C.ar    1  UNL1        0.0355
     25 C         -15.2382   -8.0229   18.5566 C.ar    1  UNL1        0.0590
     26 C         -15.7941   -9.4086   18.7002 C.ar    1  UNL1        0.0254
     27 C         -17.2042   -9.6058   19.1719 C.ar    1  UNL1        0.1000
     28 N         -18.0585   -8.4173   19.4999 N.ar    1  UNL1       -0.2324
@<TRIPOS>BOND
     1    22    23    1
     2    23    24   ar
     3    24    25   ar
     4    25    17    1
     5    17    18   ar
     6    18    19   ar
     7    19    20   ar
     8    20    16    1
     9    16     1    1
    10     1     2    1
    11     2     3   ar
    12     3     4   ar
    13     4     5   ar
    14     5     7    1
    15     7     8   ar
    16     8     9   ar
    17     9    10   ar
    18    10    11   ar
    19    11    12   ar
    20     5     6   ar
    21     6    13    1
    22    13    14    1
    23    14    15    1
    24    20    21   ar
    25    25    26   ar
    26    26    27   ar
    27    27    28   ar
    28    28    23   ar
    29    21    17   ar
    30     6     2   ar
    31    15    13    1
    32    12     7   ar
@<TRIPOS>MOLECULE
*****
 28 32 0 0 0
SMALL
GASTEIGER

@<TRIPOS>ATOM
      1 S         -10.6145   -5.5309   18.9693 S.3     1  UNL1       -0.0656
      2 C         -11.8826   -6.3002   18.7455 C.ar    1  UNL1        0.1936
      3 N         -12.0149   -7.5744   17.9652 N.ar    1  UNL1       -0.1221
      4 N         -13.4551   -7.9921   18.0002 N.ar    1  UNL1       -0.1282
      5 C         -14.2130   -6.9760   18.8022 C.ar    1  UNL1        0.1668
      6 N         -13.2412   -5.9304   19.2628 N.ar    1  UNL1       -0.2923
      7 C         -15.6844   -7.0012   19.0925 C.ar    1  UNL1        0.0390
      8 C         -16.2909   -8.1822   19.7908 C.ar    1  UNL1        0.0237
      9 C         -17.7623   -8.2075   20.0811 C.ar    1  UNL1        0.0990
     10 N         -18.6272   -7.0518   19.6733 N.ar    1  UNL1       -0.2423
     11 C         -18.0207   -5.8708   18.9751 C.ar    1  UNL1        0.0990
     12 C         -16.5493   -5.8455   18.6847 C.ar    1  UNL1        0.0237
     13 C         -13.5701   -4.7263   20.0947 C.3     1  UNL1        0.0889
     14 C         -13.3445   -3.2836   20.4380 C.3     1  UNL1        0.0246
     15 C         -14.3652   -4.0833   21.1921 C.3     1  UNL1        0.0246
     16 C          -9.8839   -4.9338   17.8032 C.3     1  UNL1        0.1517
     17 C         -11.3107   -1.3917   17.1081 C.ar    1  UNL1        0.2497
     18 N         -10.3070   -1.5222   16.0011 N.ar    1  UNL1       -0.1072
     19 N          -9.6503   -2.8650   16.1267 N.ar    1  UNL1       -0.1105
     20 C         -10.2482   -3.5643   17.3114 C.ar    1  UNL1        0.2378
     21 O         -11.2743   -2.6538   17.9180 O.2     1  UNL1       -0.4186
     22 CL        -15.4563    0.7154   19.4264 Cl      1  UNL1       -0.0613
     23 C         -14.2682    0.8465   18.5201 C.ar    1  UNL1        0.1385
     24 C         -13.3835   -0.3381   18.2672 C.ar    1  UNL1        0.0355
     25 C         -12.1954   -0.2070   17.3610 C.ar    1  UNL1        0.0590
     26 C         -11.8920    1.1087   16.7076 C.ar    1  UNL1        0.0254
     27 C         -12.7768    2.2933   16.9605 C.ar    1  UNL1        0.1000
     28 N         -13.9648    2.1622   17.8668 N.ar    1  UNL1       -0.2324
@<TRIPOS>BOND
     1    22    23    1
     2    23    24   ar
     3    24    25   ar
     4    25    17    1
     5    17    18   ar
     6    18    19   ar
     7    19    20   ar
     8    20    16    1
     9    16     1    1
    10     1     2    1
    11     2     3   ar
    12     3     4   ar
    13     4     5   ar
    14     5     7    1
    15     7     8   ar
    16     8     9   ar
    17     9    10   ar
    18    10    11   ar
    19    11    12   ar
    20     5     6   ar
    21     6    13    1
    22    13    14    1
    23    14    15    1
    24    20    21   ar
    25    25    26   ar
    26    26    27   ar
    27    27    28   ar
    28    28    23   ar
    29    21    17   ar
    30     6     2   ar
    31    15    13    1
    32    12     7   ar
@<TRIPOS>MOLECULE
*****
 28 32 0 0 0
SMALL
GASTEIGER

@<TRIPOS>ATOM
      1 S           5.7322   -3.5971   19.7511 S.3     1  UNL1       -0.0656
      2 C           5.1557   -2.4776   18.9360 C.ar    1  UNL1        0.1936
      3 N           5.4018   -2.2319   17.4769 N.ar    1  UNL1       -0.1221
      4 N           4.6300   -1.0097   17.0761 N.ar    1  UNL1       -0.1282
      5 C           3.9069   -0.5001   18.2874 C.ar    1  UNL1        0.1668
      6 N           4.2317   -1.4073   19.4369 N.ar    1  UNL1       -0.2923
      7 C           3.0154    0.7051   18.3399 C.ar    1  UNL1        0.0390
      8 C           3.6141    2.0802   18.3639 C.ar    1  UNL1        0.0237
      9 C           2.7227    3.2855   18.4164 C.ar    1  UNL1        0.0990
     10 N           1.2327    3.1156   18.4450 N.ar    1  UNL1       -0.2423
     11 C           0.6340    1.7404   18.4210 C.ar    1  UNL1        0.0990
     12 C           1.5254    0.5352   18.3685 C.ar    1  UNL1        0.0237
     13 C           3.7222   -1.2687   20.8409 C.3     1  UNL1        0.0889
     14 C           3.7987   -1.6373   22.2929 C.3     1  UNL1        0.0246
     15 C           2.7634   -0.6600   21.8208 C.3     1  UNL1        0.0246
     16 C           6.9098   -3.3445   20.6453 C.3     1  UNL1        0.1517
     17 C           7.8765   -5.8399   23.4566 C.ar    1  UNL1        0.2497
     18 N           8.6096   -6.4242   22.2857 N.ar    1  UNL1       -0.1072
     19 N           8.3368   -5.5606   21.0901 N.ar    1  UNL1       -0.1105
     20 C           7.4349   -4.4424   21.5220 C.ar    1  UNL1        0.2378
     21 O           7.1505   -4.6151   22.9846 O.2     1  UNL1       -0.4186
     22 CL          6.5052   -5.4057   28.4497 Cl      1  UNL1       -0.0613
     23 C           7.1847   -6.1676   27.3507 C.ar    1  UNL1        0.1385
     24 C           7.1908   -5.6228   25.9532 C.ar    1  UNL1        0.0355
     25 C           7.8703   -6.3847   24.8542 C.ar    1  UNL1        0.0590
     26 C           8.5437   -7.6914   25.1528 C.ar    1  UNL1        0.0254
     27 C           8.5376   -8.2361   26.5503 C.ar    1  UNL1        0.1000
     28 N           7.8581   -7.4742   27.6493 N.ar    1  UNL1       -0.2324
@<TRIPOS>BOND
     1    22    23    1
     2    23    24   ar
     3    24    25   ar
     4    25    17    1
     5    17    18   ar
     6    18    19   ar
     7    19    20   ar
     8    20    16    1
     9    16     1    1
    10     1     2    1
    11     2     3   ar
    12     3     4   ar
    13     4     5   ar
    14     5     7    1
    15     7     8   ar
    16     8     9   ar
    17     9    10   ar
    18    10    11   ar
    19    11    12   ar
    20     5     6   ar
    21     6    13    1
    22    13    14    1
    23    14    15    1
    24    20    21   ar
    25    25    26   ar
    26    26    27   ar
    27    27    28   ar
    28    28    23   ar
    29    21    17   ar
    30     6     2   ar
    31    15    13    1
    32    12     7   ar
@<TRIPOS>MOLECULE
*****
 28 32 0 0 0
SMALL
GASTEIGER

@<TRIPOS>ATOM
      1 S           5.7220   -3.7133   19.8143 S.3     1  UNL1       -0.0656
      2 C           5.1721   -2.5856   18.9922 C.ar    1  UNL1        0.1936
      3 N           5.4410   -2.3427   17.5367 N.ar    1  UNL1       -0.1221
      4 N           4.6918   -1.1097   17.1262 N.ar    1  UNL1       -0.1282
      5 C           3.9598   -0.5905   18.3281 C.ar    1  UNL1        0.1668
      6 N           4.2565   -1.5026   19.4813 N.ar    1  UNL1       -0.2923
      7 C           3.0846    0.6270   18.3694 C.ar    1  UNL1        0.0390
      8 C           1.5922    0.4775   18.3863 C.ar    1  UNL1        0.0237
      9 C           0.7169    1.6950   18.4276 C.ar    1  UNL1        0.0990
     10 N           1.3341    3.0619   18.4521 N.ar    1  UNL1       -0.2423
     11 C           2.8266    3.2113   18.4352 C.ar    1  UNL1        0.0990
     12 C           3.7018    1.9939   18.3939 C.ar    1  UNL1        0.0237
     13 C           3.7303   -1.3574   20.8785 C.3     1  UNL1        0.0889
     14 C           3.7950   -1.7126   22.3344 C.3     1  UNL1        0.0246
     15 C           2.7543   -0.7509   21.8425 C.3     1  UNL1        0.0246
     16 C           7.0835   -3.5961   20.4326 C.3     1  UNL1        0.1517
     17 C           7.8341   -5.7595   23.5666 C.ar    1  UNL1        0.2497
     18 N           8.5973   -6.5035   22.5113 N.ar    1  UNL1       -0.1072
     19 N           8.4091   -5.7837   21.2088 N.ar    1  UNL1       -0.1105
     20 C           7.5295   -4.5947   21.4592 C.ar    1  UNL1        0.2378
     21 O           7.1741   -4.5798   22.9164 O.2     1  UNL1       -0.4186
     22 CL          8.4998   -9.2348   27.3718 Cl      1  UNL1       -0.0613
     23 C           8.0790   -7.8677   26.9201 C.ar    1  UNL1        0.1385
     24 C           8.1669   -7.4971   25.4693 C.ar    1  UNL1        0.0355
     25 C           7.7462   -6.1300   25.0175 C.ar    1  UNL1        0.0590
     26 C           7.2375   -5.1335   26.0166 C.ar    1  UNL1        0.0254
     27 C           7.1497   -5.5041   27.4674 C.ar    1  UNL1        0.1000
     28 N           7.5704   -6.8712   27.9192 N.ar    1  UNL1       -0.2324
@<TRIPOS>BOND
     1    22    23    1
     2    23    24   ar
     3    24    25   ar
     4    25    17    1
     5    17    18   ar
     6    18    19   ar
     7    19    20   ar
     8    20    16    1
     9    16     1    1
    10     1     2    1
    11     2     3   ar
    12     3     4   ar
    13     4     5   ar
    14     5     7    1
    15     7     8   ar
    16     8     9   ar
    17     9    10   ar
    18    10    11   ar
    19    11    12   ar
    20     5     6   ar
    21     6    13    1
    22    13    14    1
    23    14    15    1
    24    20    21   ar
    25    25    26   ar
    26    26    27   ar
    27    27    28   ar
    28    28    23   ar
    29    21    17   ar
    30     6     2   ar
    31    15    13    1
    32    12     7   ar
@<TRIPOS>MOLECULE
*****
 28 32 0 0 0
SMALL
GASTEIGER

@<TRIPOS>ATOM
      1 S          -6.6714  -15.1783   26.9065 S.3     1  UNL1       -0.0656
      2 C          -6.0932  -15.4121   25.5423 C.ar    1  UNL1        0.1936
      3 N          -6.5196  -14.7314   24.2755 N.ar    1  UNL1       -0.1221
      4 N          -5.6771  -15.2663   23.1556 N.ar    1  UNL1       -0.1282
      5 C          -4.7301  -16.2777   23.7303 C.ar    1  UNL1        0.1668
      6 N          -4.9872  -16.3678   25.2053 N.ar    1  UNL1       -0.2923
      7 C          -3.7057  -17.0613   22.9644 C.ar    1  UNL1        0.0390
      8 C          -2.5705  -16.3516   22.2879 C.ar    1  UNL1        0.0237
      9 C          -1.5461  -17.1351   21.5220 C.ar    1  UNL1        0.0990
     10 N          -1.6569  -18.6283   21.4325 N.ar    1  UNL1       -0.2423
     11 C          -2.7922  -19.3380   22.1089 C.ar    1  UNL1        0.0990
     12 C          -3.8166  -18.5545   22.8749 C.ar    1  UNL1        0.0237
     13 C          -4.2653  -17.2574   26.1735 C.3     1  UNL1        0.0889
     14 C          -4.2816  -18.1453   27.3824 C.3     1  UNL1        0.0246
     15 C          -2.9986  -17.9104   26.6417 C.3     1  UNL1        0.0246
     16 C          -8.0519  -15.6677   27.2299 C.3     1  UNL1        0.1517
     17 C          -9.9587  -17.3144   24.2773 C.ar    1  UNL1        0.2497
     18 N          -9.8668  -18.4619   25.2389 N.ar    1  UNL1       -0.1072
     19 N          -9.1414  -17.9847   26.4620 N.ar    1  UNL1       -0.1105
     20 C          -8.7848  -16.5423   26.2563 C.ar    1  UNL1        0.2378
     21 O          -9.2900  -16.1280   24.9061 O.2     1  UNL1       -0.4186
     22 CL        -10.3804  -19.4092   19.5409 Cl      1  UNL1       -0.0613
     23 C         -10.8165  -18.3948   20.5561 C.ar    1  UNL1        0.1385
     24 C         -10.1696  -18.3618   21.9090 C.ar    1  UNL1        0.0355
     25 C         -10.6057  -17.3474   22.9243 C.ar    1  UNL1        0.0590
     26 C         -11.6886  -16.3660   22.5867 C.ar    1  UNL1        0.0254
     27 C         -12.3355  -16.3991   21.2338 C.ar    1  UNL1        0.1000
     28 N         -11.8995  -17.4135   20.2185 N.ar    1  UNL1       -0.2324
@<TRIPOS>BOND
     1    22    23    1
     2    23    24   ar
     3    24    25   ar
     4    25    17    1
     5    17    18   ar
     6    18    19   ar
     7    19    20   ar
     8    20    16    1
     9    16     1    1
    10     1     2    1
    11     2     3   ar
    12     3     4   ar
    13     4     5   ar
    14     5     7    1
    15     7     8   ar
    16     8     9   ar
    17     9    10   ar
    18    10    11   ar
    19    11    12   ar
    20     5     6   ar
    21     6    13    1
    22    13    14    1
    23    14    15    1
    24    20    21   ar
    25    25    26   ar
    26    26    27   ar
    27    27    28   ar
    28    28    23   ar
    29    21    17   ar
    30     6     2   ar
    31    15    13    1
    32    12     7   ar
