@<TRIPOS>MOLECULE
*****
 52 55 0 0 0
SMALL
GASTEIGER

@<TRIPOS>ATOM
      1 C           2.4207   -0.2184   22.0158 C.3     1  UNL1        0.0760
      2 C           0.4212    1.3365   21.4376 C.2     1  UNL1        0.2429
      3 O          -0.1711    0.2566   20.5816 O.2     1  UNL1       -0.2732
      4 N           1.7171    1.0990   22.1548 N.am    1  UNL1       -0.3042
      5 H           2.1059    1.8078   22.7166 H       1  UNL1        0.1494
      6 CA         -0.2823    2.6540   21.5766 C.3     1  UNL1        0.1793
      7 N          -3.8269    3.6400   20.0886 N.am    1  UNL1       -0.2567
      8 C          -4.3992    4.4660   18.9749 C.3     1  UNL1        0.1168
      9 C          -2.3408    3.5600   20.2758 C.2     1  UNL1        0.3047
     10 O          -1.4269    4.3060   19.3492 O.2     1  UNL1       -0.2526
     11 N          -1.7685    2.7340   21.3894 N.am    1  UNL1       -0.2805
     12 H          -2.3683    2.2444   21.9975 H       1  UNL1        0.1514
     13 C          -4.7407    2.8941   21.0151 C.3     1  UNL1        0.1413
     14 C          -4.9241    4.1381   24.6872 C.ar    1  UNL1        0.0875
     15 N          -4.1894    3.4607   23.5686 N.ar    1  UNL1       -0.2453
     16 C          -5.0772    3.4680   22.3596 C.ar    1  UNL1        0.0858
     17 C          -6.3606    4.1499   22.7310 C.ar    1  UNL1        0.0530
     18 S          -6.2660    4.5641   24.1695 S.2     1  UNL1       -0.0705
     19 C          -3.1362    3.6878   26.5178 C.3     1  UNL1        0.0069
     20 C          -4.4076    4.3521   26.0792 C.3     1  UNL1        0.0465
     21 C          -5.1624    5.2303   27.0325 C.3     1  UNL1        0.0069
     22 C           0.5002    3.8914   21.9026 C.3     1  UNL1        0.1661
     23 O           1.9680    3.7949   22.1966 O.3     1  UNL1       -0.3798
     24 H           2.1010    3.2974   23.0186 H       1  UNL1        0.2105
     25 C           2.9805   -0.9013   23.2283 C.3     1  UNL1        0.0216
     26 C           4.4287   -1.2899   23.2686 C.3     1  UNL1        0.0217
     27 C           4.8146   -2.7266   23.4617 C.3     1  UNL1        0.0792
     28 N           5.3487   -3.1883   24.7851 N.am    1  UNL1       -0.2720
     29 C           6.7868   -2.9489   25.1384 C.2     1  UNL1        0.4019
     30 O           7.6907   -2.2478   24.1682 O.2     1  UNL1       -0.2264
     31 H           4.7554   -3.6485   25.4219 H       1  UNL1        0.1527
     32 O           7.3208   -3.4106   26.4619 O.3     1  UNL1       -0.4291
     33 C           6.6918   -2.9266   27.7346 C.3     1  UNL1        0.2447
     34 C           6.7570   -3.7718   28.9721 C.ar    1  UNL1        0.0714
     35 C           6.6292   -3.2800   30.3834 C.ar    1  UNL1        0.1053
     36 N           6.7547   -4.4613   31.2992 N.ar    1  UNL1       -0.2350
     37 C           6.9600   -5.6833   30.4539 C.ar    1  UNL1        0.1343
     38 S           6.9615   -5.2571   29.0157 S.2     1  UNL1       -0.0652
     39 C           4.6665   -3.7014   22.3313 C.3     1  UNL1        0.0460
     40 C           5.2443   -3.3816   20.9845 C.ar    1  UNL1       -0.0205
     41 C           4.5288   -3.8146   19.7393 C.ar    1  UNL1       -0.0042
     42 C           5.1066   -3.4947   18.3926 C.ar    1  UNL1       -0.0003
     43 C           6.4001   -2.7419   18.2910 C.ar    1  UNL1       -0.0000
     44 C           7.1156   -2.3089   19.5362 C.ar    1  UNL1       -0.0003
     45 C           6.5378   -2.6287   20.8829 C.ar    1  UNL1       -0.0042
     46 C           2.5644   -0.8531   20.6642 C.3     1  UNL1        0.0459
     47 C           3.5281   -0.2824   19.6664 C.ar    1  UNL1       -0.0205
     48 C           4.7125    0.5094   20.1357 C.ar    1  UNL1       -0.0042
     49 C           5.6762    1.0801   19.1379 C.ar    1  UNL1       -0.0003
     50 C           5.4555    0.8589   17.6708 C.ar    1  UNL1       -0.0000
     51 C           4.2711    0.0671   17.2015 C.ar    1  UNL1       -0.0003
     52 C           3.3074   -0.5036   18.1993 C.ar    1  UNL1       -0.0042
@<TRIPOS>BOND
     1    19    20    1
     2    20    21    1
     3    20    14    1
     4    14    15   ar
     5    15    16   ar
     6    16    13    1
     7    13     7    1
     8     7     8    1
     9     7     9   am
    10     9    10    2
    11     9    11   am
    12    11     6    1
    13     6    22    1
    14    22    23    1
    15     6     2    1
    16     2     3    2
    17     2     4   am
    18     4     1    1
    19     1    25    1
    20    25    26    1
    21    27    26    1
    22    27    39    1
    23    39    40    1
    24    40    41   ar
    25    41    42   ar
    26    42    43   ar
    27    43    44   ar
    28    44    45   ar
    29    27    28    1
    30    28    29   am
    31    29    30    2
    32    29    32    1
    33    32    33    1
    34    33    34    1
    35    34    35   ar
    36    35    36   ar
    37    36    37   ar
    38    37    38   ar
    39     1    46    1
    40    46    47    1
    41    47    48   ar
    42    48    49   ar
    43    49    50   ar
    44    50    51   ar
    45    51    52   ar
    46    16    17   ar
    47    17    18   ar
    48    18    14   ar
    49    45    40   ar
    50    38    34   ar
    51    52    47   ar
    52    11    12    1
    53    23    24    1
    54     4     5    1
    55    28    31    1
@<TRIPOS>MOLECULE
*****
 52 55 0 0 0
SMALL
GASTEIGER

@<TRIPOS>ATOM
      1 C           4.1634   -0.4951   22.2626 C.3     1  UNL1        0.0760
      2 C           4.9375   -2.4774   23.7531 C.2     1  UNL1        0.2429
      3 O           4.3189   -3.4447   22.7879 O.2     1  UNL1       -0.2732
      4 N           4.8598   -1.0026   23.4905 N.am    1  UNL1       -0.3042
      5 H           5.2658   -0.3677   24.1240 H       1  UNL1        0.1494
      6 CA          5.6338   -2.9849   24.9810 C.3     1  UNL1        0.1793
      7 N           5.7579   -0.5408   28.1053 N.am    1  UNL1       -0.2567
      8 C           6.4873    0.6911   28.5529 C.3     1  UNL1        0.1168
      9 C           6.0605   -1.1469   26.7670 C.2     1  UNL1        0.3047
     10 O           7.0926   -0.5211   25.8763 O.2     1  UNL1       -0.2526
     11 N           5.3311   -2.3788   26.3193 N.am    1  UNL1       -0.2805
     12 H           4.6537   -2.7895   26.9039 H       1  UNL1        0.1514
     13 C           4.7259   -1.1666   28.9959 C.3     1  UNL1        0.1413
     14 C           1.0997    0.2174   28.9622 C.ar    1  UNL1        0.0875
     15 N           2.1741   -0.6560   28.3852 N.ar    1  UNL1       -0.2453
     16 C           3.4102   -0.4806   29.2166 C.ar    1  UNL1        0.0858
     17 C           3.0999    0.5012   30.3073 C.ar    1  UNL1        0.0530
     18 S           1.6719    0.9327   30.1502 S.2     1  UNL1       -0.0705
     19 C          -0.6614    1.4998   27.5465 C.3     1  UNL1        0.0069
     20 C          -0.3010    0.3520   28.4425 C.3     1  UNL1        0.0465
     21 C          -1.3411   -0.6611   28.8188 C.3     1  UNL1        0.0069
     22 C           6.6327   -4.0983   24.8706 C.3     1  UNL1        0.1661
     23 O           6.8010   -4.8288   23.5713 O.3     1  UNL1       -0.3798
     24 H           5.9888   -5.3187   23.3682 H       1  UNL1        0.2105
     25 C           2.6804   -0.6661   22.1168 C.3     1  UNL1        0.0216
     26 C           2.0893   -0.9712   20.7724 C.3     1  UNL1        0.0217
     27 C           1.2082    0.0359   20.0944 C.3     1  UNL1        0.0792
     28 N           0.1048    0.7033   20.8605 N.am    1  UNL1       -0.2720
     29 C           0.3396    2.0374   21.5048 C.2     1  UNL1        0.4019
     30 O           1.6777    2.7041   21.3830 O.2     1  UNL1       -0.2264
     31 H          -0.7735    0.2658   20.9405 H       1  UNL1        0.1527
     32 O          -0.7639    2.7049   22.2710 O.3     1  UNL1       -0.4291
     33 C          -1.5854    3.7784   21.6209 C.3     1  UNL1        0.2447
     34 C          -3.0815    3.6713   21.6041 C.ar    1  UNL1        0.0714
     35 C          -3.9396    3.5007   20.3858 C.ar    1  UNL1        0.1053
     36 N          -5.3706    3.4399   20.8314 N.ar    1  UNL1       -0.2350
     37 C          -5.3969    3.5731   22.3252 C.ar    1  UNL1        0.1343
     38 S          -3.9821    3.7160   22.8028 S.2     1  UNL1       -0.0652
     39 C           1.4305    0.3754   18.6504 C.3     1  UNL1        0.0460
     40 C           2.8198    0.6301   18.1451 C.ar    1  UNL1       -0.0205
     41 C           3.5353   -0.4246   17.3542 C.ar    1  UNL1       -0.0042
     42 C           4.9244   -0.1699   16.8489 C.ar    1  UNL1       -0.0003
     43 C           5.5981    1.1395   17.1346 C.ar    1  UNL1       -0.0000
     44 C           4.8826    2.1942   17.9255 C.ar    1  UNL1       -0.0003
     45 C           3.4935    1.9395   18.4307 C.ar    1  UNL1       -0.0042
     46 C           4.9503    0.1833   21.1806 C.3     1  UNL1        0.0459
     47 C           5.9472   -0.5973   20.3764 C.ar    1  UNL1       -0.0205
     48 C           5.6149   -1.9843   19.9118 C.ar    1  UNL1       -0.0042
     49 C           6.6118   -2.7649   19.1076 C.ar    1  UNL1       -0.0003
     50 C           7.9411   -2.1585   18.7680 C.ar    1  UNL1       -0.0000
     51 C           8.2734   -0.7715   19.2325 C.ar    1  UNL1       -0.0003
     52 C           7.2764    0.0091   20.0367 C.ar    1  UNL1       -0.0042
@<TRIPOS>BOND
     1    19    20    1
     2    20    21    1
     3    20    14    1
     4    14    15   ar
     5    15    16   ar
     6    16    13    1
     7    13     7    1
     8     7     8    1
     9     7     9   am
    10     9    10    2
    11     9    11   am
    12    11     6    1
    13     6    22    1
    14    22    23    1
    15     6     2    1
    16     2     3    2
    17     2     4   am
    18     4     1    1
    19     1    25    1
    20    25    26    1
    21    27    26    1
    22    27    39    1
    23    39    40    1
    24    40    41   ar
    25    41    42   ar
    26    42    43   ar
    27    43    44   ar
    28    44    45   ar
    29    27    28    1
    30    28    29   am
    31    29    30    2
    32    29    32    1
    33    32    33    1
    34    33    34    1
    35    34    35   ar
    36    35    36   ar
    37    36    37   ar
    38    37    38   ar
    39     1    46    1
    40    46    47    1
    41    47    48   ar
    42    48    49   ar
    43    49    50   ar
    44    50    51   ar
    45    51    52   ar
    46    16    17   ar
    47    17    18   ar
    48    18    14   ar
    49    45    40   ar
    50    38    34   ar
    51    52    47   ar
    52    11    12    1
    53    23    24    1
    54     4     5    1
    55    28    31    1
@<TRIPOS>MOLECULE
*****
 52 55 0 0 0
SMALL
GASTEIGER

@<TRIPOS>ATOM
      1 C           3.3199   -0.6097   22.1875 C.3     1  UNL1        0.0760
      2 C           4.1269   -0.5869   24.6570 C.2     1  UNL1        0.2429
      3 O           4.4827    0.8645   24.5273 O.2     1  UNL1       -0.2732
      4 N           3.5454   -1.3240   23.4870 N.am    1  UNL1       -0.3042
      5 H           3.3119   -2.2766   23.5722 H       1  UNL1        0.1494
      6 CA          4.3524   -1.3012   25.9566 C.3     1  UNL1        0.1793
      7 N           3.1617   -0.0622   29.5339 N.am    1  UNL1       -0.2567
      8 C           3.7340    0.5954   30.7545 C.3     1  UNL1        0.1168
      9 C           4.0431   -0.3529   28.3556 C.2     1  UNL1        0.3047
     10 O           5.4970    0.0141   28.3978 O.2     1  UNL1       -0.2526
     11 N           3.4708   -1.0106   27.1349 N.am    1  UNL1       -0.2805
     12 H           2.5167   -1.2515   27.1072 H       1  UNL1        0.1514
     13 C           1.7079   -0.4293   29.4916 C.3     1  UNL1        0.1413
     14 C          -0.1861    1.6517   26.8181 C.ar    1  UNL1        0.0875
     15 N           1.0400    0.9254   27.2861 N.ar    1  UNL1       -0.2453
     16 C           0.7569    0.3693   28.6502 C.ar    1  UNL1        0.0858
     17 C          -0.6441    0.7520   29.0252 C.ar    1  UNL1        0.0530
     18 S          -1.2270    1.5446   27.8929 S.2     1  UNL1       -0.0705
     19 C           0.8320    2.5056   24.5855 C.3     1  UNL1        0.0069
     20 C          -0.3437    2.3608   25.5056 C.3     1  UNL1        0.0465
     21 C          -1.6770    2.9250   25.1134 C.3     1  UNL1        0.0069
     22 C           5.4593   -2.3061   26.0778 C.3     1  UNL1        0.1661
     23 O           6.8527   -1.8521   26.3976 O.3     1  UNL1       -0.3798
     24 H           7.1962   -1.3202   25.6627 H       1  UNL1        0.2105
     25 C           2.0570    0.1695   21.9692 C.3     1  UNL1        0.0216
     26 C           1.1284   -0.2048   20.8523 C.3     1  UNL1        0.0217
     27 C           0.5233    0.8633   19.9902 C.3     1  UNL1        0.0792
     28 N          -0.5523    1.7519   20.5410 N.am    1  UNL1       -0.2720
     29 C          -0.2146    3.1364   21.0092 C.2     1  UNL1        0.4019
     30 O           1.1987    3.6322   20.9266 O.2     1  UNL1       -0.2264
     31 H          -1.4798    1.4265   20.5952 H       1  UNL1        0.1527
     32 O          -1.2901    4.0250   21.5601 O.3     1  UNL1       -0.4291
     33 C          -2.7046    3.5317   21.6363 C.3     1  UNL1        0.2447
     34 C          -3.5898    3.6026   20.4274 C.ar    1  UNL1        0.0714
     35 C          -5.0360    3.2087   20.3693 C.ar    1  UNL1        0.1053
     36 N          -5.5243    3.4425   18.9704 N.ar    1  UNL1       -0.2350
     37 C          -4.3798    3.9808   18.1639 C.ar    1  UNL1        0.1343
     38 S          -3.1843    4.0798   19.0644 S.2     1  UNL1       -0.0652
     39 C           0.9939    1.0427   18.5772 C.3     1  UNL1        0.0460
     40 C           2.4530    0.9207   18.2515 C.ar    1  UNL1       -0.0205
     41 C           3.4159    1.9722   18.7173 C.ar    1  UNL1       -0.0042
     42 C           4.8750    1.8503   18.3916 C.ar    1  UNL1       -0.0003
     43 C           5.3712    0.6768   17.5999 C.ar    1  UNL1       -0.0000
     44 C           4.4083   -0.3748   17.1340 C.ar    1  UNL1       -0.0003
     45 C           2.9492   -0.2528   17.4598 C.ar    1  UNL1       -0.0042
     46 C           4.3575   -0.6746   21.1061 C.3     1  UNL1        0.0459
     47 C           4.5272   -1.9308   20.3040 C.ar    1  UNL1       -0.0205
     48 C           5.8919   -2.3451   19.8391 C.ar    1  UNL1       -0.0042
     49 C           6.0616   -3.6012   19.0370 C.ar    1  UNL1       -0.0003
     50 C           4.8667   -4.4430   18.6998 C.ar    1  UNL1       -0.0000
     51 C           3.5021   -4.0287   19.1648 C.ar    1  UNL1       -0.0003
     52 C           3.3324   -2.7725   19.9669 C.ar    1  UNL1       -0.0042
@<TRIPOS>BOND
     1    19    20    1
     2    20    21    1
     3    20    14    1
     4    14    15   ar
     5    15    16   ar
     6    16    13    1
     7    13     7    1
     8     7     8    1
     9     7     9   am
    10     9    10    2
    11     9    11   am
    12    11     6    1
    13     6    22    1
    14    22    23    1
    15     6     2    1
    16     2     3    2
    17     2     4   am
    18     4     1    1
    19     1    25    1
    20    25    26    1
    21    27    26    1
    22    27    39    1
    23    39    40    1
    24    40    41   ar
    25    41    42   ar
    26    42    43   ar
    27    43    44   ar
    28    44    45   ar
    29    27    28    1
    30    28    29   am
    31    29    30    2
    32    29    32    1
    33    32    33    1
    34    33    34    1
    35    34    35   ar
    36    35    36   ar
    37    36    37   ar
    38    37    38   ar
    39     1    46    1
    40    46    47    1
    41    47    48   ar
    42    48    49   ar
    43    49    50   ar
    44    50    51   ar
    45    51    52   ar
    46    16    17   ar
    47    17    18   ar
    48    18    14   ar
    49    45    40   ar
    50    38    34   ar
    51    52    47   ar
    52    11    12    1
    53    23    24    1
    54     4     5    1
    55    28    31    1
@<TRIPOS>MOLECULE
*****
 52 55 0 0 0
SMALL
GASTEIGER

@<TRIPOS>ATOM
      1 C           5.5740   -2.0788   23.7597 C.3     1  UNL1        0.0760
      2 C           6.1658   -2.2432   26.2841 C.2     1  UNL1        0.2429
      3 O           7.0801   -1.0622   26.1467 O.2     1  UNL1       -0.2732
      4 N           5.4127   -2.7516   25.0906 N.am    1  UNL1       -0.3042
      5 H           4.8125   -3.5268   25.1808 H       1  UNL1        0.1494
      6 CA          6.0044   -2.9160   27.6150 C.3     1  UNL1        0.1793
      7 N           5.4198   -0.5768   30.7673 N.am    1  UNL1       -0.2567
      8 C           6.2061    0.3273   31.6698 C.3     1  UNL1        0.1168
      9 C           6.1052   -1.2944   29.6424 C.2     1  UNL1        0.3047
     10 O           7.5769   -1.1078   29.4200 O.2     1  UNL1       -0.2526
     11 N           5.3190   -2.1985   28.7399 N.am    1  UNL1       -0.2805
     12 H           4.3531   -2.3209   28.8859 H       1  UNL1        0.1514
     13 C           3.9482   -0.7634   30.9897 C.3     1  UNL1        0.1413
     14 C           0.9202    0.5881   28.9722 C.ar    1  UNL1        0.0875
     15 N           1.5366   -0.4290   29.8862 N.ar    1  UNL1       -0.2453
     16 C           2.9610   -0.0283   30.1322 C.ar    1  UNL1        0.0858
     17 C           3.2249    1.2365   29.3702 C.ar    1  UNL1        0.0530
     18 S           1.9636    1.6175   28.6533 S.2     1  UNL1       -0.0705
     19 C          -1.4265   -0.5225   28.8732 C.3     1  UNL1        0.0069
     20 C          -0.4918    0.5777   28.4659 C.3     1  UNL1        0.0465
     21 C          -0.9690    1.6675   27.5524 C.3     1  UNL1        0.0069
     22 C           6.5285   -4.3063   27.8211 C.3     1  UNL1        0.1661
     23 O           6.1513   -5.3993   26.8656 O.3     1  UNL1       -0.3798
     24 H           5.1994   -5.5731   26.9326 H       1  UNL1        0.2105
     25 C           4.8765   -0.7792   23.4868 C.3     1  UNL1        0.0216
     26 C           3.3880   -0.7510   23.3035 C.3     1  UNL1        0.0217
     27 C           2.7881    0.0019   22.1532 C.3     1  UNL1        0.0792
     28 N           2.4443    1.4540   22.3049 N.am    1  UNL1       -0.2720
     29 C           1.3426    1.8708   23.2338 C.2     1  UNL1        0.4019
     30 O           0.5848    0.8355   24.0108 O.2     1  UNL1       -0.2264
     31 H           2.9416    2.1336   21.7949 H       1  UNL1        0.1527
     32 O           0.9987    3.3230   23.3856 O.3     1  UNL1       -0.4291
     33 C          -0.1042    3.9224   22.5644 C.3     1  UNL1        0.2447
     34 C          -1.5312    3.7722   23.0015 C.ar    1  UNL1        0.0714
     35 C          -2.7272    3.7032   22.0989 C.ar    1  UNL1        0.1053
     36 N          -3.9480    3.5531   22.9575 N.ar    1  UNL1       -0.2350
     37 C          -3.5065    3.5292   24.3908 C.ar    1  UNL1        0.1343
     38 S          -2.0128    3.6647   24.4180 S.2     1  UNL1       -0.0652
     39 C           2.5320   -0.6974   20.8511 C.3     1  UNL1        0.0460
     40 C           3.4253   -0.4409   19.6736 C.ar    1  UNL1       -0.0205
     41 C           2.9829   -0.8371   18.2962 C.ar    1  UNL1       -0.0042
     42 C           3.8762   -0.5806   17.1189 C.ar    1  UNL1       -0.0003
     43 C           5.2118    0.0722   17.3189 C.ar    1  UNL1       -0.0000
     44 C           5.6542    0.4684   18.6963 C.ar    1  UNL1       -0.0003
     45 C           4.7609    0.2119   19.8736 C.ar    1  UNL1       -0.0042
     46 C           6.4329   -2.7057   22.7016 C.3     1  UNL1        0.0459
     47 C           5.8245   -3.1375   21.4003 C.ar    1  UNL1       -0.0205
     48 C           4.5035   -3.8481   21.3891 C.ar    1  UNL1       -0.0042
     49 C           3.8951   -4.2798   20.0878 C.ar    1  UNL1       -0.0003
     50 C           4.6078   -4.0009   18.7976 C.ar    1  UNL1       -0.0000
     51 C           5.9287   -3.2904   18.8088 C.ar    1  UNL1       -0.0003
     52 C           6.5371   -2.8586   20.1101 C.ar    1  UNL1       -0.0042
@<TRIPOS>BOND
     1    19    20    1
     2    20    21    1
     3    20    14    1
     4    14    15   ar
     5    15    16   ar
     6    16    13    1
     7    13     7    1
     8     7     8    1
     9     7     9   am
    10     9    10    2
    11     9    11   am
    12    11     6    1
    13     6    22    1
    14    22    23    1
    15     6     2    1
    16     2     3    2
    17     2     4   am
    18     4     1    1
    19     1    25    1
    20    25    26    1
    21    27    26    1
    22    27    39    1
    23    39    40    1
    24    40    41   ar
    25    41    42   ar
    26    42    43   ar
    27    43    44   ar
    28    44    45   ar
    29    27    28    1
    30    28    29   am
    31    29    30    2
    32    29    32    1
    33    32    33    1
    34    33    34    1
    35    34    35   ar
    36    35    36   ar
    37    36    37   ar
    38    37    38   ar
    39     1    46    1
    40    46    47    1
    41    47    48   ar
    42    48    49   ar
    43    49    50   ar
    44    50    51   ar
    45    51    52   ar
    46    16    17   ar
    47    17    18   ar
    48    18    14   ar
    49    45    40   ar
    50    38    34   ar
    51    52    47   ar
    52    11    12    1
    53    23    24    1
    54     4     5    1
    55    28    31    1
@<TRIPOS>MOLECULE
*****
 52 55 0 0 0
SMALL
GASTEIGER

@<TRIPOS>ATOM
      1 C           4.8633   -1.3334   24.3498 C.3     1  UNL1        0.0760
      2 C           5.2209   -1.1569   26.9171 C.2     1  UNL1        0.2429
      3 O           5.1713    0.3392   26.8212 O.2     1  UNL1       -0.2732
      4 N           5.0669   -1.9932   25.6815 N.am    1  UNL1       -0.3042
      5 H           5.0994   -2.9752   25.7444 H       1  UNL1        0.1494
      6 CA          5.4245   -1.8167   28.2488 C.3     1  UNL1        0.1793
      7 N           5.0048    0.3619   31.5394 N.am    1  UNL1       -0.2567
      8 C           5.7928    1.3391   32.3604 C.3     1  UNL1        0.1168
      9 C           5.6086   -0.2388   30.3046 C.2     1  UNL1        0.3047
     10 O           7.0004    0.1377   29.8909 O.2     1  UNL1       -0.2526
     11 N           4.8206   -1.2160   29.4836 N.am    1  UNL1       -0.2805
     12 H           3.9071   -1.4631   29.7551 H       1  UNL1        0.1514
     13 C           3.6130   -0.0146   31.9530 C.3     1  UNL1        0.1413
     14 C           0.5782    0.7520   29.6579 C.ar    1  UNL1        0.0875
     15 N           1.6740   -0.1626   30.1191 N.ar    1  UNL1       -0.2453
     16 C           2.4340    0.5363   31.2071 C.ar    1  UNL1        0.0858
     17 C           1.8079    1.8830   31.4183 C.ar    1  UNL1        0.0530
     18 S           0.6610    2.0163   30.4609 S.2     1  UNL1       -0.0705
     19 C          -1.4785   -0.5884   28.8075 C.3     1  UNL1        0.0069
     20 C          -0.4243    0.4547   28.5825 C.3     1  UNL1        0.0465
     21 C          -0.3727    1.2003   27.2820 C.3     1  UNL1        0.0069
     22 C           6.2319   -3.0771   28.3456 C.3     1  UNL1        0.1661
     23 O           5.8731   -4.2643   27.5020 O.3     1  UNL1       -0.3798
     24 H           5.0069   -4.6050   27.7750 H       1  UNL1        0.2105
     25 C           3.4826   -1.2116   23.7765 C.3     1  UNL1        0.0216
     26 C           3.0254    0.0922   23.1924 C.3     1  UNL1        0.0217
     27 C           2.7073    0.1883   21.7297 C.3     1  UNL1        0.0792
     28 N           1.2843    0.3396   21.2800 N.am    1  UNL1       -0.2720
     29 C           0.6262    1.6871   21.3142 C.2     1  UNL1        0.4019
     30 O           1.3910    2.8833   21.7982 O.2     1  UNL1       -0.2264
     31 H           0.7824   -0.4455   20.9623 H       1  UNL1        0.1527
     32 O          -0.7968    1.8384   20.8645 O.3     1  UNL1       -0.4291
     33 C          -1.2862    3.1622   20.3568 C.3     1  UNL1        0.2447
     34 C          -2.7563    3.3990   20.1754 C.ar    1  UNL1        0.0714
     35 C          -3.8246    3.1317   21.1938 C.ar    1  UNL1        0.1053
     36 N          -5.1447    3.5122   20.5916 N.ar    1  UNL1       -0.2350
     37 C          -4.8922    4.0147   19.2011 C.ar    1  UNL1        0.1343
     38 S          -3.4161    3.9447   18.9438 S.2     1  UNL1       -0.0652
     39 C           3.8122    0.1332   20.7167 C.3     1  UNL1        0.0460
     40 C           4.1073   -1.1499   19.9978 C.ar    1  UNL1       -0.0205
     41 C           4.9839   -1.1432   18.7807 C.ar    1  UNL1       -0.0042
     42 C           5.2790   -2.4262   18.0619 C.ar    1  UNL1       -0.0003
     43 C           4.6975   -3.7160   18.5602 C.ar    1  UNL1       -0.0000
     44 C           3.8208   -3.7227   19.7774 C.ar    1  UNL1       -0.0003
     45 C           3.5258   -2.4397   20.4961 C.ar    1  UNL1       -0.0042
     46 C           6.0405   -0.7955   23.5916 C.3     1  UNL1        0.0459
     47 C           6.6913   -1.6284   22.5273 C.ar    1  UNL1       -0.0205
     48 C           7.5227   -0.9723   21.4651 C.ar    1  UNL1       -0.0042
     49 C           8.1736   -1.8052   20.4009 C.ar    1  UNL1       -0.0003
     50 C           7.9929   -3.2944   20.3989 C.ar    1  UNL1       -0.0000
     51 C           7.1615   -3.9505   21.4611 C.ar    1  UNL1       -0.0003
     52 C           6.5107   -3.1175   22.5253 C.ar    1  UNL1       -0.0042
@<TRIPOS>BOND
     1    19    20    1
     2    20    21    1
     3    20    14    1
     4    14    15   ar
     5    15    16   ar
     6    16    13    1
     7    13     7    1
     8     7     8    1
     9     7     9   am
    10     9    10    2
    11     9    11   am
    12    11     6    1
    13     6    22    1
    14    22    23    1
    15     6     2    1
    16     2     3    2
    17     2     4   am
    18     4     1    1
    19     1    25    1
    20    25    26    1
    21    27    26    1
    22    27    39    1
    23    39    40    1
    24    40    41   ar
    25    41    42   ar
    26    42    43   ar
    27    43    44   ar
    28    44    45   ar
    29    27    28    1
    30    28    29   am
    31    29    30    2
    32    29    32    1
    33    32    33    1
    34    33    34    1
    35    34    35   ar
    36    35    36   ar
    37    36    37   ar
    38    37    38   ar
    39     1    46    1
    40    46    47    1
    41    47    48   ar
    42    48    49   ar
    43    49    50   ar
    44    50    51   ar
    45    51    52   ar
    46    16    17   ar
    47    17    18   ar
    48    18    14   ar
    49    45    40   ar
    50    38    34   ar
    51    52    47   ar
    52    11    12    1
    53    23    24    1
    54     4     5    1
    55    28    31    1
@<TRIPOS>MOLECULE
*****
 52 55 0 0 0
SMALL
GASTEIGER

@<TRIPOS>ATOM
      1 C           2.0531   -0.0298   21.2052 C.3     1  UNL1        0.0760
      2 C           0.9292    2.1310   20.3006 C.2     1  UNL1        0.2429
      3 O           1.8684    2.1299   19.1311 O.2     1  UNL1       -0.2732
      4 N           1.0215    1.0511   21.3377 N.am    1  UNL1       -0.3042
      5 H           0.4050    1.0518   22.1053 H       1  UNL1        0.1494
      6 CA         -0.1024    3.2118   20.4332 C.3     1  UNL1        0.1793
      7 N          -2.8292    3.6178   23.2879 N.am    1  UNL1       -0.2567
      8 C          -4.3093    3.4594   23.4730 C.3     1  UNL1        0.1168
      9 C          -2.2059    3.3356   21.9531 C.2     1  UNL1        0.3047
     10 O          -3.0626    2.8950   20.8033 O.2     1  UNL1       -0.2526
     11 N          -0.7258    3.4941   21.7680 N.am    1  UNL1       -0.2805
     12 H          -0.1635    3.7832   22.5227 H       1  UNL1        0.1514
     13 C          -1.9725    4.0584   24.4376 C.3     1  UNL1        0.1413
     14 C          -0.6785    1.6425   27.1862 C.ar    1  UNL1        0.0875
     15 N          -1.6119    2.7221   26.7244 N.ar    1  UNL1       -0.2453
     16 C          -1.2848    3.0375   25.2949 C.ar    1  UNL1        0.0858
     17 C          -0.1493    2.1528   24.8732 C.ar    1  UNL1        0.0530
     18 S           0.2255    1.2907   26.0420 S.2     1  UNL1       -0.0705
     19 C           0.1369    1.6669   29.6529 C.3     1  UNL1        0.0069
     20 C          -0.6534    1.0235   28.5523 C.3     1  UNL1        0.0465
     21 C          -1.4187   -0.2390   28.8177 C.3     1  UNL1        0.0069
     22 C          -0.5106    4.0105   19.2309 C.3     1  UNL1        0.1661
     23 O           0.2056    5.2861   18.8993 O.3     1  UNL1       -0.3798
     24 H           0.0373    5.9414   19.5943 H       1  UNL1        0.2105
     25 C           3.2282   -0.0633   22.1368 C.3     1  UNL1        0.0216
     26 C           3.0807   -0.6505   23.5091 C.3     1  UNL1        0.0217
     27 C           3.9258   -1.8201   23.9193 C.3     1  UNL1        0.0792
     28 N           4.3172   -1.9951   25.3567 N.am    1  UNL1       -0.2720
     29 C           5.3154   -1.0655   25.9807 C.2     1  UNL1        0.4019
     30 O           5.9222    0.0391   25.1673 O.2     1  UNL1       -0.2264
     31 H           3.9189   -2.7201   25.8906 H       1  UNL1        0.1527
     32 O           5.7068   -1.2405   27.4181 O.3     1  UNL1       -0.4291
     33 C           5.3966   -0.1647   28.4163 C.3     1  UNL1        0.2447
     34 C           4.4739   -0.4498   29.5640 C.ar    1  UNL1        0.0714
     35 C           2.9862   -0.6209   29.4778 C.ar    1  UNL1        0.1053
     36 N           2.4697   -0.8908   30.8599 N.ar    1  UNL1       -0.2350
     37 C           3.6382   -0.8866   31.8004 C.ar    1  UNL1        0.1343
     38 S           4.8768   -0.6141   30.9995 S.2     1  UNL1       -0.0652
     39 C           4.3793   -2.8145   22.8920 C.3     1  UNL1        0.0460
     40 C           5.7311   -2.6735   22.2572 C.ar    1  UNL1       -0.0205
     41 C           6.2649   -1.3118   21.9242 C.ar    1  UNL1       -0.0042
     42 C           7.6166   -1.1709   21.2894 C.ar    1  UNL1       -0.0003
     43 C           8.4345   -2.3915   20.9876 C.ar    1  UNL1       -0.0000
     44 C           7.9006   -3.7532   21.3205 C.ar    1  UNL1       -0.0003
     45 C           6.5489   -3.8941   21.9553 C.ar    1  UNL1       -0.0042
     46 C           1.9095   -1.0772   20.1410 C.3     1  UNL1        0.0459
     47 C           3.1305   -1.6667   19.4993 C.ar    1  UNL1       -0.0205
     48 C           3.3193   -3.1545   19.4722 C.ar    1  UNL1       -0.0042
     49 C           4.5402   -3.7440   18.8306 C.ar    1  UNL1       -0.0003
     50 C           5.5724   -2.8456   18.2159 C.ar    1  UNL1       -0.0000
     51 C           5.3835   -1.3579   18.2430 C.ar    1  UNL1       -0.0003
     52 C           4.1625   -0.7684   18.8847 C.ar    1  UNL1       -0.0042
@<TRIPOS>BOND
     1    19    20    1
     2    20    21    1
     3    20    14    1
     4    14    15   ar
     5    15    16   ar
     6    16    13    1
     7    13     7    1
     8     7     8    1
     9     7     9   am
    10     9    10    2
    11     9    11   am
    12    11     6    1
    13     6    22    1
    14    22    23    1
    15     6     2    1
    16     2     3    2
    17     2     4   am
    18     4     1    1
    19     1    25    1
    20    25    26    1
    21    27    26    1
    22    27    39    1
    23    39    40    1
    24    40    41   ar
    25    41    42   ar
    26    42    43   ar
    27    43    44   ar
    28    44    45   ar
    29    27    28    1
    30    28    29   am
    31    29    30    2
    32    29    32    1
    33    32    33    1
    34    33    34    1
    35    34    35   ar
    36    35    36   ar
    37    36    37   ar
    38    37    38   ar
    39     1    46    1
    40    46    47    1
    41    47    48   ar
    42    48    49   ar
    43    49    50   ar
    44    50    51   ar
    45    51    52   ar
    46    16    17   ar
    47    17    18   ar
    48    18    14   ar
    49    45    40   ar
    50    38    34   ar
    51    52    47   ar
    52    11    12    1
    53    23    24    1
    54     4     5    1
    55    28    31    1
@<TRIPOS>MOLECULE
*****
 52 55 0 0 0
SMALL
GASTEIGER

@<TRIPOS>ATOM
      1 C           2.6950    0.2225   21.1043 C.3     1  UNL1        0.0760
      2 C           0.4624    1.5508   21.1382 C.2     1  UNL1        0.2429
      3 O          -0.2627    0.3453   20.6176 O.2     1  UNL1       -0.2732
      4 N           1.9413    1.4894   21.3815 N.am    1  UNL1       -0.3042
      5 H           2.4172    2.2806   21.7232 H       1  UNL1        0.1494
      6 CA         -0.2914    2.8177   21.4154 C.3     1  UNL1        0.1793
      7 N          -3.9470    3.4744   20.0171 N.am    1  UNL1       -0.2567
      8 C          -4.6097    4.0916   18.8214 C.3     1  UNL1        0.1168
      9 C          -2.4506    3.4546   20.1184 C.2     1  UNL1        0.3047
     10 O          -1.6168    4.0520   19.0238 O.2     1  UNL1       -0.2526
     11 N          -1.7879    2.8375   21.3142 N.am    1  UNL1       -0.2805
     12 H          -2.3351    2.4454   22.0326 H       1  UNL1        0.1514
     13 C          -4.7807    2.8771   21.1117 C.3     1  UNL1        0.1413
     14 C          -5.3310    4.5796   24.5562 C.ar    1  UNL1        0.0875
     15 N          -4.6823    3.5314   23.7016 N.ar    1  UNL1       -0.2453
     16 C          -5.1731    3.7106   22.2956 C.ar    1  UNL1        0.0858
     17 C          -6.1252    4.8696   22.2811 C.ar    1  UNL1        0.0530
     18 S          -6.2228    5.4067   23.6783 S.2     1  UNL1       -0.0705
     19 C          -5.9650    5.7538   26.7854 C.3     1  UNL1        0.0069
     20 C          -5.1242    4.7678   26.0299 C.3     1  UNL1        0.0465
     21 C          -4.0767    3.9698   26.7482 C.3     1  UNL1        0.0069
     22 C           0.4513    4.0647   21.7938 C.3     1  UNL1        0.1661
     23 O           0.2769    5.3161   20.9852 O.3     1  UNL1       -0.3798
     24 H           0.6350    5.1779   20.0944 H       1  UNL1        0.2105
     25 C           2.6965   -0.8858   22.1150 C.3     1  UNL1        0.0216
     26 C           3.4411   -0.7218   23.4068 C.3     1  UNL1        0.0217
     27 C           4.1610   -1.8908   24.0111 C.3     1  UNL1        0.0792
     28 N           4.3351   -1.9770   25.4985 N.am    1  UNL1       -0.2720
     29 C           5.3049   -1.0682   26.1940 C.2     1  UNL1        0.4019
     30 O           6.1004   -0.0732   25.4021 O.2     1  UNL1       -0.2264
     31 H           3.8129   -2.6301   26.0182 H       1  UNL1        0.1527
     32 O           5.4790   -1.1544   27.6814 O.3     1  UNL1       -0.4291
     33 C           4.9132   -0.0833   28.5660 C.3     1  UNL1        0.2447
     34 C           3.4412   -0.0470   28.8523 C.ar    1  UNL1        0.0714
     35 C           2.7667   -0.5982   30.0734 C.ar    1  UNL1        0.1053
     36 N           1.2939   -0.3449   29.9436 N.ar    1  UNL1       -0.2350
     37 C           1.0582    0.3629   28.6423 C.ar    1  UNL1        0.1343
     38 S           2.3854    0.5470   27.9679 S.2     1  UNL1       -0.0652
     39 C           4.7067   -2.9736   23.1281 C.3     1  UNL1        0.0460
     40 C           5.9612   -2.7378   22.3402 C.ar    1  UNL1       -0.0205
     41 C           6.4767   -1.3420   22.1508 C.ar    1  UNL1       -0.0042
     42 C           7.7311   -1.1062   21.3629 C.ar    1  UNL1       -0.0003
     43 C           8.4701   -2.2663   20.7645 C.ar    1  UNL1       -0.0000
     44 C           7.9547   -3.6621   20.9540 C.ar    1  UNL1       -0.0003
     45 C           6.7002   -3.8979   21.7418 C.ar    1  UNL1       -0.0042
     46 C           3.4474    0.0640   19.8163 C.3     1  UNL1        0.0459
     47 C           3.9324   -1.2908   19.3929 C.ar    1  UNL1       -0.0205
     48 C           5.2298   -1.4252   18.6521 C.ar    1  UNL1       -0.0042
     49 C           5.7149   -2.7800   18.2288 C.ar    1  UNL1       -0.0003
     50 C           4.9025   -4.0004   18.5462 C.ar    1  UNL1       -0.0000
     51 C           3.6052   -3.8660   19.2870 C.ar    1  UNL1       -0.0003
     52 C           3.1201   -2.5112   19.7104 C.ar    1  UNL1       -0.0042
@<TRIPOS>BOND
     1    19    20    1
     2    20    21    1
     3    20    14    1
     4    14    15   ar
     5    15    16   ar
     6    16    13    1
     7    13     7    1
     8     7     8    1
     9     7     9   am
    10     9    10    2
    11     9    11   am
    12    11     6    1
    13     6    22    1
    14    22    23    1
    15     6     2    1
    16     2     3    2
    17     2     4   am
    18     4     1    1
    19     1    25    1
    20    25    26    1
    21    27    26    1
    22    27    39    1
    23    39    40    1
    24    40    41   ar
    25    41    42   ar
    26    42    43   ar
    27    43    44   ar
    28    44    45   ar
    29    27    28    1
    30    28    29   am
    31    29    30    2
    32    29    32    1
    33    32    33    1
    34    33    34    1
    35    34    35   ar
    36    35    36   ar
    37    36    37   ar
    38    37    38   ar
    39     1    46    1
    40    46    47    1
    41    47    48   ar
    42    48    49   ar
    43    49    50   ar
    44    50    51   ar
    45    51    52   ar
    46    16    17   ar
    47    17    18   ar
    48    18    14   ar
    49    45    40   ar
    50    38    34   ar
    51    52    47   ar
    52    11    12    1
    53    23    24    1
    54     4     5    1
    55    28    31    1
@<TRIPOS>MOLECULE
*****
 52 55 0 0 0
SMALL
GASTEIGER

@<TRIPOS>ATOM
      1 C           5.1235   -3.2352   23.0330 C.3     1  UNL1        0.0760
      2 C           7.6112   -3.9205   23.3358 C.2     1  UNL1        0.2429
      3 O           8.0383   -2.5275   22.9791 O.2     1  UNL1       -0.2732
      4 N           6.1538   -4.2743   23.3628 N.am    1  UNL1       -0.3042
      5 H           5.8734   -5.1886   23.5969 H       1  UNL1        0.1494
      6 CA          8.6415   -4.9596   23.6656 C.3     1  UNL1        0.1793
      7 N           8.7695   -7.1024   27.0036 N.am    1  UNL1       -0.2567
      8 C           8.4046   -8.4757   27.4841 C.3     1  UNL1        0.1168
      9 C           8.5230   -6.7176   25.5749 C.2     1  UNL1        0.3047
     10 O           7.9116   -7.7061   24.6267 O.2     1  UNL1       -0.2526
     11 N           8.8880   -5.3443   25.0944 N.am    1  UNL1       -0.2805
     12 H           9.2893   -4.6955   25.7167 H       1  UNL1        0.1514
     13 C           9.3809   -6.1139   27.9517 C.3     1  UNL1        0.1413
     14 C           7.6126   -3.8415   30.5546 C.ar    1  UNL1        0.0875
     15 N           8.7352   -4.7555   30.1614 N.ar    1  UNL1       -0.2453
     16 C           8.5018   -5.1940   28.7461 C.ar    1  UNL1        0.0858
     17 C           7.2351   -4.5510   28.2645 C.ar    1  UNL1        0.0530
     18 S           6.6855   -3.7151   29.3822 S.2     1  UNL1       -0.0705
     19 C           8.6385   -2.5918   32.5883 C.3     1  UNL1        0.0069
     20 C           7.4464   -3.1715   31.8863 C.3     1  UNL1        0.0465
     21 C           6.0880   -3.0812   32.5161 C.3     1  UNL1        0.0069
     22 C           9.4253   -5.6139   22.5668 C.3     1  UNL1        0.1661
     23 O           8.8388   -6.7710   21.8137 O.3     1  UNL1       -0.3798
     24 H           8.7357   -7.5274   22.4121 H       1  UNL1        0.2105
     25 C           4.9334   -2.0539   23.9376 C.3     1  UNL1        0.0216
     26 C           3.5789   -1.4240   24.0738 C.3     1  UNL1        0.0217
     27 C           3.3805    0.0156   23.7020 C.3     1  UNL1        0.0792
     28 N           2.6135    0.9269   24.6138 N.am    1  UNL1       -0.2720
     29 C           3.2728    1.4928   25.8366 C.2     1  UNL1        0.4019
     30 O           4.6990    1.1475   26.1475 O.2     1  UNL1       -0.2264
     31 H           1.6774    1.1535   24.4098 H       1  UNL1        0.1527
     32 O           2.5059    2.4040   26.7484 O.3     1  UNL1       -0.4291
     33 C           1.4039    1.8542   27.6048 C.3     1  UNL1        0.2447
     34 C           1.7314    1.1546   28.8906 C.ar    1  UNL1        0.0714
     35 C           1.8627   -0.3277   29.0792 C.ar    1  UNL1        0.1053
     36 N           2.1975   -0.5840   30.5188 N.ar    1  UNL1       -0.2350
     37 C           2.2730    0.7399   31.2199 C.ar    1  UNL1        0.1343
     38 S           1.9850    1.8144   30.2136 S.2     1  UNL1       -0.0652
     39 C           3.9490    0.5440   22.4184 C.3     1  UNL1        0.0460
     40 C           3.1137    0.5448   21.1724 C.ar    1  UNL1       -0.0205
     41 C           1.8415   -0.2482   21.1217 C.ar    1  UNL1       -0.0042
     42 C           1.0064   -0.2474   19.8757 C.ar    1  UNL1       -0.0003
     43 C           1.4435    0.5465   18.6804 C.ar    1  UNL1       -0.0000
     44 C           2.7157    1.3395   18.7311 C.ar    1  UNL1       -0.0003
     45 C           3.5508    1.3386   19.9771 C.ar    1  UNL1       -0.0042
     46 C           4.2832   -3.3775   21.7985 C.3     1  UNL1        0.0459
     47 C           4.6716   -2.6594   20.5401 C.ar    1  UNL1       -0.0205
     48 C           3.7767   -2.7161   19.3376 C.ar    1  UNL1       -0.0042
     49 C           4.1651   -1.9980   18.0792 C.ar    1  UNL1       -0.0003
     50 C           5.4483   -1.2232   18.0233 C.ar    1  UNL1       -0.0000
     51 C           6.3431   -1.1666   19.2258 C.ar    1  UNL1       -0.0003
     52 C           5.9548   -1.8846   20.4842 C.ar    1  UNL1       -0.0042
@<TRIPOS>BOND
     1    19    20    1
     2    20    21    1
     3    20    14    1
     4    14    15   ar
     5    15    16   ar
     6    16    13    1
     7    13     7    1
     8     7     8    1
     9     7     9   am
    10     9    10    2
    11     9    11   am
    12    11     6    1
    13     6    22    1
    14    22    23    1
    15     6     2    1
    16     2     3    2
    17     2     4   am
    18     4     1    1
    19     1    25    1
    20    25    26    1
    21    27    26    1
    22    27    39    1
    23    39    40    1
    24    40    41   ar
    25    41    42   ar
    26    42    43   ar
    27    43    44   ar
    28    44    45   ar
    29    27    28    1
    30    28    29   am
    31    29    30    2
    32    29    32    1
    33    32    33    1
    34    33    34    1
    35    34    35   ar
    36    35    36   ar
    37    36    37   ar
    38    37    38   ar
    39     1    46    1
    40    46    47    1
    41    47    48   ar
    42    48    49   ar
    43    49    50   ar
    44    50    51   ar
    45    51    52   ar
    46    16    17   ar
    47    17    18   ar
    48    18    14   ar
    49    45    40   ar
    50    38    34   ar
    51    52    47   ar
    52    11    12    1
    53    23    24    1
    54     4     5    1
    55    28    31    1
@<TRIPOS>MOLECULE
*****
 52 55 0 0 0
SMALL
GASTEIGER

@<TRIPOS>ATOM
      1 C           2.0779   -0.0337   21.3899 C.3     1  UNL1        0.0760
      2 C           0.9466    2.1257   20.4914 C.2     1  UNL1        0.2429
      3 O           1.9187    2.1598   19.3495 O.2     1  UNL1       -0.2732
      4 N           1.0262    1.0290   21.5116 N.am    1  UNL1       -0.3042
      5 H           0.3882    1.0066   22.2611 H       1  UNL1        0.1494
      6 CA         -0.1050    3.1884   20.6131 C.3     1  UNL1        0.1793
      7 N          -2.8299    3.6222   23.4656 N.am    1  UNL1       -0.2567
      8 C          -4.3111    3.4750   23.6506 C.3     1  UNL1        0.1168
      9 C          -2.2081    3.3317   22.1319 C.2     1  UNL1        0.3047
     10 O          -3.0675    2.8939   20.9831 O.2     1  UNL1       -0.2526
     11 N          -0.7268    3.4790   21.9469 N.am    1  UNL1       -0.2805
     12 H          -0.1627    3.7663   22.7009 H       1  UNL1        0.1514
     13 C          -1.9704    4.0600   24.6144 C.3     1  UNL1        0.1413
     14 C          -0.6491    1.5837   27.2953 C.ar    1  UNL1        0.0875
     15 N          -1.6270    2.6283   26.8454 N.ar    1  UNL1       -0.2453
     16 C          -1.2583    3.0382   25.4504 C.ar    1  UNL1        0.0858
     17 C          -0.0526    2.2468   25.0381 C.ar    1  UNL1        0.0530
     18 S           0.3240    1.3479   26.1783 S.2     1  UNL1       -0.0705
     19 C          -1.4399   -0.3609   28.8260 C.3     1  UNL1        0.0069
     20 C          -0.6449    0.8956   28.6282 C.3     1  UNL1        0.0465
     21 C           0.1543    1.4640   29.7631 C.3     1  UNL1        0.0069
     22 C          -0.5349    3.9604   19.4010 C.3     1  UNL1        0.1661
     23 O          -0.1960    3.4544   18.0303 O.3     1  UNL1       -0.3798
     24 H           0.7657    3.4783   17.9054 H       1  UNL1        0.2105
     25 C           3.3010    0.0189   22.2565 C.3     1  UNL1        0.0216
     26 C           3.2974   -0.6477   23.6002 C.3     1  UNL1        0.0217
     27 C           4.4577   -1.5025   24.0165 C.3     1  UNL1        0.0792
     28 N           5.3209   -1.0852   25.1700 N.am    1  UNL1       -0.2720
     29 C           4.8406   -1.2851   26.5770 C.2     1  UNL1        0.4019
     30 O           3.4971   -1.9023   26.8303 O.2     1  UNL1       -0.2264
     31 H           6.2026   -0.6801   25.0038 H       1  UNL1        0.1527
     32 O           5.7038   -0.8678   27.7306 O.3     1  UNL1       -0.4291
     33 C           6.2931   -1.9049   28.6400 C.3     1  UNL1        0.2447
     34 C           6.8457   -3.1768   28.0684 C.ar    1  UNL1        0.0714
     35 C           6.2732   -4.5503   28.2575 C.ar    1  UNL1        0.1053
     36 N           7.1416   -5.5210   27.5134 N.ar    1  UNL1       -0.2350
     37 C           8.2508   -4.7474   26.8644 C.ar    1  UNL1        0.1343
     38 S           8.0679   -3.2987   27.2074 S.2     1  UNL1       -0.0652
     39 C           4.7547   -2.7746   23.2792 C.3     1  UNL1        0.0460
     40 C           5.9205   -2.8411   22.3375 C.ar    1  UNL1       -0.0205
     41 C           6.4424   -1.5874   21.7005 C.ar    1  UNL1       -0.0042
     42 C           7.6081   -1.6539   20.7589 C.ar    1  UNL1       -0.0003
     43 C           8.2519   -2.9741   20.4544 C.ar    1  UNL1       -0.0000
     44 C           7.7300   -4.2277   21.0915 C.ar    1  UNL1       -0.0003
     45 C           6.5642   -4.1612   22.0330 C.ar    1  UNL1       -0.0042
     46 C           1.9063   -1.1490   20.4016 C.3     1  UNL1        0.0459
     47 C           3.0867   -1.6493   19.6229 C.ar    1  UNL1       -0.0205
     48 C           3.9261   -0.6888   18.8336 C.ar    1  UNL1       -0.0042
     49 C           5.1066   -1.1891   18.0550 C.ar    1  UNL1       -0.0003
     50 C           5.4476   -2.6498   18.0656 C.ar    1  UNL1       -0.0000
     51 C           4.6081   -3.6102   18.8549 C.ar    1  UNL1       -0.0003
     52 C           3.4277   -3.1099   19.6336 C.ar    1  UNL1       -0.0042
@<TRIPOS>BOND
     1    19    20    1
     2    20    21    1
     3    20    14    1
     4    14    15   ar
     5    15    16   ar
     6    16    13    1
     7    13     7    1
     8     7     8    1
     9     7     9   am
    10     9    10    2
    11     9    11   am
    12    11     6    1
    13     6    22    1
    14    22    23    1
    15     6     2    1
    16     2     3    2
    17     2     4   am
    18     4     1    1
    19     1    25    1
    20    25    26    1
    21    27    26    1
    22    27    39    1
    23    39    40    1
    24    40    41   ar
    25    41    42   ar
    26    42    43   ar
    27    43    44   ar
    28    44    45   ar
    29    27    28    1
    30    28    29   am
    31    29    30    2
    32    29    32    1
    33    32    33    1
    34    33    34    1
    35    34    35   ar
    36    35    36   ar
    37    36    37   ar
    38    37    38   ar
    39     1    46    1
    40    46    47    1
    41    47    48   ar
    42    48    49   ar
    43    49    50   ar
    44    50    51   ar
    45    51    52   ar
    46    16    17   ar
    47    17    18   ar
    48    18    14   ar
    49    45    40   ar
    50    38    34   ar
    51    52    47   ar
    52    11    12    1
    53    23    24    1
    54     4     5    1
    55    28    31    1
