@<TRIPOS>MOLECULE
*****
 36 39 0 0 0
SMALL
GASTEIGER

@<TRIPOS>ATOM
      1 C           3.3367    2.7611   19.1563 C.ar    1  UNL1       -0.0036
      2 C           2.8493    4.1793   19.1911 C.ar    1  UNL1       -0.0030
      3 C           1.4109    4.4855   18.8954 C.ar    1  UNL1       -0.0042
      4 C           0.4600    3.3735   18.5650 C.ar    1  UNL1       -0.0173
      5 C           0.9473    1.9554   18.5302 C.ar    1  UNL1       -0.0042
      6 C           2.3857    1.6491   18.8258 C.ar    1  UNL1       -0.0027
      7 C           2.8730    0.2309   18.7910 C.ar    1  UNL1       -0.0003
      8 C           3.6959   -0.2511   17.6332 C.ar    1  UNL1       -0.0001
      9 C           4.1833   -1.6693   17.5984 C.ar    1  UNL1        0.0039
     10 C           3.8478   -2.6054   18.7214 C.ar    1  UNL1        0.0714
     11 C           3.0249   -2.1234   19.8792 C.ar    1  UNL1        0.0039
     12 C           2.5375   -0.7052   19.9141 C.ar    1  UNL1       -0.0001
     13 C           4.3352   -4.0236   18.6866 C.3     1  UNL1        0.4186
     14 F           4.8226   -5.4418   18.6517 F       1  UNL1       -0.1659
     15 F           5.7120   -3.5419   18.3370 F       1  UNL1       -0.1659
     16 F           2.9583   -4.5054   19.0361 F       1  UNL1       -0.1659
     17 C          -0.9784    3.6797   18.2694 C.3     1  UNL1        0.0588
     18 C          -1.4085    3.9760   16.8632 C.3     1  UNL1        0.0106
     19 C          -1.9867    3.6897   19.3799 C.2     1  UNL1        0.0540
     20 O          -3.1163    4.6764   19.3585 O.co2   1  UNL1       -0.5488
     21 O          -1.8654    2.7129   20.5117 O.co2   1  UNL1       -0.5488
     22 C           4.7750    2.4549   19.4519 C.3     1  UNL1        0.1030
     23 C           9.1070    4.8013   16.0272 C.3     1  UNL1        0.0001
     24 C           8.0239    4.2147   16.8834 C.3     1  UNL1        0.0028
     25 C           6.9924    3.3121   16.2741 C.3     1  UNL1        0.0174
     26 C           5.9093    2.7255   17.1303 C.3     1  UNL1        0.0726
     27 N           5.8579    3.0415   18.5957 N.3     1  UNL1       -0.2669
     28 C           6.8896    3.9440   19.2050 C.3     1  UNL1        0.0726
     29 C           7.9726    4.5306   18.3488 C.3     1  UNL1        0.0174
     30 C           5.1303    1.5621   20.6037 C.ar    1  UNL1       -0.0035
     31 C           6.1107    0.4433   20.4108 C.ar    1  UNL1       -0.0003
     32 C           6.4660   -0.4495   21.5626 C.ar    1  UNL1        0.0294
     33 C           5.8410   -0.2235   22.9073 C.ar    1  UNL1        0.1401
     34 F           6.1964   -1.1163   24.0591 F       1  UNL1       -0.2042
     35 C           4.8607    0.8953   23.1002 C.ar    1  UNL1        0.0294
     36 C           4.5054    1.7881   21.9484 C.ar    1  UNL1       -0.0003
@<TRIPOS>UNITY_ATOM_ATTR
20 1
charge -1
@<TRIPOS>BOND
     1    23    24    1
     2    24    25    1
     3    25    26    1
     4    26    27    1
     5    22    27    1
     6    22    30    1
     7    30    31   ar
     8    31    32   ar
     9    32    33   ar
    10    33    34    1
    11    33    35   ar
    12    35    36   ar
    13    22     1    1
    14     1     2   ar
    15     2     3   ar
    16     3     4   ar
    17     4    17    1
    18    17    18    1
    19    17    19    1
    20    19    20   ar
    21    19    21   ar
    22     4     5   ar
    23     5     6   ar
    24     6     7    1
    25     7     8   ar
    26     8     9   ar
    27     9    10   ar
    28    10    13    1
    29    13    14    1
    30    13    15    1
    31    13    16    1
    32    10    11   ar
    33    11    12   ar
    34    27    28    1
    35    28    29    1
    36    29    24    1
    37    36    30   ar
    38     6     1   ar
    39    12     7   ar
@<TRIPOS>MOLECULE
*****
 36 39 0 0 0
SMALL
GASTEIGER

@<TRIPOS>ATOM
      1 C           3.2895    2.7456   19.2354 C.ar    1  UNL1       -0.0036
      2 C           2.7968    4.1615   19.2849 C.ar    1  UNL1       -0.0030
      3 C           1.3602    4.4668   18.9799 C.ar    1  UNL1       -0.0042
      4 C           0.4163    3.3563   18.6254 C.ar    1  UNL1       -0.0173
      5 C           0.9090    1.9404   18.5759 C.ar    1  UNL1       -0.0042
      6 C           2.3455    1.6350   18.8809 C.ar    1  UNL1       -0.0027
      7 C           2.8382    0.2191   18.8315 C.ar    1  UNL1       -0.0003
      8 C           3.6514   -0.2516   17.6623 C.ar    1  UNL1       -0.0001
      9 C           4.1441   -1.6676   17.6128 C.ar    1  UNL1        0.0039
     10 C           3.8235   -2.6128   18.7325 C.ar    1  UNL1        0.0714
     11 C           3.0103   -2.1420   19.9018 C.ar    1  UNL1        0.0039
     12 C           2.5176   -0.7261   19.9513 C.ar    1  UNL1       -0.0001
     13 C           4.3162   -4.0287   18.6830 C.3     1  UNL1        0.4186
     14 F           4.8089   -5.4446   18.6336 F       1  UNL1       -0.1659
     15 F           2.9433   -4.5187   19.0366 F       1  UNL1       -0.1659
     16 F           5.6891   -3.5386   18.3295 F       1  UNL1       -0.1659
     17 C          -1.0203    3.6616   18.3204 C.3     1  UNL1        0.0588
     18 C          -1.4400    3.9650   16.9126 C.3     1  UNL1        0.0106
     19 C          -2.0371    3.6635   19.4231 C.2     1  UNL1        0.0540
     20 O          -1.9120    2.6935   20.5604 O.co2   1  UNL1       -0.5488
     21 O          -3.1790    4.6355   19.3885 O.co2   1  UNL1       -0.5488
     22 C           4.7260    2.4403   19.5404 C.3     1  UNL1        0.1030
     23 C           6.1161   -1.1941   24.1076 C.3     1  UNL1        0.0001
     24 C           5.7686   -0.2855   22.9658 C.3     1  UNL1        0.0028
     25 C           6.3944   -0.4998   21.6196 C.3     1  UNL1        0.0174
     26 C           6.0469    0.4088   20.4777 C.3     1  UNL1        0.0726
     27 N           5.0735    1.5317   20.6822 N.3     1  UNL1       -0.2669
     28 C           4.4477    1.7459   22.0285 C.3     1  UNL1        0.0726
     29 C           4.7952    0.8373   23.1702 C.3     1  UNL1        0.0174
     30 C           5.8150    3.0435   18.7037 C.ar    1  UNL1       -0.0035
     31 C           5.8649    2.7731   17.2291 C.ar    1  UNL1       -0.0003
     32 C           6.9539    3.3763   16.3924 C.ar    1  UNL1        0.0294
     33 C           7.9931    4.2500   17.0302 C.ar    1  UNL1        0.1401
     34 F           9.0821    4.8532   16.1934 F       1  UNL1       -0.2042
     35 C           7.9432    4.5203   18.5047 C.ar    1  UNL1        0.0294
     36 C           6.8542    3.9171   19.3415 C.ar    1  UNL1       -0.0003
@<TRIPOS>UNITY_ATOM_ATTR
20 1
charge -1
@<TRIPOS>BOND
     1    23    24    1
     2    24    25    1
     3    25    26    1
     4    26    27    1
     5    22    27    1
     6    22    30    1
     7    30    31   ar
     8    31    32   ar
     9    32    33   ar
    10    33    34    1
    11    33    35   ar
    12    35    36   ar
    13    22     1    1
    14     1     2   ar
    15     2     3   ar
    16     3     4   ar
    17     4    17    1
    18    17    18    1
    19    17    19    1
    20    19    20   ar
    21    19    21   ar
    22     4     5   ar
    23     5     6   ar
    24     6     7    1
    25     7     8   ar
    26     8     9   ar
    27     9    10   ar
    28    10    13    1
    29    13    14    1
    30    13    15    1
    31    13    16    1
    32    10    11   ar
    33    11    12   ar
    34    27    28    1
    35    28    29    1
    36    29    24    1
    37    36    30   ar
    38     6     1   ar
    39    12     7   ar
@<TRIPOS>MOLECULE
*****
 36 39 0 0 0
SMALL
GASTEIGER

@<TRIPOS>ATOM
      1 C           2.6703    1.9633   21.8635 C.ar    1  UNL1       -0.0036
      2 C           2.2583    3.1321   22.7086 C.ar    1  UNL1       -0.0030
      3 C           1.8012    2.9127   24.1204 C.ar    1  UNL1       -0.0042
      4 C           1.7561    1.5246   24.6870 C.ar    1  UNL1       -0.0173
      5 C           2.1681    0.3558   23.8419 C.ar    1  UNL1       -0.0042
      6 C           2.6252    0.5751   22.4302 C.ar    1  UNL1       -0.0027
      7 C           3.0372   -0.5937   21.5851 C.ar    1  UNL1       -0.0003
      8 C           4.2937   -1.3466   21.9078 C.ar    1  UNL1       -0.0001
      9 C           4.7058   -2.5154   21.0627 C.ar    1  UNL1        0.0039
     10 C           3.8612   -2.9313   19.8949 C.ar    1  UNL1        0.0714
     11 C           2.6046   -2.1783   19.5722 C.ar    1  UNL1        0.0039
     12 C           2.1926   -1.0095   20.4172 C.ar    1  UNL1       -0.0001
     13 C           4.2733   -4.1001   19.0499 C.3     1  UNL1        0.4186
     14 F           4.6853   -5.2689   18.2048 F       1  UNL1       -0.1659
     15 F           5.6944   -3.6211   19.0803 F       1  UNL1       -0.1659
     16 F           2.8521   -4.5790   19.0194 F       1  UNL1       -0.1659
     17 C           1.2991    1.3052   26.0988 C.3     1  UNL1        0.0588
     18 C           2.3063    1.0722   27.1855 C.3     1  UNL1        0.0106
     19 C          -0.1652    1.3189   26.4237 C.2     1  UNL1        0.0540
     20 O          -0.6770    0.5591   27.6114 O.co2   1  UNL1       -0.5488
     21 O          -1.1177    2.0924   25.5609 O.co2   1  UNL1       -0.5488
     22 C           3.1273    2.1826   20.4518 C.3     1  UNL1        0.1030
     23 C          -0.5026    4.8788   16.5079 C.3     1  UNL1        0.0001
     24 C           0.4049    4.2047   17.4939 C.3     1  UNL1        0.0028
     25 C           0.0049    2.8962   18.1085 C.3     1  UNL1        0.0174
     26 C           0.9124    2.2221   19.0945 C.3     1  UNL1        0.0726
     27 N           2.2198    2.8566   19.4658 N.3     1  UNL1       -0.2669
     28 C           2.6198    4.1652   18.8512 C.3     1  UNL1        0.0726
     29 C           1.7124    4.8392   17.8653 C.3     1  UNL1        0.0174
     30 C           4.4919    1.7278   20.0260 C.ar    1  UNL1       -0.0035
     31 C           5.6800    2.0010   20.8999 C.ar    1  UNL1       -0.0003
     32 C           7.0445    1.5463   20.4741 C.ar    1  UNL1        0.0294
     33 C           7.2209    0.8184   19.1745 C.ar    1  UNL1        0.1401
     34 F           8.5855    0.3637   18.7487 F       1  UNL1       -0.2042
     35 C           6.0328    0.5452   18.3006 C.ar    1  UNL1        0.0294
     36 C           4.6682    1.0000   18.7264 C.ar    1  UNL1       -0.0003
@<TRIPOS>UNITY_ATOM_ATTR
20 1
charge -1
@<TRIPOS>BOND
     1    23    24    1
     2    24    25    1
     3    25    26    1
     4    26    27    1
     5    22    27    1
     6    22    30    1
     7    30    31   ar
     8    31    32   ar
     9    32    33   ar
    10    33    34    1
    11    33    35   ar
    12    35    36   ar
    13    22     1    1
    14     1     2   ar
    15     2     3   ar
    16     3     4   ar
    17     4    17    1
    18    17    18    1
    19    17    19    1
    20    19    20   ar
    21    19    21   ar
    22     4     5   ar
    23     5     6   ar
    24     6     7    1
    25     7     8   ar
    26     8     9   ar
    27     9    10   ar
    28    10    13    1
    29    13    14    1
    30    13    15    1
    31    13    16    1
    32    10    11   ar
    33    11    12   ar
    34    27    28    1
    35    28    29    1
    36    29    24    1
    37    36    30   ar
    38     6     1   ar
    39    12     7   ar
@<TRIPOS>MOLECULE
*****
 36 39 0 0 0
SMALL
GASTEIGER

@<TRIPOS>ATOM
      1 C           2.7627    1.9267   21.9128 C.ar    1  UNL1       -0.0036
      2 C           2.3583    3.0948   22.7624 C.ar    1  UNL1       -0.0030
      3 C           1.8780    2.8708   24.1658 C.ar    1  UNL1       -0.0042
      4 C           1.8022    1.4788   24.7193 C.ar    1  UNL1       -0.0173
      5 C           2.2066    0.3107   23.8697 C.ar    1  UNL1       -0.0042
      6 C           2.6869    0.5346   22.4664 C.ar    1  UNL1       -0.0027
      7 C           3.0913   -0.6335   21.6167 C.ar    1  UNL1       -0.0003
      8 C           4.3437   -1.3949   21.9355 C.ar    1  UNL1       -0.0001
      9 C           4.7481   -2.5630   21.0858 C.ar    1  UNL1        0.0039
     10 C           3.9001   -2.9698   19.9174 C.ar    1  UNL1        0.0714
     11 C           2.6476   -2.2084   19.5985 C.ar    1  UNL1        0.0039
     12 C           2.2432   -1.0403   20.4482 C.ar    1  UNL1       -0.0001
     13 C           4.3045   -4.1379   19.0677 C.3     1  UNL1        0.4186
     14 F           4.7089   -5.3060   18.2180 F       1  UNL1       -0.1659
     15 F           5.7412   -3.7210   19.1783 F       1  UNL1       -0.1659
     16 F           2.8679   -4.5548   18.9570 F       1  UNL1       -0.1659
     17 C           1.3219    1.2548   26.1227 C.3     1  UNL1        0.0588
     18 C           2.3090    0.9816   27.2186 C.3     1  UNL1        0.0106
     19 C          -0.1454    1.3041   26.4301 C.2     1  UNL1        0.0540
     20 O          -1.0744    2.0669   25.5329 O.co2   1  UNL1       -0.5488
     21 O          -0.6836    0.5905   27.6346 O.co2   1  UNL1       -0.5488
     22 C           3.2430    2.1505   20.5095 C.3     1  UNL1        0.1030
     23 C           8.7148    0.3046   18.8811 C.3     1  UNL1        0.0001
     24 C           7.3468    0.7661   19.2882 C.3     1  UNL1        0.0028
     25 C           6.1672    0.4859   18.4051 C.3     1  UNL1        0.0174
     26 C           4.7991    0.9474   18.8122 C.3     1  UNL1        0.0726
     27 N           4.6109    1.6891   20.1024 N.3     1  UNL1       -0.2669
     28 C           5.7907    1.9692   20.9855 C.3     1  UNL1        0.0726
     29 C           7.1586    1.5077   20.5784 C.3     1  UNL1        0.0174
     30 C           2.3553    2.8359   19.5134 C.ar    1  UNL1       -0.0035
     31 C           2.7935    4.1224   18.8787 C.ar    1  UNL1       -0.0003
     32 C           1.9059    4.8078   17.8825 C.ar    1  UNL1        0.0294
     33 C           0.5800    4.2067   17.5211 C.ar    1  UNL1        0.1401
     34 F          -0.3077    4.8921   16.5249 F       1  UNL1       -0.2042
     35 C           0.1418    2.9202   18.1558 C.ar    1  UNL1        0.0294
     36 C           1.0294    2.2348   19.1519 C.ar    1  UNL1       -0.0003
@<TRIPOS>UNITY_ATOM_ATTR
20 1
charge -1
@<TRIPOS>BOND
     1    23    24    1
     2    24    25    1
     3    25    26    1
     4    26    27    1
     5    22    27    1
     6    22    30    1
     7    30    31   ar
     8    31    32   ar
     9    32    33   ar
    10    33    34    1
    11    33    35   ar
    12    35    36   ar
    13    22     1    1
    14     1     2   ar
    15     2     3   ar
    16     3     4   ar
    17     4    17    1
    18    17    18    1
    19    17    19    1
    20    19    20   ar
    21    19    21   ar
    22     4     5   ar
    23     5     6   ar
    24     6     7    1
    25     7     8   ar
    26     8     9   ar
    27     9    10   ar
    28    10    13    1
    29    13    14    1
    30    13    15    1
    31    13    16    1
    32    10    11   ar
    33    11    12   ar
    34    27    28    1
    35    28    29    1
    36    29    24    1
    37    36    30   ar
    38     6     1   ar
    39    12     7   ar
@<TRIPOS>MOLECULE
*****
 36 39 0 0 0
SMALL
GASTEIGER

@<TRIPOS>ATOM
      1 C           2.5083    2.7056   20.1227 C.ar    1  UNL1       -0.0036
      2 C           1.9096    4.0723   20.2769 C.ar    1  UNL1       -0.0030
      3 C           0.6992    4.4553   19.4780 C.ar    1  UNL1       -0.0042
      4 C           0.0875    3.4717   18.5250 C.ar    1  UNL1       -0.0173
      5 C           0.6862    2.1050   18.3708 C.ar    1  UNL1       -0.0042
      6 C           1.8965    1.7219   19.1696 C.ar    1  UNL1       -0.0027
      7 C           2.4952    0.3553   19.0155 C.ar    1  UNL1       -0.0003
      8 C           3.3187    0.0294   17.8048 C.ar    1  UNL1       -0.0001
      9 C           3.9174   -1.3373   17.6507 C.ar    1  UNL1        0.0039
     10 C           3.6926   -2.3781   18.7071 C.ar    1  UNL1        0.0714
     11 C           2.8691   -2.0523   19.9178 C.ar    1  UNL1        0.0039
     12 C           2.2704   -0.6856   20.0720 C.ar    1  UNL1       -0.0001
     13 C           4.2913   -3.7448   18.5529 C.3     1  UNL1        0.4186
     14 F           4.8899   -5.1115   18.3987 F       1  UNL1       -0.1659
     15 F           3.0014   -4.3611   19.0072 F       1  UNL1       -0.1659
     16 F           5.5811   -3.1285   18.0986 F       1  UNL1       -0.1659
     17 C          -1.1230    3.8547   17.7261 C.3     1  UNL1        0.0588
     18 C          -0.9706    4.3081   16.3044 C.3     1  UNL1        0.0106
     19 C          -2.4857    3.7844   18.3489 C.2     1  UNL1        0.0540
     20 O          -2.6248    3.5599   19.8255 O.co2   1  UNL1       -0.5488
     21 O          -3.7093    3.9385   17.4951 O.co2   1  UNL1       -0.5488
     22 C           3.7187    2.3225   20.9216 C.3     1  UNL1        0.1030
     23 C           3.4587    2.2540   26.9156 C.3     1  UNL1        0.0001
     24 C           3.5237    2.2712   25.4170 C.3     1  UNL1        0.0028
     25 C           4.5067    3.1636   24.7191 C.3     1  UNL1        0.0174
     26 C           4.5718    3.1807   23.2206 C.3     1  UNL1        0.0726
     27 N           3.6537    2.3054   22.4200 N.3     1  UNL1       -0.2669
     28 C           2.6706    1.4129   23.1180 C.3     1  UNL1        0.0726
     29 C           2.6056    1.3958   24.6164 C.3     1  UNL1        0.0174
     30 C           4.9941    1.9565   20.2219 C.ar    1  UNL1       -0.0035
     31 C           5.5240    2.8295   19.1233 C.ar    1  UNL1       -0.0003
     32 C           6.7994    2.4635   18.4237 C.ar    1  UNL1        0.0294
     33 C           7.5448    1.2246   18.8227 C.ar    1  UNL1        0.1401
     34 F           8.8202    0.8586   18.1230 F       1  UNL1       -0.2042
     35 C           7.0149    0.3516   19.9213 C.ar    1  UNL1        0.0294
     36 C           5.7395    0.7176   20.6209 C.ar    1  UNL1       -0.0003
@<TRIPOS>UNITY_ATOM_ATTR
20 1
charge -1
@<TRIPOS>BOND
     1    23    24    1
     2    24    25    1
     3    25    26    1
     4    26    27    1
     5    22    27    1
     6    22    30    1
     7    30    31   ar
     8    31    32   ar
     9    32    33   ar
    10    33    34    1
    11    33    35   ar
    12    35    36   ar
    13    22     1    1
    14     1     2   ar
    15     2     3   ar
    16     3     4   ar
    17     4    17    1
    18    17    18    1
    19    17    19    1
    20    19    20   ar
    21    19    21   ar
    22     4     5   ar
    23     5     6   ar
    24     6     7    1
    25     7     8   ar
    26     8     9   ar
    27     9    10   ar
    28    10    13    1
    29    13    14    1
    30    13    15    1
    31    13    16    1
    32    10    11   ar
    33    11    12   ar
    34    27    28    1
    35    28    29    1
    36    29    24    1
    37    36    30   ar
    38     6     1   ar
    39    12     7   ar
@<TRIPOS>MOLECULE
*****
 36 39 0 0 0
SMALL
GASTEIGER

@<TRIPOS>ATOM
      1 C           3.4895    0.1568   20.2590 C.ar    1  UNL1       -0.0036
      2 C           2.4957    1.0955   19.6416 C.ar    1  UNL1       -0.0030
      3 C           1.4857    1.7922   20.5045 C.ar    1  UNL1       -0.0042
      4 C           1.4695    1.5502   21.9847 C.ar    1  UNL1       -0.0173
      5 C           2.4632    0.6115   22.6021 C.ar    1  UNL1       -0.0042
      6 C           3.4732   -0.0852   21.7393 C.ar    1  UNL1       -0.0027
      7 C           4.4670   -1.0240   22.3567 C.ar    1  UNL1       -0.0003
      8 C           4.0543   -2.4191   22.7219 C.ar    1  UNL1       -0.0001
      9 C           5.0481   -3.3578   23.3393 C.ar    1  UNL1        0.0039
     10 C           6.4545   -2.9014   23.5915 C.ar    1  UNL1        0.0714
     11 C           6.8673   -1.5063   23.2263 C.ar    1  UNL1        0.0039
     12 C           5.8735   -0.5675   22.6089 C.ar    1  UNL1       -0.0001
     13 C           7.4483   -3.8402   24.2089 C.3     1  UNL1        0.4186
     14 F           8.4421   -4.7789   24.8263 F       1  UNL1       -0.1659
     15 F           7.4967   -2.9809   25.4375 F       1  UNL1       -0.1659
     16 F           7.3999   -4.6994   22.9804 F       1  UNL1       -0.1659
     17 C           0.4594    2.2469   22.8476 C.3     1  UNL1        0.0588
     18 C          -0.6786    2.9931   22.2168 C.3     1  UNL1        0.0106
     19 C           0.5875    2.1974   24.3413 C.2     1  UNL1        0.0540
     20 O          -0.0326    1.0687   25.1102 O.co2   1  UNL1       -0.5488
     21 O           1.3358    3.2767   25.0660 O.co2   1  UNL1       -0.5488
     22 C           4.4994   -0.5399   19.3962 C.3     1  UNL1        0.1030
     23 C           8.5124    2.6632   16.2918 C.3     1  UNL1        0.0001
     24 C           7.5091    1.8624   17.0680 C.3     1  UNL1        0.0028
     25 C           7.4495    1.9802   18.5621 C.3     1  UNL1        0.0174
     26 C           6.4463    1.1795   19.3382 C.3     1  UNL1        0.0726
     27 N           5.5026    0.2608   18.6201 N.3     1  UNL1       -0.2669
     28 C           5.5622    0.1430   17.1259 C.3     1  UNL1        0.0726
     29 C           6.5655    0.9438   16.3498 C.3     1  UNL1        0.0174
     30 C           4.5062   -2.0374   19.3094 C.ar    1  UNL1       -0.0035
     31 C           3.2187   -2.7835   19.1206 C.ar    1  UNL1       -0.0003
     32 C           3.2255   -4.2810   19.0339 C.ar    1  UNL1        0.0294
     33 C           4.5197   -5.0323   19.1358 C.ar    1  UNL1        0.1401
     34 F           4.5265   -6.5298   19.0491 F       1  UNL1       -0.2042
     35 C           5.8072   -4.2862   19.3246 C.ar    1  UNL1        0.0294
     36 C           5.8004   -2.7887   19.4114 C.ar    1  UNL1       -0.0003
@<TRIPOS>UNITY_ATOM_ATTR
20 1
charge -1
@<TRIPOS>BOND
     1    23    24    1
     2    24    25    1
     3    25    26    1
     4    26    27    1
     5    22    27    1
     6    22    30    1
     7    30    31   ar
     8    31    32   ar
     9    32    33   ar
    10    33    34    1
    11    33    35   ar
    12    35    36   ar
    13    22     1    1
    14     1     2   ar
    15     2     3   ar
    16     3     4   ar
    17     4    17    1
    18    17    18    1
    19    17    19    1
    20    19    20   ar
    21    19    21   ar
    22     4     5   ar
    23     5     6   ar
    24     6     7    1
    25     7     8   ar
    26     8     9   ar
    27     9    10   ar
    28    10    13    1
    29    13    14    1
    30    13    15    1
    31    13    16    1
    32    10    11   ar
    33    11    12   ar
    34    27    28    1
    35    28    29    1
    36    29    24    1
    37    36    30   ar
    38     6     1   ar
    39    12     7   ar
@<TRIPOS>MOLECULE
*****
 36 39 0 0 0
SMALL
GASTEIGER

@<TRIPOS>ATOM
      1 C           1.6107    5.0371   36.3417 C.ar    1  UNL1       -0.0036
      2 C           0.5650    6.0902   36.5593 C.ar    1  UNL1       -0.0030
      3 C          -0.2152    6.6242   35.3947 C.ar    1  UNL1       -0.0042
      4 C           0.0502    6.1051   34.0127 C.ar    1  UNL1       -0.0173
      5 C           1.0959    5.0519   33.7952 C.ar    1  UNL1       -0.0042
      6 C           1.8762    4.5179   34.9597 C.ar    1  UNL1       -0.0027
      7 C           2.9219    3.4647   34.7421 C.ar    1  UNL1       -0.0003
      8 C           4.3753    3.8135   34.8683 C.ar    1  UNL1       -0.0001
      9 C           5.4210    2.7604   34.6508 C.ar    1  UNL1        0.0039
     10 C           5.0133    1.3584   34.3071 C.ar    1  UNL1        0.0714
     11 C           3.5599    1.0095   34.1809 C.ar    1  UNL1        0.0039
     12 C           2.5141    2.0627   34.3984 C.ar    1  UNL1       -0.0001
     13 C           6.0590    0.3052   34.0896 C.3     1  UNL1        0.4186
     14 F           7.1047   -0.7480   33.8720 F       1  UNL1       -0.1659
     15 F           6.9283    1.3116   33.3957 F       1  UNL1       -0.1659
     16 F           5.1897   -0.7012   34.7834 F       1  UNL1       -0.1659
     17 C          -0.7300    6.6391   32.8482 C.3     1  UNL1        0.0588
     18 C          -2.1770    6.9969   33.0157 C.3     1  UNL1        0.0106
     19 C          -0.0632    6.8153   31.5162 C.2     1  UNL1        0.0540
     20 O          -0.6032    6.1093   30.3079 O.co2   1  UNL1       -0.5488
     21 O           1.1436    7.6975   31.3924 O.co2   1  UNL1       -0.5488
     22 C           2.3910    4.5031   37.5062 C.3     1  UNL1        0.1030
     23 C           6.9040    7.7110   39.8175 C.3     1  UNL1        0.0001
     24 C           5.7757    6.9090   39.2397 C.3     1  UNL1        0.0028
     25 C           5.1333    5.8243   40.0525 C.3     1  UNL1        0.0174
     26 C           4.0050    5.0223   39.4747 C.3     1  UNL1        0.0726
     27 N           3.5192    5.3050   38.0840 N.3     1  UNL1       -0.2669
     28 C           4.1616    6.3897   37.2712 C.3     1  UNL1        0.0726
     29 C           5.2899    7.1917   37.8490 C.3     1  UNL1        0.0174
     30 C           2.0430    3.1671   38.0928 C.ar    1  UNL1       -0.0035
     31 C           0.7358    2.9777   38.8037 C.ar    1  UNL1       -0.0003
     32 C           0.3878    1.6417   39.3904 C.ar    1  UNL1        0.0294
     33 C           1.3470    0.4952   39.2661 C.ar    1  UNL1        0.1401
     34 F           0.9990   -0.8407   39.8527 F       1  UNL1       -0.2042
     35 C           2.6541    0.6847   38.5552 C.ar    1  UNL1        0.0294
     36 C           3.0021    2.0206   37.9686 C.ar    1  UNL1       -0.0003
@<TRIPOS>UNITY_ATOM_ATTR
20 1
charge -1
@<TRIPOS>BOND
     1    23    24    1
     2    24    25    1
     3    25    26    1
     4    26    27    1
     5    22    27    1
     6    22    30    1
     7    30    31   ar
     8    31    32   ar
     9    32    33   ar
    10    33    34    1
    11    33    35   ar
    12    35    36   ar
    13    22     1    1
    14     1     2   ar
    15     2     3   ar
    16     3     4   ar
    17     4    17    1
    18    17    18    1
    19    17    19    1
    20    19    20   ar
    21    19    21   ar
    22     4     5   ar
    23     5     6   ar
    24     6     7    1
    25     7     8   ar
    26     8     9   ar
    27     9    10   ar
    28    10    13    1
    29    13    14    1
    30    13    15    1
    31    13    16    1
    32    10    11   ar
    33    11    12   ar
    34    27    28    1
    35    28    29    1
    36    29    24    1
    37    36    30   ar
    38     6     1   ar
    39    12     7   ar
@<TRIPOS>MOLECULE
*****
 36 39 0 0 0
SMALL
GASTEIGER

@<TRIPOS>ATOM
      1 C           4.9498   -0.1100   24.7540 C.ar    1  UNL1       -0.0036
      2 C           4.7735    0.8307   25.9090 C.ar    1  UNL1       -0.0030
      3 C           3.4029    1.3143   26.2800 C.ar    1  UNL1       -0.0042
      4 C           2.2086    0.8571   25.4960 C.ar    1  UNL1       -0.0173
      5 C           2.3849   -0.0836   24.3410 C.ar    1  UNL1       -0.0042
      6 C           3.7554   -0.5672   23.9700 C.ar    1  UNL1       -0.0027
      7 C           3.9317   -1.5079   22.8150 C.ar    1  UNL1       -0.0003
      8 C           4.2902   -2.9428   23.0645 C.ar    1  UNL1       -0.0001
      9 C           4.4665   -3.8835   21.9095 C.ar    1  UNL1        0.0039
     10 C           4.2842   -3.3893   20.5051 C.ar    1  UNL1        0.0714
     11 C           3.9257   -1.9542   20.2556 C.ar    1  UNL1        0.0039
     12 C           3.7494   -1.0135   21.4105 C.ar    1  UNL1       -0.0001
     13 C           4.4605   -4.3300   19.3501 C.3     1  UNL1        0.4186
     14 F           4.6368   -5.2707   18.1951 F       1  UNL1       -0.1659
     15 F           5.9243   -4.4359   19.6597 F       1  UNL1       -0.1659
     16 F           2.9966   -4.2241   19.0404 F       1  UNL1       -0.1659
     17 C           0.8380    1.3407   25.8670 C.3     1  UNL1        0.0588
     18 C          -0.1377    1.7248   24.7943 C.3     1  UNL1        0.0106
     19 C           0.4430    1.4402   27.3106 C.2     1  UNL1        0.0540
     20 O           0.6245    0.2618   28.2208 O.co2   1  UNL1       -0.5488
     21 O          -0.1334    2.7181   27.8441 O.co2   1  UNL1       -0.5488
     22 C           6.3204   -0.5936   24.3830 C.3     1  UNL1        0.1030
     23 C           9.5354   -3.7972   28.3074 C.3     1  UNL1        0.0001
     24 C           8.7317   -2.9963   27.3262 C.3     1  UNL1        0.0028
     25 C           9.2772   -1.7086   26.7838 C.3     1  UNL1        0.0174
     26 C           8.4734   -0.9077   25.8027 C.3     1  UNL1        0.0726
     27 N           7.1241   -1.3945   25.3641 N.3     1  UNL1       -0.2669
     28 C           6.5786   -2.6822   25.9065 C.3     1  UNL1        0.0726
     29 C           7.3824   -3.4831   26.8876 C.3     1  UNL1        0.0174
     30 C           6.8871   -0.2763   23.0309 C.ar    1  UNL1       -0.0035
     31 C           7.5342   -1.3571   22.2165 C.ar    1  UNL1       -0.0003
     32 C           8.1010   -1.0398   20.8644 C.ar    1  UNL1        0.0294
     33 C           8.0207    0.3582   20.3268 C.ar    1  UNL1        0.1401
     34 F           8.5875    0.6755   18.9747 F       1  UNL1       -0.2042
     35 C           7.3737    1.4390   21.1412 C.ar    1  UNL1        0.0294
     36 C           6.8069    1.1217   22.4933 C.ar    1  UNL1       -0.0003
@<TRIPOS>UNITY_ATOM_ATTR
20 1
charge -1
@<TRIPOS>BOND
     1    23    24    1
     2    24    25    1
     3    25    26    1
     4    26    27    1
     5    22    27    1
     6    22    30    1
     7    30    31   ar
     8    31    32   ar
     9    32    33   ar
    10    33    34    1
    11    33    35   ar
    12    35    36   ar
    13    22     1    1
    14     1     2   ar
    15     2     3   ar
    16     3     4   ar
    17     4    17    1
    18    17    18    1
    19    17    19    1
    20    19    20   ar
    21    19    21   ar
    22     4     5   ar
    23     5     6   ar
    24     6     7    1
    25     7     8   ar
    26     8     9   ar
    27     9    10   ar
    28    10    13    1
    29    13    14    1
    30    13    15    1
    31    13    16    1
    32    10    11   ar
    33    11    12   ar
    34    27    28    1
    35    28    29    1
    36    29    24    1
    37    36    30   ar
    38     6     1   ar
    39    12     7   ar
@<TRIPOS>MOLECULE
*****
 36 39 0 0 0
SMALL
GASTEIGER

@<TRIPOS>ATOM
      1 C           3.4345    0.4421   21.7929 C.ar    1  UNL1       -0.0036
      2 C           2.3328    1.4588   21.7418 C.ar    1  UNL1       -0.0030
      3 C           1.5221    1.7487   22.9702 C.ar    1  UNL1       -0.0042
      4 C           1.8132    1.0218   24.2496 C.ar    1  UNL1       -0.0173
      5 C           2.9148    0.0051   24.3008 C.ar    1  UNL1       -0.0042
      6 C           3.7255   -0.2848   23.0725 C.ar    1  UNL1       -0.0027
      7 C           4.8271   -1.3015   23.1236 C.ar    1  UNL1       -0.0003
      8 C           4.5001   -2.7647   23.0782 C.ar    1  UNL1       -0.0001
      9 C           5.6018   -3.7814   23.1293 C.ar    1  UNL1        0.0039
     10 C           7.0305   -3.3349   23.2258 C.ar    1  UNL1        0.0714
     11 C           7.3576   -1.8717   23.2712 C.ar    1  UNL1        0.0039
     12 C           6.2559   -0.8550   23.2201 C.ar    1  UNL1       -0.0001
     13 C           8.1321   -4.3516   23.2769 C.3     1  UNL1        0.4186
     14 F           9.2338   -5.3684   23.3281 F       1  UNL1       -0.1659
     15 F           7.2978   -5.2102   24.1806 F       1  UNL1       -0.1659
     16 F           8.9665   -3.4930   22.3732 F       1  UNL1       -0.1659
     17 C           1.0025    1.3117   25.4780 C.3     1  UNL1        0.0588
     18 C          -0.4529    1.6525   25.3530 C.3     1  UNL1        0.0106
     19 C           1.6472    1.2608   26.8314 C.2     1  UNL1        0.0540
     20 O           2.9248    2.0058   27.0821 O.co2   1  UNL1       -0.5488
     21 O           1.0145    0.4648   27.9341 O.co2   1  UNL1       -0.5488
     22 C           4.2451    0.1522   20.5646 C.3     1  UNL1        0.1030
     23 C           4.7232   -5.4776   18.5455 C.3     1  UNL1        0.0001
     24 C           4.6037   -4.0701   19.0503 C.3     1  UNL1        0.0028
     25 C           5.8363   -3.2417   19.2610 C.3     1  UNL1        0.0174
     26 C           5.7168   -1.8342   19.7658 C.3     1  UNL1        0.0726
     27 N           4.3647   -1.2552   20.0599 N.3     1  UNL1       -0.2669
     28 C           3.1320   -2.0837   19.8492 C.3     1  UNL1        0.0726
     29 C           3.2516   -3.4911   19.3444 C.3     1  UNL1        0.0174
     30 C           4.9362    1.2697   19.8411 C.ar    1  UNL1       -0.0035
     31 C           6.0493    2.0208   20.5095 C.ar    1  UNL1       -0.0003
     32 C           6.7404    3.1383   19.7860 C.ar    1  UNL1        0.0294
     33 C           6.3184    3.5048   18.3940 C.ar    1  UNL1        0.1401
     34 F           7.0095    4.6223   17.6705 F       1  UNL1       -0.2042
     35 C           5.2053    2.7537   17.7256 C.ar    1  UNL1        0.0294
     36 C           4.5142    1.6362   18.4492 C.ar    1  UNL1       -0.0003
@<TRIPOS>UNITY_ATOM_ATTR
20 1
charge -1
@<TRIPOS>BOND
     1    23    24    1
     2    24    25    1
     3    25    26    1
     4    26    27    1
     5    22    27    1
     6    22    30    1
     7    30    31   ar
     8    31    32   ar
     9    32    33   ar
    10    33    34    1
    11    33    35   ar
    12    35    36   ar
    13    22     1    1
    14     1     2   ar
    15     2     3   ar
    16     3     4   ar
    17     4    17    1
    18    17    18    1
    19    17    19    1
    20    19    20   ar
    21    19    21   ar
    22     4     5   ar
    23     5     6   ar
    24     6     7    1
    25     7     8   ar
    26     8     9   ar
    27     9    10   ar
    28    10    13    1
    29    13    14    1
    30    13    15    1
    31    13    16    1
    32    10    11   ar
    33    11    12   ar
    34    27    28    1
    35    28    29    1
    36    29    24    1
    37    36    30   ar
    38     6     1   ar
    39    12     7   ar
