@<TRIPOS>MOLECULE
*****
 36 40 0 0 0
SMALL
GASTEIGER

@<TRIPOS>ATOM
      1 C           8.0372   -5.4126   25.3497 C.2     1  UNL1        0.2553
      2 O           9.2958   -6.2041   25.1507 O.2     1  UNL1       -0.2720
      3 N           7.4194   -4.6831   24.1939 N.am    1  UNL1       -0.2773
      4 C           8.0600   -4.7450   22.8391 C.3     1  UNL1        0.0949
      5 C           7.4421   -4.0154   21.6832 C.3     1  UNL1        0.0375
      6 C           6.1835   -3.2239   21.8823 C.3     1  UNL1        0.0612
      7 C           5.5429   -3.1620   23.2372 C.3     1  UNL1        0.0375
      8 C           6.1608   -3.8916   24.3930 C.3     1  UNL1        0.0949
      9 N           5.5657   -2.4944   20.7265 N.3     1  UNL1       -0.2702
     10 C           6.3890   -2.4437   19.4737 C.3     1  UNL1        0.0727
     11 C           6.0562   -1.7980   18.1612 C.3     1  UNL1        0.0220
     12 C           4.8178   -1.0437   17.7776 C.3     1  UNL1        0.0275
     13 C           3.6063   -0.7486   18.6114 C.ar    1  UNL1       -0.0248
     14 C           2.5886    0.0383   17.8401 C.ar    1  UNL1       -0.0045
     15 C           1.2986    0.4388   18.4924 C.ar    1  UNL1       -0.0003
     16 C           1.0264    0.0524   19.9160 C.ar    1  UNL1       -0.0003
     17 C           2.0441   -0.7345   20.6873 C.ar    1  UNL1       -0.0032
     18 C           3.3341   -1.1350   20.0350 C.ar    1  UNL1       -0.0101
     19 C           4.2061   -1.9120   20.9762 C.3     1  UNL1        0.0988
     20 N           7.5240   -3.7456   29.2358 N.3     1  UNL1       -0.2688
     21 C           6.5633   -4.8919   29.1223 C.3     1  UNL1        0.0756
     22 C           6.4996   -5.6945   27.8567 C.3     1  UNL1        0.0590
     23 C           7.3966   -5.3508   26.7047 C.3     1  UNL1        0.2042
     24 F           6.6584   -6.5186   26.1205 F       1  UNL1       -0.2306
     25 C           8.3573   -4.2044   26.8183 C.3     1  UNL1        0.0590
     26 C           8.4210   -3.4018   28.0839 C.3     1  UNL1        0.0756
     27 C           7.5877   -2.9430   30.5015 C.3     1  UNL1        0.0993
     28 N           3.3163    0.0160   30.5216 N.pl3   1  UNL1       -0.3426
     29 C           4.1862   -1.0141   31.1793 C.ar    1  UNL1        0.1251
     30 C           5.4520   -1.4635   30.5116 C.ar    1  UNL1        0.0310
     31 C           6.3219   -2.4936   31.1691 C.ar    1  UNL1       -0.0018
     32 C           5.9259   -3.0742   32.4943 C.ar    1  UNL1        0.0179
     33 C           4.6601   -2.6248   33.1620 C.ar    1  UNL1        0.1000
     34 N           3.7902   -1.5947   32.5043 N.ar    1  UNL1       -0.2296
     35 H           3.5762    0.3970   29.6519 H       1  UNL1        0.1437
     36 H           2.4855    0.3110   30.9598 H       1  UNL1        0.1437
@<TRIPOS>BOND
     1    28    29    1
     2    29    30   ar
     3    30    31   ar
     4    31    27    1
     5    27    20    1
     6    20    21    1
     7    21    22    1
     8    22    23    1
     9    23    24    1
    10    23     1    1
    11     1     2    2
    12     1     3   am
    13     3     4    1
    14     4     5    1
    15     5     6    1
    16     6     9    1
    17     9    10    1
    18    10    11    1
    19    11    12    1
    20    12    13    1
    21    13    14   ar
    22    14    15   ar
    23    15    16   ar
    24    16    17   ar
    25    17    18   ar
    26    18    19    1
    27     6     7    1
    28     7     8    1
    29    23    25    1
    30    25    26    1
    31    31    32   ar
    32    32    33   ar
    33    33    34   ar
    34    34    29   ar
    35    26    20    1
    36     8     3    1
    37    19     9    1
    38    18    13   ar
    39    28    35    1
    40    28    36    1
@<TRIPOS>MOLECULE
*****
 36 40 0 0 0
SMALL
GASTEIGER

@<TRIPOS>ATOM
      1 C           4.3873   -1.4796   19.6274 C.2     1  UNL1        0.2553
      2 O           5.0740   -1.1481   18.3356 O.2     1  UNL1       -0.2720
      3 N           5.0730   -2.3479   20.6401 N.am    1  UNL1       -0.2773
      4 C           6.4456   -2.8848   20.3612 C.3     1  UNL1        0.0949
      5 C           7.1314   -3.7531   21.3740 C.3     1  UNL1        0.0375
      6 C           6.4446   -4.0845   22.6658 C.3     1  UNL1        0.0612
      7 C           5.0720   -3.5476   22.9446 C.3     1  UNL1        0.0375
      8 C           4.3862   -2.6793   21.9319 C.3     1  UNL1        0.0949
      9 N           7.1304   -4.9528   23.6785 N.3     1  UNL1       -0.2702
     10 C           8.1218   -5.9352   23.1289 C.3     1  UNL1        0.0727
     11 C           8.9618   -6.9313   23.8720 C.3     1  UNL1        0.0220
     12 C           9.0177   -7.1910   25.3483 C.3     1  UNL1        0.0275
     13 C           8.2476   -6.5189   26.4461 C.ar    1  UNL1       -0.0248
     14 C           8.6046   -7.0816   27.7899 C.ar    1  UNL1       -0.0045
     15 C           7.9453   -6.5463   29.0263 C.ar    1  UNL1       -0.0003
     16 C           6.9290   -5.4484   28.9189 C.ar    1  UNL1       -0.0003
     17 C           6.5719   -4.8856   27.5751 C.ar    1  UNL1       -0.0032
     18 C           7.2313   -5.4209   26.3387 C.ar    1  UNL1       -0.0101
     19 C           6.7341   -4.7240   25.1070 C.3     1  UNL1        0.0988
     20 N           1.6485    1.6480   20.5557 N.3     1  UNL1       -0.2688
     21 C           0.8457    0.3867   20.4339 C.3     1  UNL1        0.0756
     22 C           1.5289   -0.9087   20.1092 C.3     1  UNL1        0.0590
     23 C           3.0146   -0.9427   19.9062 C.3     1  UNL1        0.2042
     24 F           2.6887   -2.3904   19.6876 F       1  UNL1       -0.2306
     25 C           3.8174    0.3186   20.0280 C.3     1  UNL1        0.0590
     26 C           3.1342    1.6139   20.3528 C.3     1  UNL1        0.0756
     27 C           0.9653    2.9433   20.8804 C.3     1  UNL1        0.0993
     28 N          -4.2280    2.7981   20.9707 N.pl3   1  UNL1       -0.3426
     29 C          -2.9513    3.2014   20.2943 C.ar    1  UNL1        0.1251
     30 C          -1.6314    2.8707   20.9255 C.ar    1  UNL1        0.0310
     31 C          -0.3546    3.2740   20.2492 C.ar    1  UNL1       -0.0018
     32 C          -0.3979    4.0079   18.9417 C.ar    1  UNL1        0.0179
     33 C          -1.7178    4.3386   18.3105 C.ar    1  UNL1        0.1000
     34 N          -2.9945    3.9353   18.9869 N.ar    1  UNL1       -0.2296
     35 H          -4.1996    2.3164   21.8288 H       1  UNL1        0.1437
     36 H          -5.0944    3.0151   20.5565 H       1  UNL1        0.1437
@<TRIPOS>BOND
     1    28    29    1
     2    29    30   ar
     3    30    31   ar
     4    31    27    1
     5    27    20    1
     6    20    21    1
     7    21    22    1
     8    22    23    1
     9    23    24    1
    10    23     1    1
    11     1     2    2
    12     1     3   am
    13     3     4    1
    14     4     5    1
    15     5     6    1
    16     6     9    1
    17     9    10    1
    18    10    11    1
    19    11    12    1
    20    12    13    1
    21    13    14   ar
    22    14    15   ar
    23    15    16   ar
    24    16    17   ar
    25    17    18   ar
    26    18    19    1
    27     6     7    1
    28     7     8    1
    29    23    25    1
    30    25    26    1
    31    31    32   ar
    32    32    33   ar
    33    33    34   ar
    34    34    29   ar
    35    26    20    1
    36     8     3    1
    37    19     9    1
    38    18    13   ar
    39    28    35    1
    40    28    36    1
@<TRIPOS>MOLECULE
*****
 36 40 0 0 0
SMALL
GASTEIGER

@<TRIPOS>ATOM
      1 C           4.3592   -1.1807   19.9290 C.2     1  UNL1        0.2553
      2 O           5.1282   -0.6625   18.7499 O.2     1  UNL1       -0.2720
      3 N           5.0313   -2.0743   20.9288 N.am    1  UNL1       -0.2773
      4 C           6.4724   -2.4498   20.7497 C.3     1  UNL1        0.0949
      5 C           7.1446   -3.3434   21.7495 C.3     1  UNL1        0.0375
      6 C           6.3755   -3.8615   22.9286 C.3     1  UNL1        0.0612
      7 C           4.9343   -3.4860   23.1077 C.3     1  UNL1        0.0375
      8 C           4.2622   -2.5924   22.1079 C.3     1  UNL1        0.0949
      9 N           7.0475   -4.7551   23.9284 N.3     1  UNL1       -0.2702
     10 C           8.0165   -5.7511   23.3634 C.3     1  UNL1        0.0727
     11 C           8.8391   -6.7725   24.0915 C.3     1  UNL1        0.0220
     12 C           8.8958   -7.0502   25.5645 C.3     1  UNL1        0.0275
     13 C           8.1440   -6.3751   26.6732 C.ar    1  UNL1       -0.0248
     14 C           8.4950   -6.9603   28.0090 C.ar    1  UNL1       -0.0045
     15 C           7.8518   -6.4259   29.2542 C.ar    1  UNL1       -0.0003
     16 C           6.8576   -5.3064   29.1637 C.ar    1  UNL1       -0.0003
     17 C           6.5067   -4.7212   27.8280 C.ar    1  UNL1       -0.0032
     18 C           7.1498   -5.2556   26.5827 C.ar    1  UNL1       -0.0101
     19 C           6.6619   -4.5346   25.3611 C.3     1  UNL1        0.0988
     20 N           1.2446    1.4666   21.1271 N.3     1  UNL1       -0.2688
     21 C           0.5848    0.2321   20.5877 C.3     1  UNL1        0.0756
     22 C           1.4216   -0.9038   20.0783 C.3     1  UNL1        0.0590
     23 C           2.9180   -0.8052   20.1081 C.3     1  UNL1        0.2042
     24 F           2.7588   -2.1701   19.5066 F       1  UNL1       -0.2306
     25 C           3.5777    0.4293   20.6474 C.3     1  UNL1        0.0590
     26 C           2.7410    1.5651   21.1569 C.3     1  UNL1        0.0756
     27 C           0.4078    2.6024   21.6365 C.3     1  UNL1        0.0993
     28 N           0.5011    0.6658   26.4574 N.pl3   1  UNL1       -0.3426
     29 C          -0.0974    1.5928   25.4412 C.ar    1  UNL1        0.1251
     30 C           0.4544    1.6341   24.0470 C.ar    1  UNL1        0.0310
     31 C          -0.1440    2.5611   23.0308 C.ar    1  UNL1       -0.0018
     32 C          -1.2941    3.4467   23.4088 C.ar    1  UNL1        0.0179
     33 C          -1.8459    3.4054   24.8030 C.ar    1  UNL1        0.1000
     34 N          -1.2474    2.4784   25.8192 N.ar    1  UNL1       -0.2296
     35 H           1.2560    0.0845   26.2093 H       1  UNL1        0.1437
     36 H           0.1390    0.6386   27.3725 H       1  UNL1        0.1437
@<TRIPOS>BOND
     1    28    29    1
     2    29    30   ar
     3    30    31   ar
     4    31    27    1
     5    27    20    1
     6    20    21    1
     7    21    22    1
     8    22    23    1
     9    23    24    1
    10    23     1    1
    11     1     2    2
    12     1     3   am
    13     3     4    1
    14     4     5    1
    15     5     6    1
    16     6     9    1
    17     9    10    1
    18    10    11    1
    19    11    12    1
    20    12    13    1
    21    13    14   ar
    22    14    15   ar
    23    15    16   ar
    24    16    17   ar
    25    17    18   ar
    26    18    19    1
    27     6     7    1
    28     7     8    1
    29    23    25    1
    30    25    26    1
    31    31    32   ar
    32    32    33   ar
    33    33    34   ar
    34    34    29   ar
    35    26    20    1
    36     8     3    1
    37    19     9    1
    38    18    13   ar
    39    28    35    1
    40    28    36    1
@<TRIPOS>MOLECULE
*****
 36 40 0 0 0
SMALL
GASTEIGER

@<TRIPOS>ATOM
      1 C           7.6384   -4.2882   21.6998 C.2     1  UNL1        0.2553
      2 O           8.1627   -5.4798   20.9546 O.2     1  UNL1       -0.2720
      3 N           7.5079   -4.3355   23.1933 N.am    1  UNL1       -0.2773
      4 C           7.9018   -5.5744   23.9417 C.3     1  UNL1        0.0949
      5 C           7.7714   -5.6218   25.4353 C.3     1  UNL1        0.0375
      6 C           7.2470   -4.4302   26.1805 C.3     1  UNL1        0.0612
      7 C           6.8532   -3.1913   25.4321 C.3     1  UNL1        0.0375
      8 C           6.9836   -3.1439   23.9385 C.3     1  UNL1        0.0949
      9 N           7.1166   -4.4775   27.6740 N.3     1  UNL1       -0.2702
     10 C           7.5296   -5.7652   28.3230 C.3     1  UNL1        0.0727
     11 C           7.5184   -6.1244   29.7793 C.3     1  UNL1        0.0220
     12 C           7.0914   -5.2844   30.9464 C.3     1  UNL1        0.0275
     13 C           6.5702   -3.8778   30.9454 C.ar    1  UNL1       -0.0248
     14 C           6.2583   -3.4080   32.3354 C.ar    1  UNL1       -0.0045
     15 C           5.7235   -2.0243   32.5570 C.ar    1  UNL1       -0.0003
     16 C           5.5005   -1.1104   31.3887 C.ar    1  UNL1       -0.0003
     17 C           5.8123   -1.5801   29.9987 C.ar    1  UNL1       -0.0032
     18 C           6.3472   -2.9639   29.7771 C.ar    1  UNL1       -0.0101
     19 C           6.5904   -3.2308   28.3212 C.3     1  UNL1        0.0988
     20 N           5.0971   -2.0674   19.1009 N.3     1  UNL1       -0.2688
     21 C           6.2115   -1.1505   19.5101 C.3     1  UNL1        0.0756
     22 C           7.2852   -1.6415   20.4354 C.3     1  UNL1        0.0590
     23 C           7.2445   -3.0493   20.9513 C.3     1  UNL1        0.2042
     24 F           8.4957   -2.5628   21.6205 F       1  UNL1       -0.2306
     25 C           6.1301   -3.9662   20.5422 C.3     1  UNL1        0.0590
     26 C           5.0564   -3.4752   19.6169 C.3     1  UNL1        0.0756
     27 C           4.0234   -1.5764   18.1757 C.3     1  UNL1        0.0993
     28 N          -0.2341    0.1120   20.6300 N.pl3   1  UNL1       -0.3426
     29 C           0.9991    0.3950   19.8243 C.ar    1  UNL1        0.1251
     30 C           1.8946   -0.7322   19.4029 C.ar    1  UNL1        0.0310
     31 C           3.1279   -0.4492   18.5971 C.ar    1  UNL1       -0.0018
     32 C           3.4655    0.9609   18.2128 C.ar    1  UNL1        0.0179
     33 C           2.5700    2.0880   18.6342 C.ar    1  UNL1        0.1000
     34 N           1.3367    1.8050   19.4400 N.ar    1  UNL1       -0.2296
     35 H          -0.4557   -0.8135   20.8822 H       1  UNL1        0.1437
     36 H          -0.8219    0.8517   20.9066 H       1  UNL1        0.1437
@<TRIPOS>BOND
     1    28    29    1
     2    29    30   ar
     3    30    31   ar
     4    31    27    1
     5    27    20    1
     6    20    21    1
     7    21    22    1
     8    22    23    1
     9    23    24    1
    10    23     1    1
    11     1     2    2
    12     1     3   am
    13     3     4    1
    14     4     5    1
    15     5     6    1
    16     6     9    1
    17     9    10    1
    18    10    11    1
    19    11    12    1
    20    12    13    1
    21    13    14   ar
    22    14    15   ar
    23    15    16   ar
    24    16    17   ar
    25    17    18   ar
    26    18    19    1
    27     6     7    1
    28     7     8    1
    29    23    25    1
    30    25    26    1
    31    31    32   ar
    32    32    33   ar
    33    33    34   ar
    34    34    29   ar
    35    26    20    1
    36     8     3    1
    37    19     9    1
    38    18    13   ar
    39    28    35    1
    40    28    36    1
@<TRIPOS>MOLECULE
*****
 36 40 0 0 0
SMALL
GASTEIGER

@<TRIPOS>ATOM
      1 C           1.3053    1.9170   28.2865 C.2     1  UNL1        0.2553
      2 O          -0.0701    2.3446   28.7055 O.2     1  UNL1       -0.2720
      3 N           1.5490    1.4440   26.8841 N.am    1  UNL1       -0.2773
      4 C           0.4174    1.3986   25.9006 C.3     1  UNL1        0.0949
      5 C           0.6611    0.9256   24.4982 C.3     1  UNL1        0.0375
      6 C           2.0365    0.4980   24.0792 C.3     1  UNL1        0.0612
      7 C           3.1681    0.5434   25.0627 C.3     1  UNL1        0.0375
      8 C           2.9245    1.0164   26.4652 C.3     1  UNL1        0.0949
      9 N           2.2802    0.0250   22.6768 N.3     1  UNL1       -0.2702
     10 C           1.5909    0.8060   21.5975 C.3     1  UNL1        0.0727
     11 C           1.6322    0.5885   20.1139 C.3     1  UNL1        0.0220
     12 C           2.3729   -0.4639   19.3433 C.3     1  UNL1        0.0275
     13 C           3.2553   -1.5586   19.8658 C.ar    1  UNL1       -0.0248
     14 C           3.8045   -2.3988   18.7512 C.ar    1  UNL1       -0.0045
     15 C           4.7134   -3.5517   19.0589 C.ar    1  UNL1       -0.0003
     16 C           5.0730   -3.8644   20.4812 C.ar    1  UNL1       -0.0003
     17 C           4.5238   -3.0242   21.5958 C.ar    1  UNL1       -0.0032
     18 C           3.6149   -1.8713   21.2881 C.ar    1  UNL1       -0.0101
     19 C           3.1809   -1.1665   22.5391 C.3     1  UNL1        0.0988
     20 N           3.6844    0.2795   31.4175 N.3     1  UNL1       -0.2688
     21 C           4.2535    1.6300   31.0976 C.3     1  UNL1        0.0756
     22 C           3.6297    2.4715   30.0239 C.3     1  UNL1        0.0590
     23 C           2.4370    1.9624   29.2701 C.3     1  UNL1        0.2042
     24 F           2.6130    3.2971   28.6086 F       1  UNL1       -0.2306
     25 C           1.8680    0.6119   29.5900 C.3     1  UNL1        0.0590
     26 C           2.4917   -0.2295   30.6637 C.3     1  UNL1        0.0756
     27 C           4.3082   -0.5620   32.4912 C.3     1  UNL1        0.0993
     28 N           6.4946   -5.2756   32.5341 N.pl3   1  UNL1       -0.3426
     29 C           6.5564   -3.8181   32.1848 C.ar    1  UNL1        0.1251
     30 C           5.4015   -2.9188   32.5126 C.ar    1  UNL1        0.0310
     31 C           5.4631   -1.4613   32.1634 C.ar    1  UNL1       -0.0018
     32 C           6.6797   -0.9032   31.4862 C.ar    1  UNL1        0.0179
     33 C           7.8346   -1.8024   31.1584 C.ar    1  UNL1        0.1000
     34 N           7.7728   -3.2600   31.5077 N.ar    1  UNL1       -0.2296
     35 H           5.6961   -5.6419   32.9785 H       1  UNL1        0.1437
     36 H           7.2526   -5.8659   32.3190 H       1  UNL1        0.1437
@<TRIPOS>BOND
     1    28    29    1
     2    29    30   ar
     3    30    31   ar
     4    31    27    1
     5    27    20    1
     6    20    21    1
     7    21    22    1
     8    22    23    1
     9    23    24    1
    10    23     1    1
    11     1     2    2
    12     1     3   am
    13     3     4    1
    14     4     5    1
    15     5     6    1
    16     6     9    1
    17     9    10    1
    18    10    11    1
    19    11    12    1
    20    12    13    1
    21    13    14   ar
    22    14    15   ar
    23    15    16   ar
    24    16    17   ar
    25    17    18   ar
    26    18    19    1
    27     6     7    1
    28     7     8    1
    29    23    25    1
    30    25    26    1
    31    31    32   ar
    32    32    33   ar
    33    33    34   ar
    34    34    29   ar
    35    26    20    1
    36     8     3    1
    37    19     9    1
    38    18    13   ar
    39    28    35    1
    40    28    36    1
@<TRIPOS>MOLECULE
*****
 36 40 0 0 0
SMALL
GASTEIGER

@<TRIPOS>ATOM
      1 C           1.0982    1.3495   29.4792 C.2     1  UNL1        0.2553
      2 O          -0.1283    1.1548   30.3206 O.2     1  UNL1       -0.2720
      3 N           0.9778    1.4368   27.9867 N.am    1  UNL1       -0.2773
      4 C          -0.3691    1.3293   27.3353 C.3     1  UNL1        0.0949
      5 C          -0.4896    1.4166   25.8427 C.3     1  UNL1        0.0375
      6 C           0.7370    1.6113   25.0014 C.3     1  UNL1        0.0612
      7 C           2.0839    1.7187   25.6528 C.3     1  UNL1        0.0375
      8 C           2.2044    1.6315   27.1454 C.3     1  UNL1        0.0949
      9 N           0.6166    1.6986   23.5089 N.3     1  UNL1       -0.2702
     10 C          -0.4189    2.6540   22.9942 C.3     1  UNL1        0.0727
     11 C          -0.7791    2.9658   21.5718 C.3     1  UNL1        0.0220
     12 C          -0.1928    2.3990   20.3129 C.3     1  UNL1        0.0275
     13 C           0.8985    1.3805   20.1652 C.ar    1  UNL1       -0.0248
     14 C           1.1851    1.0897   18.7219 C.ar    1  UNL1       -0.0045
     15 C           2.2463    0.0956   18.3535 C.ar    1  UNL1       -0.0003
     16 C           3.0208   -0.6076   19.4285 C.ar    1  UNL1       -0.0003
     17 C           2.7342   -0.3168   20.8718 C.ar    1  UNL1       -0.0032
     18 C           1.6731    0.6773   21.2402 C.ar    1  UNL1       -0.0101
     19 C           1.5476    0.8189   22.7282 C.3     1  UNL1        0.0988
     20 N           4.4812   -0.2708   31.4978 N.3     1  UNL1       -0.2688
     21 C           4.7362    1.1976   31.3281 C.3     1  UNL1        0.0756
     22 C           3.7182    2.0614   30.6444 C.3     1  UNL1        0.0590
     23 C           2.4452    1.4569   30.1306 C.3     1  UNL1        0.2042
     24 F           2.2324    2.8880   29.7346 F       1  UNL1       -0.2306
     25 C           2.1902   -0.0115   30.3004 C.3     1  UNL1        0.0590
     26 C           3.2082   -0.8753   30.9840 C.3     1  UNL1        0.0756
     27 C           5.4992   -1.1347   32.1815 C.3     1  UNL1        0.0993
     28 N           7.0398   -6.0966   32.2607 N.pl3   1  UNL1       -0.3426
     29 C           6.8344   -4.8119   31.5140 C.ar    1  UNL1        0.1251
     30 C           6.2695   -3.6157   32.2210 C.ar    1  UNL1        0.0310
     31 C           6.0640   -2.3310   31.4744 C.ar    1  UNL1       -0.0018
     32 C           6.4234   -2.2426   30.0208 C.ar    1  UNL1        0.0179
     33 C           6.9883   -3.4389   29.3138 C.ar    1  UNL1        0.1000
     34 N           7.1937   -4.7236   30.0605 N.ar    1  UNL1       -0.2296
     35 H           6.8040   -6.1546   33.2148 H       1  UNL1        0.1437
     36 H           7.4106   -6.8818   31.7967 H       1  UNL1        0.1437
@<TRIPOS>BOND
     1    28    29    1
     2    29    30   ar
     3    30    31   ar
     4    31    27    1
     5    27    20    1
     6    20    21    1
     7    21    22    1
     8    22    23    1
     9    23    24    1
    10    23     1    1
    11     1     2    2
    12     1     3   am
    13     3     4    1
    14     4     5    1
    15     5     6    1
    16     6     9    1
    17     9    10    1
    18    10    11    1
    19    11    12    1
    20    12    13    1
    21    13    14   ar
    22    14    15   ar
    23    15    16   ar
    24    16    17   ar
    25    17    18   ar
    26    18    19    1
    27     6     7    1
    28     7     8    1
    29    23    25    1
    30    25    26    1
    31    31    32   ar
    32    32    33   ar
    33    33    34   ar
    34    34    29   ar
    35    26    20    1
    36     8     3    1
    37    19     9    1
    38    18    13   ar
    39    28    35    1
    40    28    36    1
@<TRIPOS>MOLECULE
*****
 36 40 0 0 0
SMALL
GASTEIGER

@<TRIPOS>ATOM
      1 C           3.9445   -1.3965   18.2271 C.2     1  UNL1        0.2553
      2 O           4.2451   -1.0361   16.8023 O.2     1  UNL1       -0.2720
      3 N           2.9660   -0.5791   19.0171 N.am    1  UNL1       -0.2773
      4 C           2.2879    0.5988   18.3824 C.3     1  UNL1        0.0949
      5 C           1.3093    1.4163   19.1724 C.3     1  UNL1        0.0375
      6 C           1.0088    1.0558   20.5971 C.3     1  UNL1        0.0612
      7 C           1.6868   -0.1221   21.2318 C.3     1  UNL1        0.0375
      8 C           2.6654   -0.9396   20.4418 C.3     1  UNL1        0.0949
      9 N           0.0302    1.8732   21.3871 N.3     1  UNL1       -0.2702
     10 C          -0.9436    2.6807   20.5811 C.3     1  UNL1        0.0727
     11 C          -2.0334    3.5895   21.0675 C.3     1  UNL1        0.0220
     12 C          -2.4183    3.9153   22.4802 C.3     1  UNL1        0.0275
     13 C          -1.8088    3.4127   23.7554 C.ar    1  UNL1       -0.0248
     14 C          -2.4970    3.9901   24.9566 C.ar    1  UNL1       -0.0045
     15 C          -2.0401    3.6150   26.3351 C.ar    1  UNL1       -0.0003
     16 C          -0.8949    2.6626   26.5125 C.ar    1  UNL1       -0.0003
     17 C          -0.2067    2.0852   25.3113 C.ar    1  UNL1       -0.0032
     18 C          -0.6636    2.4603   23.9327 C.ar    1  UNL1       -0.0101
     19 C           0.1548    1.7752   22.8787 C.3     1  UNL1        0.0988
     20 N           7.0459   -3.2187   20.5087 N.3     1  UNL1       -0.2688
     21 C           6.1030   -4.3122   20.1020 C.3     1  UNL1        0.0756
     22 C           4.8914   -3.9900   19.2786 C.3     1  UNL1        0.0590
     23 C           4.6226   -2.5745   18.8617 C.3     1  UNL1        0.2042
     24 F           3.4443   -3.2588   18.2347 F       1  UNL1       -0.2306
     25 C           5.5655   -1.4810   19.2684 C.3     1  UNL1        0.0590
     26 C           6.7771   -1.8031   20.0918 C.3     1  UNL1        0.0756
     27 C           8.2575   -3.5409   21.3321 C.3     1  UNL1        0.0993
     28 N           6.5361   -5.0382   26.0006 N.pl3   1  UNL1       -0.3426
     29 C           7.3140   -5.3234   24.7501 C.ar    1  UNL1        0.1251
     30 C           7.3968   -4.2896   23.6664 C.ar    1  UNL1        0.0310
     31 C           8.1747   -4.5747   22.4159 C.ar    1  UNL1       -0.0018
     32 C           8.8696   -5.8935   22.2491 C.ar    1  UNL1        0.0179
     33 C           8.7867   -6.9272   23.3328 C.ar    1  UNL1        0.1000
     34 N           8.0089   -6.6421   24.5834 N.ar    1  UNL1       -0.2296
     35 H           6.0800   -4.1727   26.1100 H       1  UNL1        0.1437
     36 H           6.4817   -5.7167   26.7120 H       1  UNL1        0.1437
@<TRIPOS>BOND
     1    28    29    1
     2    29    30   ar
     3    30    31   ar
     4    31    27    1
     5    27    20    1
     6    20    21    1
     7    21    22    1
     8    22    23    1
     9    23    24    1
    10    23     1    1
    11     1     2    2
    12     1     3   am
    13     3     4    1
    14     4     5    1
    15     5     6    1
    16     6     9    1
    17     9    10    1
    18    10    11    1
    19    11    12    1
    20    12    13    1
    21    13    14   ar
    22    14    15   ar
    23    15    16   ar
    24    16    17   ar
    25    17    18   ar
    26    18    19    1
    27     6     7    1
    28     7     8    1
    29    23    25    1
    30    25    26    1
    31    31    32   ar
    32    32    33   ar
    33    33    34   ar
    34    34    29   ar
    35    26    20    1
    36     8     3    1
    37    19     9    1
    38    18    13   ar
    39    28    35    1
    40    28    36    1
@<TRIPOS>MOLECULE
*****
 36 40 0 0 0
SMALL
GASTEIGER

@<TRIPOS>ATOM
      1 C           2.0107    0.9716   28.2086 C.2     1  UNL1        0.2553
      2 O           1.1031    2.1653   28.2491 O.2     1  UNL1       -0.2720
      3 N           2.4388    0.3993   26.8899 N.am    1  UNL1       -0.2773
      4 C           1.9592    1.0204   25.6116 C.3     1  UNL1        0.0949
      5 C           2.3873    0.4481   24.2928 C.3     1  UNL1        0.0375
      6 C           3.2949   -0.7456   24.2524 C.3     1  UNL1        0.0612
      7 C           3.7744   -1.3668   25.5307 C.3     1  UNL1        0.0375
      8 C           3.3464   -0.7944   26.8495 C.3     1  UNL1        0.0949
      9 N           3.7229   -1.3179   22.9337 N.3     1  UNL1       -0.2702
     10 C           4.5217   -2.5857   23.0029 C.3     1  UNL1        0.0727
     11 C           5.0905   -3.3956   21.8756 C.3     1  UNL1        0.0220
     12 C           5.0008   -3.1376   20.4007 C.3     1  UNL1        0.0275
     13 C           4.3204   -2.0062   19.6887 C.ar    1  UNL1       -0.0248
     14 C           4.4703   -2.1257   18.2010 C.ar    1  UNL1       -0.0045
     15 C           3.8613   -1.0922   17.3005 C.ar    1  UNL1       -0.0003
     16 C           3.1024    0.0607   17.8876 C.ar    1  UNL1       -0.0003
     17 C           2.9525    0.1802   19.3753 C.ar    1  UNL1       -0.0032
     18 C           3.5615   -0.8532   20.2758 C.ar    1  UNL1       -0.0101
     19 C           3.2956   -0.5470   21.7200 C.3     1  UNL1        0.0988
     20 N           4.4344    0.8771   31.7102 N.3     1  UNL1       -0.2688
     21 C           3.5911   -0.3633   31.7295 C.3     1  UNL1        0.0756
     22 C           2.6190   -0.6266   30.6178 C.3     1  UNL1        0.0590
     23 C           2.4903    0.3504   29.4871 C.3     1  UNL1        0.2042
     24 F           1.4804   -0.6741   29.0623 F       1  UNL1       -0.2306
     25 C           3.3336    1.5908   29.4678 C.3     1  UNL1        0.0590
     26 C           4.3057    1.8541   30.5794 C.3     1  UNL1        0.0756
     27 C           5.4065    1.1403   32.8219 C.3     1  UNL1        0.0993
     28 N           2.2721    2.4702   36.7470 N.pl3   1  UNL1       -0.3426
     29 C           3.4068    1.6477   36.2121 C.ar    1  UNL1        0.1251
     30 C           3.8393    1.8052   34.7845 C.ar    1  UNL1        0.0310
     31 C           4.9740    0.9828   34.2495 C.ar    1  UNL1       -0.0018
     32 C           5.6761    0.0029   35.1422 C.ar    1  UNL1        0.0179
     33 C           5.2436   -0.1546   36.5698 C.ar    1  UNL1        0.1000
     34 N           4.1089    0.6679   37.1047 N.ar    1  UNL1       -0.2296
     35 H           1.8113    3.1133   36.1611 H       1  UNL1        0.1437
     36 H           1.9882    2.3669   37.6840 H       1  UNL1        0.1437
@<TRIPOS>BOND
     1    28    29    1
     2    29    30   ar
     3    30    31   ar
     4    31    27    1
     5    27    20    1
     6    20    21    1
     7    21    22    1
     8    22    23    1
     9    23    24    1
    10    23     1    1
    11     1     2    2
    12     1     3   am
    13     3     4    1
    14     4     5    1
    15     5     6    1
    16     6     9    1
    17     9    10    1
    18    10    11    1
    19    11    12    1
    20    12    13    1
    21    13    14   ar
    22    14    15   ar
    23    15    16   ar
    24    16    17   ar
    25    17    18   ar
    26    18    19    1
    27     6     7    1
    28     7     8    1
    29    23    25    1
    30    25    26    1
    31    31    32   ar
    32    32    33   ar
    33    33    34   ar
    34    34    29   ar
    35    26    20    1
    36     8     3    1
    37    19     9    1
    38    18    13   ar
    39    28    35    1
    40    28    36    1
@<TRIPOS>MOLECULE
*****
 36 40 0 0 0
SMALL
GASTEIGER

@<TRIPOS>ATOM
      1 C           3.4022   -0.5106   31.2790 C.2     1  UNL1        0.2553
      2 O           2.1315    0.2573   31.0655 O.2     1  UNL1       -0.2720
      3 N           4.1388   -1.0833   30.1046 N.am    1  UNL1       -0.2773
      4 C           3.6048   -0.8881   28.7166 C.3     1  UNL1        0.0949
      5 C           4.3414   -1.4608   27.5420 C.3     1  UNL1        0.0375
      6 C           5.6121   -2.2287   27.7556 C.3     1  UNL1        0.0612
      7 C           6.1462   -2.4239   29.1437 C.3     1  UNL1        0.0375
      8 C           5.4096   -1.8512   30.3182 C.3     1  UNL1        0.0949
      9 N           6.3488   -2.8014   26.5812 N.3     1  UNL1       -0.2702
     10 C           6.7424   -1.8193   25.5179 C.3     1  UNL1        0.0727
     11 C           7.4788   -2.0736   24.2361 C.3     1  UNL1        0.0220
     12 C           8.0035   -3.3730   23.7011 C.3     1  UNL1        0.0275
     13 C           7.9215   -4.7389   24.3156 C.ar    1  UNL1       -0.0248
     14 C           8.5772   -5.7710   23.4468 C.ar    1  UNL1       -0.0045
     15 C           8.6058   -7.2070   23.8795 C.ar    1  UNL1       -0.0003
     16 C           7.9786   -7.6108   25.1808 C.ar    1  UNL1       -0.0003
     17 C           7.3229   -6.5787   26.0496 C.ar    1  UNL1       -0.0032
     18 C           7.2943   -5.1428   25.6170 C.ar    1  UNL1       -0.0101
     19 C           6.5944   -4.2805   26.6252 C.3     1  UNL1        0.0988
     20 N           4.7930    0.9063   35.0476 N.3     1  UNL1       -0.2688
     21 C           4.8562   -0.5917   35.0942 C.3     1  UNL1        0.0756
     22 C           4.4279   -1.3977   33.9038 C.3     1  UNL1        0.0590
     23 C           3.9363   -0.7058   32.6671 C.3     1  UNL1        0.2042
     24 F           3.8140   -2.1359   32.2315 F       1  UNL1       -0.2306
     25 C           3.8731    0.7922   32.6206 C.3     1  UNL1        0.0590
     26 C           4.3014    1.5982   33.8109 C.3     1  UNL1        0.0756
     27 C           5.2214    1.7124   36.2379 C.3     1  UNL1        0.0993
     28 N           1.4946    0.0110   39.4343 N.pl3   1  UNL1       -0.3426
     29 C           2.3946    1.1126   38.9582 C.ar    1  UNL1        0.1251
     30 C           3.3580    0.8617   37.8362 C.ar    1  UNL1        0.0310
     31 C           4.2580    1.9632   37.3600 C.ar    1  UNL1       -0.0018
     32 C           4.1945    3.3156   38.0059 C.ar    1  UNL1        0.0179
     33 C           3.2311    3.5664   39.1279 C.ar    1  UNL1        0.1000
     34 N           2.3312    2.4649   39.6040 N.ar    1  UNL1       -0.2296
     35 H           1.5363   -0.8766   39.0104 H       1  UNL1        0.1437
     36 H           0.8623    0.1756   40.1708 H       1  UNL1        0.1437
@<TRIPOS>BOND
     1    28    29    1
     2    29    30   ar
     3    30    31   ar
     4    31    27    1
     5    27    20    1
     6    20    21    1
     7    21    22    1
     8    22    23    1
     9    23    24    1
    10    23     1    1
    11     1     2    2
    12     1     3   am
    13     3     4    1
    14     4     5    1
    15     5     6    1
    16     6     9    1
    17     9    10    1
    18    10    11    1
    19    11    12    1
    20    12    13    1
    21    13    14   ar
    22    14    15   ar
    23    15    16   ar
    24    16    17   ar
    25    17    18   ar
    26    18    19    1
    27     6     7    1
    28     7     8    1
    29    23    25    1
    30    25    26    1
    31    31    32   ar
    32    32    33   ar
    33    33    34   ar
    34    34    29   ar
    35    26    20    1
    36     8     3    1
    37    19     9    1
    38    18    13   ar
    39    28    35    1
    40    28    36    1
