@<TRIPOS>MOLECULE
*****
 28 30 0 0 0
SMALL
GASTEIGER

@<TRIPOS>ATOM
      1 C           8.3171   -8.7944   27.3629 C.ar    1  UNL1        0.1004
      2 C           9.3733   -7.8496   27.8545 C.ar    1  UNL1        0.1211
      3 N           9.4794   -6.4727   27.2690 N.ar    1  UNL1       -0.2069
      4 C           8.5292   -6.0405   26.1919 C.ar    1  UNL1        0.2494
      5 C           7.4729   -6.9852   25.7003 C.ar    1  UNL1        0.1568
      6 N           7.3668   -8.3622   26.2858 N.ar    1  UNL1       -0.2374
      7 C           6.9269  -10.9380   27.8341 C.2     1  UNL1       -0.0053
      8 C           8.2110  -10.1713   27.9484 C.2     1  UNL1        0.0177
      9 C           6.8208  -12.3150   28.4196 C.3     1  UNL1        0.0939
     10 C           8.0617  -13.1161   28.6818 C.3     1  UNL1        0.0262
     11 C           3.2940  -14.0809   27.9808 C.3     1  UNL1        0.0946
     12 C           4.6408  -13.5051   27.6575 C.2     1  UNL1        0.2232
     13 O           5.1543  -13.5435   26.2487 O.2     1  UNL1       -0.2751
     14 N           5.4741  -12.8908   28.7430 N.am    1  UNL1       -0.3022
     15 H           5.1370  -12.8655   29.6676 H       1  UNL1        0.1497
     16 O           8.6352   -4.6636   25.6064 O.3     1  UNL1       -0.4340
     17 C           7.5499   -4.1437   24.7110 C.ar    1  UNL1        0.1579
     18 C           7.5949   -4.4230   23.2378 C.ar    1  UNL1        0.0415
     19 C           6.5096   -3.9032   22.3424 C.ar    1  UNL1        0.0401
     20 C           5.3793   -3.1040   22.9200 C.ar    1  UNL1        0.1396
     21 C           5.3343   -2.8246   24.3931 C.ar    1  UNL1        0.0514
     22 C           6.4196   -3.3445   25.2886 C.ar    1  UNL1        0.0952
     23 CL          6.3746   -3.0652   26.7616 Cl      1  UNL1       -0.0790
     24 O           4.2939   -2.5841   22.0245 O.3     1  UNL1       -0.4754
     25 C           4.5074   -2.5301   20.5408 C.3     1  UNL1        0.2053
     26 C           4.1645   -3.7169   19.6901 C.3     1  UNL1        0.0438
     27 C           3.1457   -4.6726   19.1437 C.3     1  UNL1        0.0038
     28 C           4.5893   -4.8169   18.7630 C.3     1  UNL1        0.0038
@<TRIPOS>BOND
     1    11    12    1
     2    12    13    2
     3    12    14   am
     4    14     9    1
     5     9    10    1
     6     9     7    1
     7     7     8    2
     8     8     1    1
     9     1     2   ar
    10     2     3   ar
    11     3     4   ar
    12     4    16    1
    13    16    17    1
    14    17    18   ar
    15    18    19   ar
    16    19    20   ar
    17    20    24    1
    18    24    25    1
    19    25    26    1
    20    26    27    1
    21    27    28    1
    22    20    21   ar
    23    21    22   ar
    24    22    23    1
    25     4     5   ar
    26     5     6   ar
    27     6     1   ar
    28    22    17   ar
    29    28    26    1
    30    14    15    1
@<TRIPOS>MOLECULE
*****
 28 30 0 0 0
SMALL
GASTEIGER

@<TRIPOS>ATOM
      1 C          -4.5025  -19.5918   20.5688 C.ar    1  UNL1        0.1004
      2 C          -5.2250  -20.9030   20.4754 C.ar    1  UNL1        0.1211
      3 N          -6.4379  -21.1531   21.3218 N.ar    1  UNL1       -0.2069
      4 C          -6.9283  -20.0919   22.2616 C.ar    1  UNL1        0.2494
      5 C          -6.2058  -18.7807   22.3551 C.ar    1  UNL1        0.1568
      6 N          -4.9929  -18.5307   21.5086 N.ar    1  UNL1       -0.2374
      7 C          -3.1255  -18.0286   19.0164 C.2     1  UNL1       -0.0053
      8 C          -3.2897  -19.3418   19.7224 C.2     1  UNL1        0.0177
      9 C          -1.9126  -17.7786   18.1700 C.3     1  UNL1        0.0939
     10 C          -2.0702  -17.3205   16.7503 C.3     1  UNL1        0.0262
     11 C           1.1974  -17.5626   20.6257 C.3     1  UNL1        0.0946
     12 C          -0.1730  -17.3546   20.0525 C.2     1  UNL1        0.2232
     13 O          -1.1742  -16.5146   20.7886 O.2     1  UNL1       -0.2751
     14 N          -0.5422  -17.9866   18.7432 N.am    1  UNL1       -0.3022
     15 H           0.1150  -18.5379   18.2600 H       1  UNL1        0.1497
     16 O          -8.1411  -20.3419   23.1081 O.3     1  UNL1       -0.4340
     17 C          -9.4402  -19.6705   22.7740 C.ar    1  UNL1        0.1579
     18 C         -10.0320  -19.8216   21.4040 C.ar    1  UNL1        0.0415
     19 C         -11.3311  -19.1502   21.0699 C.ar    1  UNL1        0.0401
     20 C         -12.0384  -18.3277   22.1059 C.ar    1  UNL1        0.1396
     21 C         -11.4466  -18.1766   23.4759 C.ar    1  UNL1        0.0514
     22 C         -10.1475  -18.8481   23.8100 C.ar    1  UNL1        0.0952
     23 CL         -9.5558  -18.6970   25.1800 Cl      1  UNL1       -0.0790
     24 O         -13.3375  -17.6563   21.7718 O.3     1  UNL1       -0.4754
     25 C         -13.3387  -16.3487   21.0369 C.3     1  UNL1        0.2053
     26 C         -12.1207  -15.9146   20.2766 C.3     1  UNL1        0.0438
     27 C         -11.4630  -15.5388   18.9820 C.3     1  UNL1        0.0038
     28 C         -10.6688  -15.5387   20.2544 C.3     1  UNL1        0.0038
@<TRIPOS>BOND
     1    11    12    1
     2    12    13    2
     3    12    14   am
     4    14     9    1
     5     9    10    1
     6     9     7    1
     7     7     8    2
     8     8     1    1
     9     1     2   ar
    10     2     3   ar
    11     3     4   ar
    12     4    16    1
    13    16    17    1
    14    17    18   ar
    15    18    19   ar
    16    19    20   ar
    17    20    24    1
    18    24    25    1
    19    25    26    1
    20    26    27    1
    21    27    28    1
    22    20    21   ar
    23    21    22   ar
    24    22    23    1
    25     4     5   ar
    26     5     6   ar
    27     6     1   ar
    28    22    17   ar
    29    28    26    1
    30    14    15    1
@<TRIPOS>MOLECULE
*****
 28 30 0 0 0
SMALL
GASTEIGER

@<TRIPOS>ATOM
      1 C           1.1510    0.9683   19.2788 C.ar    1  UNL1        0.1004
      2 C           0.2923    0.7195   20.4832 C.ar    1  UNL1        0.1211
      3 N          -0.7951    1.6883   20.8422 N.ar    1  UNL1       -0.2069
      4 C          -1.0239    2.9060   19.9967 C.ar    1  UNL1        0.2494
      5 C          -0.1652    3.1549   18.7923 C.ar    1  UNL1        0.1568
      6 N           0.9222    2.1860   18.4333 N.ar    1  UNL1       -0.2374
      7 C           3.2740    0.3775   17.9028 C.2     1  UNL1       -0.0053
      8 C           2.2384   -0.0005   18.9198 C.2     1  UNL1        0.0177
      9 C           4.3614   -0.5913   17.5438 C.3     1  UNL1        0.0939
     10 C           5.7137   -0.0844   17.1380 C.3     1  UNL1        0.0262
     11 C           4.2211   -4.3364   18.8492 C.3     1  UNL1        0.0946
     12 C           4.4858   -2.8607   18.8024 C.2     1  UNL1        0.2232
     13 O           5.1397   -2.1788   19.9674 O.2     1  UNL1       -0.2751
     14 N           4.0967   -2.0670   17.5906 N.am    1  UNL1       -0.3022
     15 H           3.6675   -2.5146   16.8259 H       1  UNL1        0.1497
     16 O          -2.1113    3.8749   20.3557 O.3     1  UNL1       -0.4340
     17 C          -2.8004    3.7705   21.6839 C.ar    1  UNL1        0.1579
     18 C          -2.0461    4.0690   22.9457 C.ar    1  UNL1        0.0415
     19 C          -2.7352    3.9646   24.2739 C.ar    1  UNL1        0.0401
     20 C          -4.1786    3.5618   24.3405 C.ar    1  UNL1        0.1396
     21 C          -4.9328    3.2633   23.0788 C.ar    1  UNL1        0.0514
     22 C          -4.2437    3.3676   21.7504 C.ar    1  UNL1        0.0952
     23 CL         -4.9980    3.0691   20.4887 Cl      1  UNL1       -0.0790
     24 O          -4.8676    3.4574   25.6688 O.3     1  UNL1       -0.4754
     25 C          -5.2962    4.7002   26.3911 C.3     1  UNL1        0.2053
     26 C          -6.3113    5.6149   25.7724 C.3     1  UNL1        0.0438
     27 C          -7.5555    6.4444   25.8907 C.3     1  UNL1        0.0038
     28 C          -6.8255    6.3697   24.5825 C.3     1  UNL1        0.0038
@<TRIPOS>BOND
     1    11    12    1
     2    12    13    2
     3    12    14   am
     4    14     9    1
     5     9    10    1
     6     9     7    1
     7     7     8    2
     8     8     1    1
     9     1     2   ar
    10     2     3   ar
    11     3     4   ar
    12     4    16    1
    13    16    17    1
    14    17    18   ar
    15    18    19   ar
    16    19    20   ar
    17    20    24    1
    18    24    25    1
    19    25    26    1
    20    26    27    1
    21    27    28    1
    22    20    21   ar
    23    21    22   ar
    24    22    23    1
    25     4     5   ar
    26     5     6   ar
    27     6     1   ar
    28    22    17   ar
    29    28    26    1
    30    14    15    1
@<TRIPOS>MOLECULE
*****
 28 30 0 0 0
SMALL
GASTEIGER

@<TRIPOS>ATOM
      1 C           4.6698   -0.0374   33.9915 C.ar    1  UNL1        0.1004
      2 C           6.1294    0.0822   33.6669 C.ar    1  UNL1        0.1211
      3 N           6.8532   -1.0681   33.0321 N.ar    1  UNL1       -0.2069
      4 C           6.1176   -2.3379   32.7220 C.ar    1  UNL1        0.2494
      5 C           4.6580   -2.4575   33.0466 C.ar    1  UNL1        0.1568
      6 N           3.9342   -1.3072   33.6813 N.ar    1  UNL1       -0.2374
      7 C           3.9232    1.2526   36.1195 C.2     1  UNL1       -0.0053
      8 C           3.9460    1.1129   34.6262 C.2     1  UNL1        0.0177
      9 C           3.1993    2.4028   36.7542 C.3     1  UNL1        0.0939
     10 C           3.7337    3.7970   36.6095 C.3     1  UNL1        0.0262
     11 C           0.7468    1.2247   39.6433 C.3     1  UNL1        0.0946
     12 C           2.0049    1.4685   38.8638 C.2     1  UNL1        0.2232
     13 O           3.3267    1.0218   39.4144 O.2     1  UNL1       -0.2751
     14 N           1.9412    2.1590   37.5337 N.am    1  UNL1       -0.3022
     15 H           1.0736    2.4522   37.1723 H       1  UNL1        0.1497
     16 O           6.8414   -3.4882   32.0872 O.3     1  UNL1       -0.4340
     17 C           6.7548   -3.7029   30.6052 C.ar    1  UNL1        0.1579
     18 C           6.3544   -2.5714   29.7056 C.ar    1  UNL1        0.0415
     19 C           6.2678   -2.7861   28.2236 C.ar    1  UNL1        0.0401
     20 C           6.5817   -4.1323   27.6411 C.ar    1  UNL1        0.1396
     21 C           6.9821   -5.2638   28.5407 C.ar    1  UNL1        0.0514
     22 C           7.0687   -5.0491   30.0228 C.ar    1  UNL1        0.0952
     23 CL          7.4691   -6.1806   30.9224 Cl      1  UNL1       -0.0790
     24 O           6.4951   -4.3469   26.1591 O.3     1  UNL1       -0.4754
     25 C           7.6934   -4.8356   25.4007 C.3     1  UNL1        0.2053
     26 C           7.8656   -6.3016   25.1340 C.3     1  UNL1        0.0438
     27 C           7.7318   -7.7275   25.5797 C.3     1  UNL1        0.0038
     28 C           8.2977   -7.4148   24.2263 C.3     1  UNL1        0.0038
@<TRIPOS>BOND
     1    11    12    1
     2    12    13    2
     3    12    14   am
     4    14     9    1
     5     9    10    1
     6     9     7    1
     7     7     8    2
     8     8     1    1
     9     1     2   ar
    10     2     3   ar
    11     3     4   ar
    12     4    16    1
    13    16    17    1
    14    17    18   ar
    15    18    19   ar
    16    19    20   ar
    17    20    24    1
    18    24    25    1
    19    25    26    1
    20    26    27    1
    21    27    28    1
    22    20    21   ar
    23    21    22   ar
    24    22    23    1
    25     4     5   ar
    26     5     6   ar
    27     6     1   ar
    28    22    17   ar
    29    28    26    1
    30    14    15    1
@<TRIPOS>MOLECULE
*****
 28 30 0 0 0
SMALL
GASTEIGER

@<TRIPOS>ATOM
      1 C           2.2817   -0.2287   19.0956 C.ar    1  UNL1        0.1004
      2 C           1.1962   -0.5720   20.0721 C.ar    1  UNL1        0.1211
      3 N           0.1136    0.4225   20.3705 N.ar    1  UNL1       -0.2069
      4 C           0.1167    1.7605   19.6924 C.ar    1  UNL1        0.2494
      5 C           1.2022    2.1038   18.7159 C.ar    1  UNL1        0.1568
      6 N           2.2847    1.1093   18.4175 N.ar    1  UNL1       -0.2374
      7 C           3.6383   -2.3437   19.7560 C.2     1  UNL1       -0.0053
      8 C           3.3642   -1.2232   18.7972 C.2     1  UNL1        0.0177
      9 C           4.7208   -3.3382   19.4576 C.3     1  UNL1        0.0939
     10 C           4.3780   -4.6500   18.8158 C.3     1  UNL1        0.0262
     11 C           8.4864   -2.1373   19.0995 C.3     1  UNL1        0.0946
     12 C           7.0611   -2.4545   18.7561 C.2     1  UNL1        0.2232
     13 O           6.5507   -2.2049   17.3679 O.2     1  UNL1       -0.2751
     14 N           6.1461   -3.0211   19.8010 N.am    1  UNL1       -0.3022
     15 H           6.4811   -3.1849   20.7122 H       1  UNL1        0.1497
     16 O          -0.9658    2.7550   19.9908 O.3     1  UNL1       -0.4340
     17 C          -1.1724    3.2399   21.3951 C.ar    1  UNL1        0.1579
     18 C           0.0097    3.4877   22.2846 C.ar    1  UNL1        0.0415
     19 C          -0.1969    3.9726   23.6889 C.ar    1  UNL1        0.0401
     20 C          -1.5856    4.2098   24.2038 C.ar    1  UNL1        0.1396
     21 C          -2.7678    3.9621   23.3144 C.ar    1  UNL1        0.0514
     22 C          -2.5612    3.4771   21.9100 C.ar    1  UNL1        0.0952
     23 CL         -3.7433    3.2294   21.0205 Cl      1  UNL1       -0.0790
     24 O          -1.7922    4.6948   25.6082 O.3     1  UNL1       -0.4754
     25 C          -2.1795    3.7268   26.6866 C.3     1  UNL1        0.2053
     26 C          -1.3508    2.4996   26.9257 C.3     1  UNL1        0.0438
     27 C          -0.9908    1.3217   27.7817 C.3     1  UNL1        0.0038
     28 C          -0.2754    1.5519   26.4837 C.3     1  UNL1        0.0038
@<TRIPOS>BOND
     1    11    12    1
     2    12    13    2
     3    12    14   am
     4    14     9    1
     5     9    10    1
     6     9     7    1
     7     7     8    2
     8     8     1    1
     9     1     2   ar
    10     2     3   ar
    11     3     4   ar
    12     4    16    1
    13    16    17    1
    14    17    18   ar
    15    18    19   ar
    16    19    20   ar
    17    20    24    1
    18    24    25    1
    19    25    26    1
    20    26    27    1
    21    27    28    1
    22    20    21   ar
    23    21    22   ar
    24    22    23    1
    25     4     5   ar
    26     5     6   ar
    27     6     1   ar
    28    22    17   ar
    29    28    26    1
    30    14    15    1
@<TRIPOS>MOLECULE
*****
 28 30 0 0 0
SMALL
GASTEIGER

@<TRIPOS>ATOM
      1 C           1.8081    0.3944   19.1925 C.ar    1  UNL1        0.1004
      2 C           0.5952    0.2151   20.0565 C.ar    1  UNL1        0.1211
      3 N          -0.2967    1.3851   20.3491 N.ar    1  UNL1       -0.2069
      4 C           0.0243    2.7343   19.7778 C.ar    1  UNL1        0.2494
      5 C           1.2373    2.9136   18.9138 C.ar    1  UNL1        0.1568
      6 N           2.1292    1.7436   18.6211 N.ar    1  UNL1       -0.2374
      7 C           3.0146   -1.7676   19.9800 C.2     1  UNL1       -0.0053
      8 C           2.7001   -0.7756   18.8998 C.2     1  UNL1        0.0177
      9 C           3.9065   -2.9376   19.6873 C.3     1  UNL1        0.0939
     10 C           3.3152   -4.2295   19.2062 C.3     1  UNL1        0.0262
     11 C           7.7445   -2.2911   18.9119 C.3     1  UNL1        0.0946
     12 C           6.2614   -2.4130   18.7235 C.2     1  UNL1        0.2232
     13 O           5.6502   -2.1323   17.3828 O.2     1  UNL1       -0.2751
     14 N           5.3895   -2.8157   19.8758 N.am    1  UNL1       -0.3022
     15 H           5.7907   -3.0000   20.7557 H       1  UNL1        0.1497
     16 O          -0.8676    3.9043   20.0705 O.3     1  UNL1       -0.4340
     17 C          -2.0487    3.7379   20.9800 C.ar    1  UNL1        0.1579
     18 C          -1.8504    3.6924   22.4662 C.ar    1  UNL1        0.0415
     19 C          -3.0315    3.5260   23.3757 C.ar    1  UNL1        0.0401
     20 C          -4.4110    3.4052   22.7991 C.ar    1  UNL1        0.1396
     21 C          -4.6093    3.4508   21.3130 C.ar    1  UNL1        0.0514
     22 C          -3.4282    3.6172   20.4034 C.ar    1  UNL1        0.0952
     23 CL         -3.6265    3.6627   18.9173 Cl      1  UNL1       -0.0790
     24 O          -5.5921    3.2388   23.7087 O.3     1  UNL1       -0.4754
     25 C          -6.0090    4.3631   24.6099 C.3     1  UNL1        0.2053
     26 C          -5.2469    4.6336   25.8732 C.3     1  UNL1        0.0438
     27 C          -4.2216    4.2179   26.8860 C.3     1  UNL1        0.0038
     28 C          -4.9523    5.5177   27.0486 C.3     1  UNL1        0.0038
@<TRIPOS>BOND
     1    11    12    1
     2    12    13    2
     3    12    14   am
     4    14     9    1
     5     9    10    1
     6     9     7    1
     7     7     8    2
     8     8     1    1
     9     1     2   ar
    10     2     3   ar
    11     3     4   ar
    12     4    16    1
    13    16    17    1
    14    17    18   ar
    15    18    19   ar
    16    19    20   ar
    17    20    24    1
    18    24    25    1
    19    25    26    1
    20    26    27    1
    21    27    28    1
    22    20    21   ar
    23    21    22   ar
    24    22    23    1
    25     4     5   ar
    26     5     6   ar
    27     6     1   ar
    28    22    17   ar
    29    28    26    1
    30    14    15    1
@<TRIPOS>MOLECULE
*****
 28 30 0 0 0
SMALL
GASTEIGER

@<TRIPOS>ATOM
      1 C          -0.5430    2.2333   25.0591 C.ar    1  UNL1        0.1004
      2 C           0.5325    1.3894   24.4418 C.ar    1  UNL1        0.1211
      3 N           0.8562    1.5350   22.9844 N.ar    1  UNL1       -0.2069
      4 C           0.1044    2.5245   22.1443 C.ar    1  UNL1        0.2494
      5 C          -0.9711    3.3683   22.7617 C.ar    1  UNL1        0.1568
      6 N          -1.2948    3.2227   24.2191 N.ar    1  UNL1       -0.2374
      7 C          -0.1902    1.0265   27.3327 C.2     1  UNL1       -0.0053
      8 C          -0.8667    2.0877   26.5165 C.2     1  UNL1        0.0177
      9 C          -0.5139    0.8809   28.7901 C.3     1  UNL1        0.0939
     10 C          -1.6467   -0.0024   29.2222 C.3     1  UNL1        0.0262
     11 C           2.2291    1.6622   31.5497 C.3     1  UNL1        0.0946
     12 C           1.4200    0.9245   30.5244 C.2     1  UNL1        0.2232
     13 O           1.7360   -0.5073   30.2081 O.2     1  UNL1       -0.2751
     14 N           0.2951    1.6186   29.8154 N.am    1  UNL1       -0.3022
     15 H           0.0877    2.5584   30.0231 H       1  UNL1        0.1497
     16 O           0.4281    2.6700   20.6869 O.3     1  UNL1       -0.4340
     17 C           1.2651    1.6337   19.9974 C.ar    1  UNL1        0.1579
     18 C           0.9874    0.1764   20.2191 C.ar    1  UNL1        0.0415
     19 C           1.8244   -0.8599   19.5296 C.ar    1  UNL1        0.0401
     20 C           2.9390   -0.4390   18.6183 C.ar    1  UNL1        0.1396
     21 C           3.2167    1.0183   18.3966 C.ar    1  UNL1        0.0514
     22 C           2.3797    2.0547   19.0862 C.ar    1  UNL1        0.0952
     23 CL          2.6574    3.5120   18.8644 Cl      1  UNL1       -0.0790
     24 O           3.7760   -1.4754   17.9288 O.3     1  UNL1       -0.4754
     25 C           4.7119   -2.3352   18.7255 C.3     1  UNL1        0.2053
     26 C           4.3802   -3.7773   18.9707 C.3     1  UNL1        0.0438
     27 C           4.6353   -5.2318   18.7076 C.3     1  UNL1        0.0038
     28 C           3.5506   -4.8207   19.6585 C.3     1  UNL1        0.0038
@<TRIPOS>BOND
     1    11    12    1
     2    12    13    2
     3    12    14   am
     4    14     9    1
     5     9    10    1
     6     9     7    1
     7     7     8    2
     8     8     1    1
     9     1     2   ar
    10     2     3   ar
    11     3     4   ar
    12     4    16    1
    13    16    17    1
    14    17    18   ar
    15    18    19   ar
    16    19    20   ar
    17    20    24    1
    18    24    25    1
    19    25    26    1
    20    26    27    1
    21    27    28    1
    22    20    21   ar
    23    21    22   ar
    24    22    23    1
    25     4     5   ar
    26     5     6   ar
    27     6     1   ar
    28    22    17   ar
    29    28    26    1
    30    14    15    1
@<TRIPOS>MOLECULE
*****
 28 30 0 0 0
SMALL
GASTEIGER

@<TRIPOS>ATOM
      1 C           5.3559   -3.1459   23.6221 C.ar    1  UNL1        0.1004
      2 C           5.1890   -2.1582   24.7386 C.ar    1  UNL1        0.1211
      3 N           6.1056   -2.2055   25.9250 N.ar    1  UNL1       -0.2069
      4 C           7.1891   -3.2403   25.9949 C.ar    1  UNL1        0.2494
      5 C           7.3561   -4.2280   24.8784 C.ar    1  UNL1        0.1568
      6 N           6.4394   -4.1808   23.6920 N.ar    1  UNL1       -0.2374
      7 C           4.8698   -3.7004   21.1309 C.2     1  UNL1       -0.0053
      8 C           4.4393   -3.0987   22.4357 C.2     1  UNL1        0.0177
      9 C           3.9532   -3.6532   19.9445 C.3     1  UNL1        0.0939
     10 C           3.4979   -4.9276   19.2973 C.3     1  UNL1        0.0262
     11 C           3.7042   -0.4136   17.6658 C.3     1  UNL1        0.0946
     12 C           4.1655   -1.7351   18.2051 C.2     1  UNL1        0.2232
     13 O           5.3003   -2.4599   17.5442 O.2     1  UNL1       -0.2751
     14 N           3.4919   -2.3317   19.4052 N.am    1  UNL1       -0.3022
     15 H           2.7471   -1.8560   19.8390 H       1  UNL1        0.1497
     16 O           8.1057   -3.2876   27.1814 O.3     1  UNL1       -0.4340
     17 C           7.5358   -3.3328   28.5681 C.ar    1  UNL1        0.1579
     18 C           7.1175   -2.0633   29.2489 C.ar    1  UNL1        0.0415
     19 C           6.5476   -2.1086   30.6356 C.ar    1  UNL1        0.0401
     20 C           6.3959   -3.4234   31.3416 C.ar    1  UNL1        0.1396
     21 C           6.8142   -4.6928   30.6609 C.ar    1  UNL1        0.0514
     22 C           7.3842   -4.6476   29.2741 C.ar    1  UNL1        0.0952
     23 CL          7.8025   -5.9171   28.5934 Cl      1  UNL1       -0.0790
     24 O           5.8260   -3.4686   32.7285 O.3     1  UNL1       -0.4754
     25 C           4.7463   -2.5068   33.1274 C.3     1  UNL1        0.2053
     26 C           5.0658   -1.3539   34.0322 C.3     1  UNL1        0.0438
     27 C           4.9474   -0.6778   35.3659 C.3     1  UNL1        0.0038
     28 C           5.7375   -0.0332   34.2658 C.3     1  UNL1        0.0038
@<TRIPOS>BOND
     1    11    12    1
     2    12    13    2
     3    12    14   am
     4    14     9    1
     5     9    10    1
     6     9     7    1
     7     7     8    2
     8     8     1    1
     9     1     2   ar
    10     2     3   ar
    11     3     4   ar
    12     4    16    1
    13    16    17    1
    14    17    18   ar
    15    18    19   ar
    16    19    20   ar
    17    20    24    1
    18    24    25    1
    19    25    26    1
    20    26    27    1
    21    27    28    1
    22    20    21   ar
    23    21    22   ar
    24    22    23    1
    25     4     5   ar
    26     5     6   ar
    27     6     1   ar
    28    22    17   ar
    29    28    26    1
    30    14    15    1
@<TRIPOS>MOLECULE
*****
 28 30 0 0 0
SMALL
GASTEIGER

@<TRIPOS>ATOM
      1 C           7.0048   -3.5040   25.7176 C.ar    1  UNL1        0.1004
      2 C           7.5758   -4.5845   24.8479 C.ar    1  UNL1        0.1211
      3 N           6.9903   -4.8433   23.4914 N.ar    1  UNL1       -0.2069
      4 C           5.8338   -4.0215   23.0045 C.ar    1  UNL1        0.2494
      5 C           5.2628   -2.9409   23.8741 C.ar    1  UNL1        0.1568
      6 N           5.8483   -2.6822   25.2307 N.ar    1  UNL1       -0.2374
      7 C           7.5030   -4.2954   28.1415 C.2     1  UNL1       -0.0053
      8 C           7.5904   -3.2452   27.0741 C.2     1  UNL1        0.0177
      9 C           8.0885   -4.0367   29.4980 C.3     1  UNL1        0.0939
     10 C           7.7671   -2.7635   30.2232 C.3     1  UNL1        0.0262
     11 C           9.3365   -7.1121   31.6737 C.3     1  UNL1        0.0946
     12 C           8.4296   -6.0978   31.0424 C.2     1  UNL1        0.2232
     13 O           6.9567   -6.1305   31.3242 O.2     1  UNL1       -0.2751
     14 N           8.9955   -5.0509   30.1293 N.am    1  UNL1       -0.3022
     15 H           9.9622   -5.0296   29.9444 H       1  UNL1        0.1497
     16 O           5.2483   -4.2803   21.6479 O.3     1  UNL1       -0.4340
     17 C           5.6352   -3.4138   20.4863 C.ar    1  UNL1        0.1579
     18 C           6.7287   -2.3984   20.6395 C.ar    1  UNL1        0.0415
     19 C           7.1157   -1.5320   19.4778 C.ar    1  UNL1        0.0401
     20 C           6.4092   -1.6808   18.1630 C.ar    1  UNL1        0.1396
     21 C           5.3157   -2.6960   18.0098 C.ar    1  UNL1        0.0514
     22 C           4.9287   -3.5626   19.1715 C.ar    1  UNL1        0.0952
     23 CL          3.8353   -4.5779   19.0183 Cl      1  UNL1       -0.0790
     24 O           6.7962   -0.8142   17.0014 O.3     1  UNL1       -0.4754
     25 C           6.1294    0.5146   16.8020 C.3     1  UNL1        0.2053
     26 C           5.0247    0.9447   17.7209 C.3     1  UNL1        0.0438
     27 C           3.6048    0.8264   18.1897 C.3     1  UNL1        0.0038
     28 C           4.5312    1.8081   18.8439 C.3     1  UNL1        0.0038
@<TRIPOS>BOND
     1    11    12    1
     2    12    13    2
     3    12    14   am
     4    14     9    1
     5     9    10    1
     6     9     7    1
     7     7     8    2
     8     8     1    1
     9     1     2   ar
    10     2     3   ar
    11     3     4   ar
    12     4    16    1
    13    16    17    1
    14    17    18   ar
    15    18    19   ar
    16    19    20   ar
    17    20    24    1
    18    24    25    1
    19    25    26    1
    20    26    27    1
    21    27    28    1
    22    20    21   ar
    23    21    22   ar
    24    22    23    1
    25     4     5   ar
    26     5     6   ar
    27     6     1   ar
    28    22    17   ar
    29    28    26    1
    30    14    15    1
