@<TRIPOS>MOLECULE
*****
 40 44 0 0 0
SMALL
GASTEIGER

@<TRIPOS>ATOM
      1 C           6.9384   -4.6166   24.0198 C.3     1  UNL1        0.0993
      2 N           6.8667   -4.5650   25.5173 N.3     1  UNL1       -0.2690
      3 C           6.6680   -3.2515   26.2138 C.3     1  UNL1        0.0724
      4 C           6.5963   -3.2000   27.7112 C.3     1  UNL1        0.0195
      5 C           6.7233   -4.4620   28.5120 C.3     1  UNL1        0.0300
      6 C           6.9219   -5.7755   27.8155 C.3     1  UNL1        0.0195
      7 C           6.9937   -5.8270   26.3181 C.3     1  UNL1        0.0724
      8 C           6.8332   -5.6347   29.4409 C.3     1  UNL1        0.0873
      9 C           6.7069   -5.1262   30.8465 C.2     1  UNL1        0.2294
     10 O           6.7594   -5.9585   32.0932 O.2     1  UNL1       -0.2745
     11 N           6.5189   -3.6392   30.7862 N.am    1  UNL1       -0.2586
     12 C           6.5290   -3.2287   29.3435 C.3     1  UNL1        0.0986
     13 C           6.3504   -2.7235   31.9622 C.ar    1  UNL1        0.0538
     14 C           7.5230   -1.9449   32.4806 C.ar    1  UNL1        0.0149
     15 C           7.3545   -1.0292   33.6567 C.ar    1  UNL1        0.0024
     16 C           6.0133   -0.8921   34.3143 C.ar    1  UNL1        0.0141
     17 C           4.8406   -1.6707   33.7959 C.ar    1  UNL1        0.0024
     18 C           5.0092   -2.5864   32.6199 C.ar    1  UNL1        0.0149
     19 C           5.8448    0.0237   35.4904 C.2     1  UNL1        0.0729
     20 O           6.0826   -0.4887   36.8800 O.co2   1  UNL1       -0.5446
     21 O           5.4384    1.4517   35.2768 O.co2   1  UNL1       -0.5446
     22 C           4.2504   -1.8650   23.0432 C.ar    1  UNL1        0.1411
     23 C           5.1051   -2.7820   23.8671 C.ar    1  UNL1        0.0342
     24 C           6.0837   -3.6996   23.1960 C.ar    1  UNL1       -0.0001
     25 C           6.2076   -3.7003   21.7011 C.ar    1  UNL1        0.0342
     26 C           5.3530   -2.7834   20.8773 C.ar    1  UNL1        0.1411
     27 C           4.3744   -1.8657   21.5483 C.ar    1  UNL1        0.0679
     28 C           3.5197   -0.9488   20.7245 C.ar    1  UNL1        0.0060
     29 C           4.1225    0.2686   20.0885 C.ar    1  UNL1        0.0025
     30 C           3.2678    1.1856   19.2647 C.ar    1  UNL1        0.0296
     31 C           1.8102    0.8851   19.0769 C.ar    1  UNL1        0.1401
     32 F           0.9556    1.8020   18.2530 F       1  UNL1       -0.2042
     33 C           1.2074   -0.3323   19.7128 C.ar    1  UNL1        0.0296
     34 C           2.0621   -1.2493   20.5366 C.ar    1  UNL1        0.0025
     35 O           3.2718   -0.9474   23.7142 O.3     1  UNL1       -0.4754
     36 C           2.9852    1.6166   23.4081 C.3     1  UNL1        0.0512
     37 C           3.6750    0.4553   24.0604 C.3     1  UNL1        0.2055
     38 O           5.4769   -2.7840   19.3824 O.3     1  UNL1       -0.4754
     39 C           4.8252   -3.8683   18.5763 C.3     1  UNL1        0.2055
     40 C           3.5071   -4.4370   19.0113 C.3     1  UNL1        0.0512
@<TRIPOS>UNITY_ATOM_ATTR
20 1
charge -1
@<TRIPOS>BOND
     1    36    37    1
     2    37    35    1
     3    35    22    1
     4    22    23   ar
     5    23    24   ar
     6    24     1    1
     7     1     2    1
     8     2     3    1
     9     3     4    1
    10     4     5    1
    11     5     6    1
    12     6     7    1
    13     5     8    1
    14     8     9    1
    15     9    10    2
    16     9    11   am
    17    11    13    1
    18    13    14   ar
    19    14    15   ar
    20    15    16   ar
    21    16    19    1
    22    19    20   ar
    23    19    21   ar
    24    16    17   ar
    25    17    18   ar
    26    11    12    1
    27    24    25   ar
    28    25    26   ar
    29    26    38    1
    30    38    39    1
    31    39    40    1
    32    26    27   ar
    33    27    28    1
    34    28    29   ar
    35    29    30   ar
    36    30    31   ar
    37    31    32    1
    38    31    33   ar
    39    33    34   ar
    40    27    22   ar
    41    34    28   ar
    42     7     2    1
    43    18    13   ar
    44    12     5    1
@<TRIPOS>MOLECULE
*****
 40 44 0 0 0
SMALL
GASTEIGER

@<TRIPOS>ATOM
      1 C           6.9868   -4.6136   24.0109 C.3     1  UNL1        0.0993
      2 N           6.9089   -4.5533   25.5077 N.3     1  UNL1       -0.2690
      3 C           6.6807   -3.2395   26.1945 C.3     1  UNL1        0.0724
      4 C           6.6028   -3.1793   27.6913 C.3     1  UNL1        0.0195
      5 C           6.7532   -4.4329   28.5012 C.3     1  UNL1        0.0300
      6 C           6.9815   -5.7467   27.8143 C.3     1  UNL1        0.0195
      7 C           7.0593   -5.8069   26.3176 C.3     1  UNL1        0.0724
      8 C           6.8843   -5.5967   29.4384 C.3     1  UNL1        0.0873
      9 C           6.7428   -5.0814   30.8401 C.2     1  UNL1        0.2294
     10 O           6.8083   -5.9039   32.0927 O.2     1  UNL1       -0.2745
     11 N           6.5241   -3.5990   30.7690 N.am    1  UNL1       -0.2586
     12 C           6.5306   -3.1983   29.3236 C.3     1  UNL1        0.0986
     13 C           6.3327   -2.6791   31.9381 C.ar    1  UNL1        0.0538
     14 C           5.0016   -2.6073   32.6258 C.ar    1  UNL1        0.0149
     15 C           4.8101   -1.6873   33.7950 C.ar    1  UNL1        0.0024
     16 C           5.9497   -0.8390   34.2764 C.ar    1  UNL1        0.0141
     17 C           7.2809   -0.9108   33.5887 C.ar    1  UNL1        0.0024
     18 C           7.4723   -1.8309   32.4195 C.ar    1  UNL1        0.0149
     19 C           5.7583    0.0810   35.4456 C.2     1  UNL1        0.0729
     20 O           5.5251    1.5452   35.2175 O.co2   1  UNL1       -0.5446
     21 O           5.7999   -0.4631   36.8428 O.co2   1  UNL1       -0.5446
     22 C           5.5086   -2.7018   20.8628 C.ar    1  UNL1        0.1411
     23 C           6.3538   -3.6197   21.6954 C.ar    1  UNL1        0.0342
     24 C           6.1416   -3.6957   23.1783 C.ar    1  UNL1       -0.0001
     25 C           5.0841   -2.8538   23.8288 C.ar    1  UNL1        0.0342
     26 C           4.2389   -1.9359   22.9962 C.ar    1  UNL1        0.1411
     27 C           4.4512   -1.8599   21.5133 C.ar    1  UNL1        0.0679
     28 C           3.6060   -0.9421   20.6808 C.ar    1  UNL1        0.0060
     29 C           4.1994    0.3113   20.1089 C.ar    1  UNL1        0.0025
     30 C           3.3541    1.2292   19.2763 C.ar    1  UNL1        0.0296
     31 C           1.9156    0.8937   19.0157 C.ar    1  UNL1        0.1401
     32 F           1.0704    1.8116   18.1831 F       1  UNL1       -0.2042
     33 C           1.3222   -0.3596   19.5875 C.ar    1  UNL1        0.0296
     34 C           2.1674   -1.2775   20.4201 C.ar    1  UNL1        0.0025
     35 O           5.7208   -2.6258   19.3799 O.3     1  UNL1       -0.4754
     36 C           3.9660   -4.5048   19.0056 C.3     1  UNL1        0.0512
     37 C           5.0541   -3.6191   18.4749 C.3     1  UNL1        0.2055
     38 O           3.1815   -1.0941   23.6467 O.3     1  UNL1       -0.4754
     39 C           3.5351    0.2497   24.2119 C.3     1  UNL1        0.2055
     40 C           3.1070    1.4988   23.5004 C.3     1  UNL1        0.0512
@<TRIPOS>UNITY_ATOM_ATTR
20 1
charge -1
@<TRIPOS>BOND
     1    36    37    1
     2    37    35    1
     3    35    22    1
     4    22    23   ar
     5    23    24   ar
     6    24     1    1
     7     1     2    1
     8     2     3    1
     9     3     4    1
    10     4     5    1
    11     5     6    1
    12     6     7    1
    13     5     8    1
    14     8     9    1
    15     9    10    2
    16     9    11   am
    17    11    13    1
    18    13    14   ar
    19    14    15   ar
    20    15    16   ar
    21    16    19    1
    22    19    20   ar
    23    19    21   ar
    24    16    17   ar
    25    17    18   ar
    26    11    12    1
    27    24    25   ar
    28    25    26   ar
    29    26    38    1
    30    38    39    1
    31    39    40    1
    32    26    27   ar
    33    27    28    1
    34    28    29   ar
    35    29    30   ar
    36    30    31   ar
    37    31    32    1
    38    31    33   ar
    39    33    34   ar
    40    27    22   ar
    41    34    28   ar
    42     7     2    1
    43    18    13   ar
    44    12     5    1
@<TRIPOS>MOLECULE
*****
 40 44 0 0 0
SMALL
GASTEIGER

@<TRIPOS>ATOM
      1 C           8.1567   -4.9812   31.0162 C.3     1  UNL1        0.0993
      2 N           8.0286   -5.1001   29.5264 N.3     1  UNL1       -0.2690
      3 C           7.3082   -4.0390   28.7485 C.3     1  UNL1        0.0724
      4 C           7.1802   -4.1579   27.2588 C.3     1  UNL1        0.0195
      5 C           7.7724   -5.3379   26.5469 C.3     1  UNL1        0.0300
      6 C           8.4928   -6.3990   27.3247 C.3     1  UNL1        0.0195
      7 C           8.6208   -6.2801   28.8145 C.3     1  UNL1        0.0724
      8 C           8.3103   -6.4546   25.7020 C.3     1  UNL1        0.0873
      9 C           7.9543   -6.1678   24.2733 C.2     1  UNL1        0.2294
     10 O           8.2961   -7.0245   23.0904 O.2     1  UNL1       -0.2745
     11 N           7.1964   -4.8738   24.2352 N.am    1  UNL1       -0.2586
     12 C           7.0840   -4.3609   25.6403 C.3     1  UNL1        0.0986
     13 C           6.6474   -4.2095   23.0076 C.ar    1  UNL1        0.0538
     14 C           7.5152   -4.0372   21.7963 C.ar    1  UNL1        0.0149
     15 C           6.9661   -3.3728   20.5687 C.ar    1  UNL1        0.0024
     16 C           5.5492   -2.8807   20.5523 C.ar    1  UNL1        0.0141
     17 C           4.6814   -3.0529   21.7636 C.ar    1  UNL1        0.0024
     18 C           5.2305   -3.7173   22.9912 C.ar    1  UNL1        0.0149
     19 C           5.0002   -2.2163   19.3246 C.2     1  UNL1        0.0729
     20 O           4.0622   -1.0532   19.4572 O.co2   1  UNL1       -0.5446
     21 O           5.3890   -2.7150   17.9644 O.co2   1  UNL1       -0.5446
     22 C           8.0112   -1.5965   33.0832 C.ar    1  UNL1        0.1411
     23 C           8.5531   -2.8043   32.3778 C.ar    1  UNL1        0.0342
     24 C           7.6149   -3.7734   31.7216 C.ar    1  UNL1       -0.0001
     25 C           6.1348   -3.5345   31.7707 C.ar    1  UNL1        0.0342
     26 C           5.5930   -2.3267   32.4760 C.ar    1  UNL1        0.1411
     27 C           6.5312   -1.3577   33.1323 C.ar    1  UNL1        0.0679
     28 C           5.9894   -0.1498   33.8376 C.ar    1  UNL1        0.0060
     29 C           6.0016    1.1857   33.1550 C.ar    1  UNL1        0.0025
     30 C           5.4598    2.3936   33.8604 C.ar    1  UNL1        0.0296
     31 C           4.9058    2.2658   35.2484 C.ar    1  UNL1        0.1401
     32 F           4.3640    3.4737   35.9538 F       1  UNL1       -0.2042
     33 C           4.8936    0.9303   35.9311 C.ar    1  UNL1        0.0296
     34 C           5.4354   -0.2776   35.2258 C.ar    1  UNL1        0.0025
     35 O           8.9495   -0.6274   33.7395 O.3     1  UNL1       -0.4754
     36 C           8.9440   -0.3318   36.3207 C.3     1  UNL1        0.0512
     37 C           9.5339   -0.9432   35.0844 C.3     1  UNL1        0.2055
     38 O           4.1130   -2.0879   32.5251 O.3     1  UNL1       -0.4754
     39 C           3.4390   -1.3270   31.4220 C.3     1  UNL1        0.2055
     40 C           4.2614   -0.5694   30.4223 C.3     1  UNL1        0.0512
@<TRIPOS>UNITY_ATOM_ATTR
20 1
charge -1
@<TRIPOS>BOND
     1    36    37    1
     2    37    35    1
     3    35    22    1
     4    22    23   ar
     5    23    24   ar
     6    24     1    1
     7     1     2    1
     8     2     3    1
     9     3     4    1
    10     4     5    1
    11     5     6    1
    12     6     7    1
    13     5     8    1
    14     8     9    1
    15     9    10    2
    16     9    11   am
    17    11    13    1
    18    13    14   ar
    19    14    15   ar
    20    15    16   ar
    21    16    19    1
    22    19    20   ar
    23    19    21   ar
    24    16    17   ar
    25    17    18   ar
    26    11    12    1
    27    24    25   ar
    28    25    26   ar
    29    26    38    1
    30    38    39    1
    31    39    40    1
    32    26    27   ar
    33    27    28    1
    34    28    29   ar
    35    29    30   ar
    36    30    31   ar
    37    31    32    1
    38    31    33   ar
    39    33    34   ar
    40    27    22   ar
    41    34    28   ar
    42     7     2    1
    43    18    13   ar
    44    12     5    1
@<TRIPOS>MOLECULE
*****
 40 44 0 0 0
SMALL
GASTEIGER

@<TRIPOS>ATOM
      1 C           1.8492    0.2952   29.9362 C.3     1  UNL1        0.0993
      2 N           1.1085    1.0815   28.8955 N.3     1  UNL1       -0.2690
      3 C          -0.3785    0.9357   28.7627 C.3     1  UNL1        0.0724
      4 C          -1.1192    1.7220   27.7220 C.3     1  UNL1        0.0195
      5 C          -0.3729    2.6540   26.8141 C.3     1  UNL1        0.0300
      6 C           1.1140    2.7999   26.9469 C.3     1  UNL1        0.0195
      7 C           1.8547    2.0136   27.9876 C.3     1  UNL1        0.0724
      8 C           0.2348    3.6197   25.8403 C.3     1  UNL1        0.0873
      9 C          -0.8681    4.1752   24.9888 C.2     1  UNL1        0.2294
     10 O          -0.7095    5.1771   23.8838 O.2     1  UNL1       -0.2745
     11 N          -2.1575    3.5529   25.4363 N.am    1  UNL1       -0.2586
     12 C          -1.8515    2.6128   26.5644 C.3     1  UNL1        0.0986
     13 C          -3.5145    3.8232   24.8574 C.ar    1  UNL1        0.0538
     14 C          -3.7914    3.5100   23.4169 C.ar    1  UNL1        0.0149
     15 C          -5.1485    3.7803   22.8380 C.ar    1  UNL1        0.0024
     16 C          -6.2288    4.3638   23.6996 C.ar    1  UNL1        0.0141
     17 C          -5.9520    4.6770   25.1402 C.ar    1  UNL1        0.0024
     18 C          -4.5948    4.4067   25.7191 C.ar    1  UNL1        0.0149
     19 C          -7.5860    4.6341   23.1207 C.2     1  UNL1        0.0729
     20 O          -8.8148    4.1503   23.8321 O.co2   1  UNL1       -0.5446
     21 O          -7.7143    5.3883   21.8304 O.co2   1  UNL1       -0.5446
     22 C           3.7491    1.0744   33.3323 C.ar    1  UNL1        0.1411
     23 C           3.3889    0.4345   32.0243 C.ar    1  UNL1        0.0342
     24 C           2.2095    0.9350   31.2442 C.ar    1  UNL1       -0.0001
     25 C           1.3904    2.0754   31.7721 C.ar    1  UNL1        0.0342
     26 C           1.7507    2.7153   33.0800 C.ar    1  UNL1        0.1411
     27 C           2.9301    2.2147   33.8602 C.ar    1  UNL1        0.0679
     28 C           3.2903    2.8546   35.1681 C.ar    1  UNL1        0.0060
     29 C           4.3990    3.8631   35.2295 C.ar    1  UNL1        0.0025
     30 C           4.7592    4.5029   36.5375 C.ar    1  UNL1        0.0296
     31 C           4.0109    4.1342   37.7841 C.ar    1  UNL1        0.1401
     32 F           4.3712    4.7740   39.0920 F       1  UNL1       -0.2042
     33 C           2.9023    3.1257   37.7227 C.ar    1  UNL1        0.0296
     34 C           2.5420    2.4858   36.4148 C.ar    1  UNL1        0.0025
     35 O           4.9285    0.5738   34.1124 O.3     1  UNL1       -0.4754
     36 C           5.1671   -0.1361   36.6003 C.3     1  UNL1        0.0512
     37 C           4.7329   -0.4431   35.1977 C.3     1  UNL1        0.2055
     38 O           0.9316    3.8556   33.6079 O.3     1  UNL1       -0.4754
     39 C           1.1583    5.2449   33.0895 C.3     1  UNL1        0.2055
     40 C           1.9009    6.2452   33.9249 C.3     1  UNL1        0.0512
@<TRIPOS>UNITY_ATOM_ATTR
20 1
charge -1
@<TRIPOS>BOND
     1    36    37    1
     2    37    35    1
     3    35    22    1
     4    22    23   ar
     5    23    24   ar
     6    24     1    1
     7     1     2    1
     8     2     3    1
     9     3     4    1
    10     4     5    1
    11     5     6    1
    12     6     7    1
    13     5     8    1
    14     8     9    1
    15     9    10    2
    16     9    11   am
    17    11    13    1
    18    13    14   ar
    19    14    15   ar
    20    15    16   ar
    21    16    19    1
    22    19    20   ar
    23    19    21   ar
    24    16    17   ar
    25    17    18   ar
    26    11    12    1
    27    24    25   ar
    28    25    26   ar
    29    26    38    1
    30    38    39    1
    31    39    40    1
    32    26    27   ar
    33    27    28    1
    34    28    29   ar
    35    29    30   ar
    36    30    31   ar
    37    31    32    1
    38    31    33   ar
    39    33    34   ar
    40    27    22   ar
    41    34    28   ar
    42     7     2    1
    43    18    13   ar
    44    12     5    1
@<TRIPOS>MOLECULE
*****
 40 44 0 0 0
SMALL
GASTEIGER

@<TRIPOS>ATOM
      1 C           7.8252   -4.4025   28.0447 C.3     1  UNL1        0.0993
      2 N           7.6507   -3.3719   29.1207 N.3     1  UNL1       -0.2690
      3 C           6.5313   -3.5032   30.1105 C.3     1  UNL1        0.0724
      4 C           6.3569   -2.4727   31.1863 C.3     1  UNL1        0.0195
      5 C           7.3018   -1.3109   31.2724 C.3     1  UNL1        0.0300
      6 C           8.4212   -1.1796   30.2826 C.3     1  UNL1        0.0195
      7 C           8.5956   -2.2101   29.2068 C.3     1  UNL1        0.0724
      8 C           8.1634   -0.1012   31.4827 C.3     1  UNL1        0.0873
      9 C           7.6292    0.6483   32.6672 C.2     1  UNL1        0.2294
     10 O           8.1885    1.9208   33.2310 O.2     1  UNL1       -0.2745
     11 N           6.4373   -0.0983   33.1890 N.am    1  UNL1       -0.2586
     12 C           6.2350   -1.3091   32.3270 C.3     1  UNL1        0.0986
     13 C           5.5956    0.2966   34.3660 C.ar    1  UNL1        0.0538
     14 C           4.5044    1.3123   34.2007 C.ar    1  UNL1        0.0149
     15 C           3.6627    1.7072   35.3778 C.ar    1  UNL1        0.0024
     16 C           3.9122    1.0864   36.7203 C.ar    1  UNL1        0.0141
     17 C           5.0035    0.0705   36.8857 C.ar    1  UNL1        0.0024
     18 C           5.8452   -0.3243   35.7085 C.ar    1  UNL1        0.0149
     19 C           3.0705    1.4813   37.8974 C.2     1  UNL1        0.0729
     20 O           1.7928    2.2382   37.6856 O.co2   1  UNL1       -0.5446
     21 O           3.5064    1.1193   39.2863 O.co2   1  UNL1       -0.5446
     22 C           6.0647   -2.6061   24.9749 C.ar    1  UNL1        0.1411
     23 C           6.5365   -2.8910   26.3700 C.ar    1  UNL1        0.0342
     24 C           7.3534   -4.1176   26.6497 C.ar    1  UNL1       -0.0001
     25 C           7.6986   -5.0592   25.5342 C.ar    1  UNL1        0.0342
     26 C           7.2268   -4.7743   24.1392 C.ar    1  UNL1        0.1411
     27 C           6.4098   -3.5478   23.8595 C.ar    1  UNL1        0.0679
     28 C           5.9381   -3.2628   22.4645 C.ar    1  UNL1        0.0060
     29 C           6.7381   -2.3613   21.5716 C.ar    1  UNL1        0.0025
     30 C           6.2662   -2.0764   20.1765 C.ar    1  UNL1        0.0296
     31 C           4.9944   -2.6930   19.6743 C.ar    1  UNL1        0.1401
     32 F           4.5226   -2.4081   18.2793 F       1  UNL1       -0.2042
     33 C           4.1944   -3.5945   20.5672 C.ar    1  UNL1        0.0296
     34 C           4.6662   -3.8795   21.9622 C.ar    1  UNL1        0.0025
     35 O           5.2478   -1.3796   24.6953 O.3     1  UNL1       -0.4754
     36 C           3.5650   -0.6167   26.5218 C.3     1  UNL1        0.0512
     37 C           3.8408   -1.2829   25.2065 C.3     1  UNL1        0.2055
     38 O           7.5719   -5.7159   23.0238 O.3     1  UNL1       -0.4754
     39 C           8.9348   -5.6708   22.3987 C.3     1  UNL1        0.2055
     40 C           9.1190   -5.0516   21.0450 C.3     1  UNL1        0.0512
@<TRIPOS>UNITY_ATOM_ATTR
20 1
charge -1
@<TRIPOS>BOND
     1    36    37    1
     2    37    35    1
     3    35    22    1
     4    22    23   ar
     5    23    24   ar
     6    24     1    1
     7     1     2    1
     8     2     3    1
     9     3     4    1
    10     4     5    1
    11     5     6    1
    12     6     7    1
    13     5     8    1
    14     8     9    1
    15     9    10    2
    16     9    11   am
    17    11    13    1
    18    13    14   ar
    19    14    15   ar
    20    15    16   ar
    21    16    19    1
    22    19    20   ar
    23    19    21   ar
    24    16    17   ar
    25    17    18   ar
    26    11    12    1
    27    24    25   ar
    28    25    26   ar
    29    26    38    1
    30    38    39    1
    31    39    40    1
    32    26    27   ar
    33    27    28    1
    34    28    29   ar
    35    29    30   ar
    36    30    31   ar
    37    31    32    1
    38    31    33   ar
    39    33    34   ar
    40    27    22   ar
    41    34    28   ar
    42     7     2    1
    43    18    13   ar
    44    12     5    1
@<TRIPOS>MOLECULE
*****
 40 44 0 0 0
SMALL
GASTEIGER

@<TRIPOS>ATOM
      1 C           2.2049   -0.5142   28.9425 C.3     1  UNL1        0.0993
      2 N           1.3630    0.5456   28.2958 N.3     1  UNL1       -0.2690
      3 C          -0.1300    0.4035   28.2668 C.3     1  UNL1        0.0724
      4 C          -0.9718    1.4633   27.6201 C.3     1  UNL1        0.0195
      5 C          -0.3206    2.6652   27.0025 C.3     1  UNL1        0.0300
      6 C           1.1723    2.8073   27.0316 C.3     1  UNL1        0.0195
      7 C           2.0141    1.7476   27.6782 C.3     1  UNL1        0.0724
      8 C           0.1860    3.9159   26.3475 C.3     1  UNL1        0.0873
      9 C          -0.9972    4.6841   25.8375 C.2     1  UNL1        0.2294
     10 O          -0.9506    5.9976   25.1146 O.2     1  UNL1       -0.2745
     11 N          -2.2351    3.9080   26.1773 N.am    1  UNL1       -0.2586
     12 C          -1.8170    2.6603   26.8973 C.3     1  UNL1        0.0986
     13 C          -3.6437    4.3093   25.8539 C.ar    1  UNL1        0.0538
     14 C          -4.2718    3.8689   24.5649 C.ar    1  UNL1        0.0149
     15 C          -5.6805    4.2702   24.2414 C.ar    1  UNL1        0.0024
     16 C          -6.4611    5.1118   25.2070 C.ar    1  UNL1        0.0141
     17 C          -5.8330    5.5522   26.4961 C.ar    1  UNL1        0.0024
     18 C          -4.4243    5.1509   26.8194 C.ar    1  UNL1        0.0149
     19 C          -7.8698    5.5131   24.8836 C.2     1  UNL1        0.0729
     20 O          -8.6972    6.2354   25.9052 O.co2   1  UNL1       -0.5446
     21 O          -8.4511    5.1920   23.5386 O.co2   1  UNL1       -0.5446
     22 C           2.9148    0.9715   32.5535 C.ar    1  UNL1        0.1411
     23 C           2.2440    0.6986   31.2398 C.ar    1  UNL1        0.0342
     24 C           2.8756   -0.2414   30.2561 C.ar    1  UNL1       -0.0001
     25 C           4.1779   -0.9086   30.5862 C.ar    1  UNL1        0.0342
     26 C           4.8486   -0.6357   31.8998 C.ar    1  UNL1        0.1411
     27 C           4.2171    0.3043   32.8835 C.ar    1  UNL1        0.0679
     28 C           4.8878    0.5771   34.1971 C.ar    1  UNL1        0.0060
     29 C           4.6892   -0.3619   35.3499 C.ar    1  UNL1        0.0025
     30 C           5.3600   -0.0890   36.6636 C.ar    1  UNL1        0.0296
     31 C           6.2293    1.1228   36.8244 C.ar    1  UNL1        0.1401
     32 F           6.9000    1.3956   38.1380 F       1  UNL1       -0.2042
     33 C           6.4279    2.0617   35.6716 C.ar    1  UNL1        0.0296
     34 C           5.7572    1.7889   34.3580 C.ar    1  UNL1        0.0025
     35 O           2.2833    1.9115   33.5371 O.3     1  UNL1       -0.4754
     36 C           2.8893    4.2167   34.5709 C.3     1  UNL1        0.0512
     37 C           2.4744    3.3919   33.3888 C.3     1  UNL1        0.2055
     38 O           6.1509   -1.3029   32.2298 O.3     1  UNL1       -0.4754
     39 C           6.1766   -2.7569   32.5977 C.3     1  UNL1        0.2055
     40 C           7.0778   -3.7016   31.8592 C.3     1  UNL1        0.0512
@<TRIPOS>UNITY_ATOM_ATTR
20 1
charge -1
@<TRIPOS>BOND
     1    36    37    1
     2    37    35    1
     3    35    22    1
     4    22    23   ar
     5    23    24   ar
     6    24     1    1
     7     1     2    1
     8     2     3    1
     9     3     4    1
    10     4     5    1
    11     5     6    1
    12     6     7    1
    13     5     8    1
    14     8     9    1
    15     9    10    2
    16     9    11   am
    17    11    13    1
    18    13    14   ar
    19    14    15   ar
    20    15    16   ar
    21    16    19    1
    22    19    20   ar
    23    19    21   ar
    24    16    17   ar
    25    17    18   ar
    26    11    12    1
    27    24    25   ar
    28    25    26   ar
    29    26    38    1
    30    38    39    1
    31    39    40    1
    32    26    27   ar
    33    27    28    1
    34    28    29   ar
    35    29    30   ar
    36    30    31   ar
    37    31    32    1
    38    31    33   ar
    39    33    34   ar
    40    27    22   ar
    41    34    28   ar
    42     7     2    1
    43    18    13   ar
    44    12     5    1
@<TRIPOS>MOLECULE
*****
 40 44 0 0 0
SMALL
GASTEIGER

@<TRIPOS>ATOM
      1 C           6.5226   -3.5433   32.1992 C.3     1  UNL1        0.0993
      2 N           6.6693   -4.0009   30.7782 N.3     1  UNL1       -0.2690
      3 C           6.4687   -3.0296   29.6529 C.3     1  UNL1        0.0724
      4 C           6.6155   -3.4872   28.2320 C.3     1  UNL1        0.0195
      5 C           6.9628   -4.9161   27.9364 C.3     1  UNL1        0.0300
      6 C           7.1634   -5.8875   29.0616 C.3     1  UNL1        0.0195
      7 C           7.0166   -5.4299   30.4825 C.3     1  UNL1        0.0724
      8 C           7.3050   -6.3063   27.4886 C.3     1  UNL1        0.0873
      9 C           7.3468   -6.3133   25.9892 C.2     1  UNL1        0.2294
     10 O           7.6515   -7.4980   25.1211 O.2     1  UNL1       -0.2745
     11 N           7.0305   -4.9274   25.5102 N.am    1  UNL1       -0.2586
     12 C           6.7932   -4.0639   26.7136 C.3     1  UNL1        0.0986
     13 C           6.9633   -4.4830   24.0792 C.ar    1  UNL1        0.0538
     14 C           8.0886   -4.8037   23.1406 C.ar    1  UNL1        0.0149
     15 C           8.0213   -4.3593   21.7095 C.ar    1  UNL1        0.0024
     16 C           6.8289   -3.5942   21.2170 C.ar    1  UNL1        0.0141
     17 C           5.7035   -3.2735   22.1556 C.ar    1  UNL1        0.0024
     18 C           5.7708   -3.7179   23.5867 C.ar    1  UNL1        0.0149
     19 C           6.7616   -3.1498   19.7859 C.2     1  UNL1        0.0729
     20 O           5.4760   -3.2708   19.0226 O.co2   1  UNL1       -0.5446
     21 O           7.9800   -2.5845   19.1181 O.co2   1  UNL1       -0.5446
     22 C           3.8065   -0.6503   32.2605 C.ar    1  UNL1        0.1411
     23 C           4.4794   -1.9566   31.9589 C.ar    1  UNL1        0.0342
     24 C           5.8497   -2.2371   32.5008 C.ar    1  UNL1       -0.0001
     25 C           6.5471   -1.2114   33.3443 C.ar    1  UNL1        0.0342
     26 C           5.8742    0.0949   33.6459 C.ar    1  UNL1        0.1411
     27 C           4.5039    0.3754   33.1040 C.ar    1  UNL1        0.0679
     28 C           3.8311    1.6816   33.4056 C.ar    1  UNL1        0.0060
     29 C           4.0000    2.8450   32.4740 C.ar    1  UNL1        0.0025
     30 C           3.3270    4.1512   32.7757 C.ar    1  UNL1        0.0296
     31 C           2.4852    4.2940   34.0089 C.ar    1  UNL1        0.1401
     32 F           1.8124    5.6002   34.3105 F       1  UNL1       -0.2042
     33 C           2.3163    3.1306   34.9405 C.ar    1  UNL1        0.0296
     34 C           2.9892    1.8244   34.6389 C.ar    1  UNL1        0.0025
     35 O           2.4362   -0.3698   31.7187 O.3     1  UNL1       -0.4754
     36 C           2.4398   -0.5971   29.1305 C.3     1  UNL1        0.0512
     37 C           2.2786    0.2466   30.3602 C.3     1  UNL1        0.2055
     38 O           6.5716    1.1205   34.4894 O.3     1  UNL1       -0.4754
     39 C           6.7180    0.9032   35.9664 C.3     1  UNL1        0.2055
     40 C           5.6696    0.1395   36.7197 C.3     1  UNL1        0.0512
@<TRIPOS>UNITY_ATOM_ATTR
20 1
charge -1
@<TRIPOS>BOND
     1    36    37    1
     2    37    35    1
     3    35    22    1
     4    22    23   ar
     5    23    24   ar
     6    24     1    1
     7     1     2    1
     8     2     3    1
     9     3     4    1
    10     4     5    1
    11     5     6    1
    12     6     7    1
    13     5     8    1
    14     8     9    1
    15     9    10    2
    16     9    11   am
    17    11    13    1
    18    13    14   ar
    19    14    15   ar
    20    15    16   ar
    21    16    19    1
    22    19    20   ar
    23    19    21   ar
    24    16    17   ar
    25    17    18   ar
    26    11    12    1
    27    24    25   ar
    28    25    26   ar
    29    26    38    1
    30    38    39    1
    31    39    40    1
    32    26    27   ar
    33    27    28    1
    34    28    29   ar
    35    29    30   ar
    36    30    31   ar
    37    31    32    1
    38    31    33   ar
    39    33    34   ar
    40    27    22   ar
    41    34    28   ar
    42     7     2    1
    43    18    13   ar
    44    12     5    1
@<TRIPOS>MOLECULE
*****
 40 44 0 0 0
SMALL
GASTEIGER

@<TRIPOS>ATOM
      1 C           1.2085    2.5644   26.3634 C.3     1  UNL1        0.0993
      2 N           1.6722    1.9477   27.6499 N.3     1  UNL1       -0.2690
      3 C           1.8264    2.7976   28.8762 C.3     1  UNL1        0.0724
      4 C           2.2901    2.1809   30.1625 C.3     1  UNL1        0.0195
      5 C           2.5995    0.7144   30.2225 C.3     1  UNL1        0.0300
      6 C           2.4453   -0.1354   28.9962 C.3     1  UNL1        0.0195
      7 C           1.9816    0.4812   27.7099 C.3     1  UNL1        0.0724
      8 C           2.9445   -0.7300   30.4339 C.3     1  UNL1        0.0873
      9 C           3.3579   -0.9033   31.8654 C.2     1  UNL1        0.2294
     10 O           3.7856   -2.1882   32.5103 O.2     1  UNL1       -0.2745
     11 N           3.2682    0.4342   32.5388 N.am    1  UNL1       -0.2586
     12 C           2.7996    1.4339   31.5235 C.3     1  UNL1        0.0986
     13 C           3.5907    0.7214   33.9752 C.ar    1  UNL1        0.0538
     14 C           4.5628   -0.1497   34.7143 C.ar    1  UNL1        0.0149
     15 C           4.8852    0.1375   36.1509 C.ar    1  UNL1        0.0024
     16 C           4.2356    1.2958   36.8483 C.ar    1  UNL1        0.0141
     17 C           3.2634    2.1669   36.1092 C.ar    1  UNL1        0.0024
     18 C           2.9410    1.8796   34.6727 C.ar    1  UNL1        0.0149
     19 C           4.5581    1.5830   38.2848 C.2     1  UNL1        0.0729
     20 O           3.5980    1.1789   39.3643 O.co2   1  UNL1       -0.5446
     21 O           5.8405    2.2743   38.6419 O.co2   1  UNL1       -0.5446
     22 C           1.0561    1.1830   22.6461 C.ar    1  UNL1        0.1411
     23 C           0.6295    1.7734   23.9574 C.ar    1  UNL1        0.0342
     24 C           1.6351    1.9741   25.0522 C.ar    1  UNL1       -0.0001
     25 C           3.0673    1.5844   24.8356 C.ar    1  UNL1        0.0342
     26 C           3.4939    0.9940   23.5243 C.ar    1  UNL1        0.1411
     27 C           2.4883    0.7934   22.4296 C.ar    1  UNL1        0.0679
     28 C           2.9149    0.2030   21.1183 C.ar    1  UNL1        0.0060
     29 C           3.5401    1.0759   20.0708 C.ar    1  UNL1        0.0025
     30 C           3.9667    0.4855   18.7595 C.ar    1  UNL1        0.0296
     31 C           3.7681   -0.9777   18.4957 C.ar    1  UNL1        0.1401
     32 F           4.1947   -1.5680   17.1844 F       1  UNL1       -0.2042
     33 C           3.1429   -1.8505   19.5432 C.ar    1  UNL1        0.0296
     34 C           2.7163   -1.2602   20.8544 C.ar    1  UNL1        0.0025
     35 O           0.0505    0.9823   21.5513 O.3     1  UNL1       -0.4754
     36 C           0.2282    2.3037   19.3214 C.3     1  UNL1        0.0512
     37 C          -0.3621    2.1395   20.6906 C.3     1  UNL1        0.2055
     38 O           4.9261    0.6044   23.3078 O.3     1  UNL1       -0.4754
     39 C           5.4253   -0.7217   23.8002 C.3     1  UNL1        0.2055
     40 C           4.4517   -1.8138   24.1309 C.3     1  UNL1        0.0512
@<TRIPOS>UNITY_ATOM_ATTR
20 1
charge -1
@<TRIPOS>BOND
     1    36    37    1
     2    37    35    1
     3    35    22    1
     4    22    23   ar
     5    23    24   ar
     6    24     1    1
     7     1     2    1
     8     2     3    1
     9     3     4    1
    10     4     5    1
    11     5     6    1
    12     6     7    1
    13     5     8    1
    14     8     9    1
    15     9    10    2
    16     9    11   am
    17    11    13    1
    18    13    14   ar
    19    14    15   ar
    20    15    16   ar
    21    16    19    1
    22    19    20   ar
    23    19    21   ar
    24    16    17   ar
    25    17    18   ar
    26    11    12    1
    27    24    25   ar
    28    25    26   ar
    29    26    38    1
    30    38    39    1
    31    39    40    1
    32    26    27   ar
    33    27    28    1
    34    28    29   ar
    35    29    30   ar
    36    30    31   ar
    37    31    32    1
    38    31    33   ar
    39    33    34   ar
    40    27    22   ar
    41    34    28   ar
    42     7     2    1
    43    18    13   ar
    44    12     5    1
@<TRIPOS>MOLECULE
*****
 40 44 0 0 0
SMALL
GASTEIGER

@<TRIPOS>ATOM
      1 C           8.5219   -0.9434   27.5914 C.3     1  UNL1        0.0993
      2 N           7.6826   -1.0188   28.8324 N.3     1  UNL1       -0.2690
      3 C           7.4820    0.2041   29.6776 C.3     1  UNL1        0.0724
      4 C           6.6428    0.1286   30.9185 C.3     1  UNL1        0.0195
      5 C           6.0041   -1.1697   31.3142 C.3     1  UNL1        0.0300
      6 C           6.2048   -2.3925   30.4691 C.3     1  UNL1        0.0195
      7 C           7.0440   -2.3171   29.2281 C.3     1  UNL1        0.0724
      8 C           5.3063   -2.3916   31.8338 C.3     1  UNL1        0.0873
      9 C           4.5862   -2.0135   33.0942 C.2     1  UNL1        0.2294
     10 O           3.7586   -2.9301   33.9457 O.2     1  UNL1       -0.2745
     11 N           4.8391   -0.5579   33.3537 N.am    1  UNL1       -0.2586
     12 C           5.7154   -0.0364   32.2537 C.3     1  UNL1        0.0986
     13 C           4.3088    0.2366   34.5101 C.ar    1  UNL1        0.0538
     14 C           4.6642   -0.1538   35.9141 C.ar    1  UNL1        0.0149
     15 C           4.1339    0.6408   37.0706 C.ar    1  UNL1        0.0024
     16 C           3.2481    1.8258   36.8231 C.ar    1  UNL1        0.0141
     17 C           2.8927    2.2162   35.4190 C.ar    1  UNL1        0.0024
     18 C           3.4231    1.4216   34.2626 C.ar    1  UNL1        0.0149
     19 C           2.7178    2.6203   37.9796 C.2     1  UNL1        0.0729
     20 O           3.6478    3.0798   39.0632 O.co2   1  UNL1       -0.5446
     21 O           1.2576    2.9555   38.0525 O.co2   1  UNL1       -0.5446
     22 C           7.7726   -3.3335   24.5131 C.ar    1  UNL1        0.1411
     23 C           8.3159   -2.8305   25.8177 C.ar    1  UNL1        0.0342
     24 C           7.9786   -1.4463   26.2869 C.ar    1  UNL1       -0.0001
     25 C           7.0979   -0.5651   25.4515 C.ar    1  UNL1        0.0342
     26 C           6.5546   -1.0680   24.1469 C.ar    1  UNL1        0.1411
     27 C           6.8919   -2.4522   23.6777 C.ar    1  UNL1        0.0679
     28 C           6.3486   -2.9552   22.3732 C.ar    1  UNL1        0.0060
     29 C           4.9800   -3.5666   22.3165 C.ar    1  UNL1        0.0025
     30 C           4.4368   -4.0695   21.0119 C.ar    1  UNL1        0.0296
     31 C           5.2620   -3.9611   19.7641 C.ar    1  UNL1        0.1401
     32 F           4.7188   -4.4641   18.4596 F       1  UNL1       -0.2042
     33 C           6.6306   -3.3498   19.8208 C.ar    1  UNL1        0.0296
     34 C           7.1739   -2.8468   21.1253 C.ar    1  UNL1        0.0025
     35 O           8.1099   -4.7177   24.0439 O.3     1  UNL1       -0.4754
     36 C           8.1141   -7.2861   24.4357 C.3     1  UNL1        0.0512
     37 C           7.7193   -5.9062   24.8716 C.3     1  UNL1        0.2055
     38 O           5.6739   -0.1868   23.3116 O.3     1  UNL1       -0.4754
     39 C           4.2800    0.1289   23.7673 C.3     1  UNL1        0.2055
     40 C           3.4682   -0.9146   24.4759 C.3     1  UNL1        0.0512
@<TRIPOS>UNITY_ATOM_ATTR
20 1
charge -1
@<TRIPOS>BOND
     1    36    37    1
     2    37    35    1
     3    35    22    1
     4    22    23   ar
     5    23    24   ar
     6    24     1    1
     7     1     2    1
     8     2     3    1
     9     3     4    1
    10     4     5    1
    11     5     6    1
    12     6     7    1
    13     5     8    1
    14     8     9    1
    15     9    10    2
    16     9    11   am
    17    11    13    1
    18    13    14   ar
    19    14    15   ar
    20    15    16   ar
    21    16    19    1
    22    19    20   ar
    23    19    21   ar
    24    16    17   ar
    25    17    18   ar
    26    11    12    1
    27    24    25   ar
    28    25    26   ar
    29    26    38    1
    30    38    39    1
    31    39    40    1
    32    26    27   ar
    33    27    28    1
    34    28    29   ar
    35    29    30   ar
    36    30    31   ar
    37    31    32    1
    38    31    33   ar
    39    33    34   ar
    40    27    22   ar
    41    34    28   ar
    42     7     2    1
    43    18    13   ar
    44    12     5    1
