@<TRIPOS>MOLECULE
*****
 34 37 0 0 0
SMALL
GASTEIGER

@<TRIPOS>ATOM
      1 C          -8.2906  -18.4334   21.7865 C.ar    1  UNL1        0.1474
      2 C          -7.0496  -19.2188   21.4817 C.ar    1  UNL1        0.0390
      3 C          -5.7327  -18.7954   22.0618 C.ar    1  UNL1        0.0205
      4 C          -5.6569  -17.5866   22.9467 C.ar    1  UNL1        0.0662
      5 C          -6.8979  -16.8012   23.2515 C.ar    1  UNL1        0.0767
      6 C          -8.2148  -17.2246   22.6714 C.ar    1  UNL1        0.0438
      7 C          -6.8221  -15.5924   24.1364 C.ar    1  UNL1        0.2820
      8 O          -8.0631  -14.8070   24.4411 O.2     1  UNL1       -0.2651
      9 N          -5.5053  -15.1690   24.7165 N.ar    1  UNL1       -0.1873
     10 C          -4.2641  -15.9544   24.4118 C.ar    1  UNL1        0.1819
     11 N          -4.3400  -17.1632   23.5269 N.ar    1  UNL1       -0.3057
     12 O          -9.6075  -18.8568   21.2063 O.3     1  UNL1       -0.4360
     13 C         -12.7072  -18.1403   23.5788 C.ar    1  UNL1        0.1487
     14 C         -13.4338  -17.0934   22.7875 C.ar    1  UNL1        0.0577
     15 C         -12.8850  -16.6344   21.4691 C.ar    1  UNL1        0.1052
     16 N         -11.6096  -17.2222   20.9420 N.ar    1  UNL1       -0.2097
     17 C         -10.8829  -18.2690   21.7333 C.ar    1  UNL1        0.2365
     18 C         -11.4318  -18.7280   23.0517 C.ar    1  UNL1        0.1586
     19 C         -10.7052  -19.7749   23.8431 C.3     1  UNL1        0.4257
     20 F          -9.9786  -20.8217   24.6344 F       1  UNL1       -0.1656
     21 F         -11.1218  -20.8166   22.8475 F       1  UNL1       -0.1656
     22 F         -10.2886  -18.7331   24.8386 F       1  UNL1       -0.1656
     23 C         -14.7272  -18.5004   25.1725 C.3     1  UNL1        0.2525
     24 O         -13.2560  -18.5993   24.8971 O.3     1  UNL1       -0.4713
     25 C          -3.0989  -17.9487   23.2221 C.3     1  UNL1        0.1387
     26 C          -2.5323  -17.9469   21.8332 C.ar    1  UNL1        0.0555
     27 C          -1.9588  -16.6855   21.2588 C.ar    1  UNL1        0.1424
     28 F          -1.9517  -15.4259   22.0733 F       1  UNL1       -0.2043
     29 C          -1.3922  -16.6838   19.8699 C.ar    1  UNL1        0.0591
     30 C          -1.3993  -17.9434   19.0555 C.ar    1  UNL1        0.1446
     31 F          -0.8327  -17.9416   17.6665 F       1  UNL1       -0.2040
     32 C          -1.9728  -19.2047   19.6298 C.ar    1  UNL1        0.0591
     33 C          -2.5394  -19.2064   21.0187 C.ar    1  UNL1        0.1424
     34 F          -3.1130  -20.4678   21.5932 F       1  UNL1       -0.2043
@<TRIPOS>BOND
     1    23    24    1
     2    24    13    1
     3    13    14   ar
     4    14    15   ar
     5    15    16   ar
     6    16    17   ar
     7    17    12    1
     8    12     1    1
     9     1     2   ar
    10     2     3   ar
    11     3     4   ar
    12     4     5   ar
    13     5     6   ar
    14     5     7   ar
    15     7     8    2
    16     7     9   ar
    17     9    10   ar
    18    10    11   ar
    19    11    25    1
    20    25    26    1
    21    26    27   ar
    22    27    28    1
    23    27    29   ar
    24    29    30   ar
    25    30    31    1
    26    30    32   ar
    27    32    33   ar
    28    33    34    1
    29    17    18   ar
    30    18    19    1
    31    19    20    1
    32    19    21    1
    33    19    22    1
    34    18    13   ar
    35     6     1   ar
    36    33    26   ar
    37    11     4   ar
@<TRIPOS>MOLECULE
*****
 34 37 0 0 0
SMALL
GASTEIGER

@<TRIPOS>ATOM
      1 C          -4.8997  -18.2560   22.7635 C.ar    1  UNL1        0.1474
      2 C          -6.0243  -18.9169   22.0230 C.ar    1  UNL1        0.0390
      3 C          -7.4261  -18.4057   22.1764 C.ar    1  UNL1        0.0205
      4 C          -7.7033  -17.2335   23.0704 C.ar    1  UNL1        0.0662
      5 C          -6.5787  -16.5726   23.8110 C.ar    1  UNL1        0.0767
      6 C          -5.1769  -17.0839   23.6575 C.ar    1  UNL1        0.0438
      7 C          -6.8558  -15.4005   24.7050 C.ar    1  UNL1        0.2820
      8 O          -5.7312  -14.7396   25.4455 O.2     1  UNL1       -0.2651
      9 N          -8.2576  -14.8892   24.8584 N.ar    1  UNL1       -0.1873
     10 C          -9.3823  -15.5501   24.1179 C.ar    1  UNL1        0.1819
     11 N          -9.1051  -16.7223   23.2239 N.ar    1  UNL1       -0.3057
     12 O          -3.4979  -18.7673   22.6100 O.3     1  UNL1       -0.4360
     13 C          -1.4862  -17.8233   19.3219 C.ar    1  UNL1        0.1487
     14 C          -0.6384  -16.6919   19.8232 C.ar    1  UNL1        0.0577
     15 C          -0.7438  -16.2523   21.2534 C.ar    1  UNL1        0.1052
     16 N          -1.6970  -16.9441   22.1824 N.ar    1  UNL1       -0.2097
     17 C          -2.5447  -18.0755   21.6811 C.ar    1  UNL1        0.2365
     18 C          -2.4393  -18.5151   20.2508 C.ar    1  UNL1        0.1586
     19 C          -3.2871  -19.6464   19.7495 C.3     1  UNL1        0.4257
     20 F          -4.1348  -20.7778   19.2482 F       1  UNL1       -0.1656
     21 F          -2.3961  -20.6262   20.4540 F       1  UNL1       -0.1656
     22 F          -4.1780  -18.6667   19.0449 F       1  UNL1       -0.1656
     23 C          -1.9843  -17.4255   16.8032 C.3     1  UNL1        0.2525
     24 O          -1.3808  -18.2629   17.8916 O.3     1  UNL1       -0.4713
     25 C         -10.2297  -17.3832   22.4834 C.3     1  UNL1        0.1387
     26 C         -11.4959  -17.7391   23.2047 C.ar    1  UNL1        0.0555
     27 C         -11.4391  -18.5587   24.4596 C.ar    1  UNL1        0.1424
     28 F         -10.1162  -19.0224   24.9934 F       1  UNL1       -0.2043
     29 C         -12.7052  -18.9146   25.1809 C.ar    1  UNL1        0.0591
     30 C         -14.0281  -18.4510   24.6471 C.ar    1  UNL1        0.1446
     31 F         -15.2943  -18.8069   25.3684 F       1  UNL1       -0.2040
     32 C         -14.0850  -17.6314   23.3922 C.ar    1  UNL1        0.0591
     33 C         -12.8188  -17.2755   22.6709 C.ar    1  UNL1        0.1424
     34 F         -12.8756  -16.4558   21.4159 F       1  UNL1       -0.2043
@<TRIPOS>BOND
     1    23    24    1
     2    24    13    1
     3    13    14   ar
     4    14    15   ar
     5    15    16   ar
     6    16    17   ar
     7    17    12    1
     8    12     1    1
     9     1     2   ar
    10     2     3   ar
    11     3     4   ar
    12     4     5   ar
    13     5     6   ar
    14     5     7   ar
    15     7     8    2
    16     7     9   ar
    17     9    10   ar
    18    10    11   ar
    19    11    25    1
    20    25    26    1
    21    26    27   ar
    22    27    28    1
    23    27    29   ar
    24    29    30   ar
    25    30    31    1
    26    30    32   ar
    27    32    33   ar
    28    33    34    1
    29    17    18   ar
    30    18    19    1
    31    19    20    1
    32    19    21    1
    33    19    22    1
    34    18    13   ar
    35     6     1   ar
    36    33    26   ar
    37    11     4   ar
@<TRIPOS>MOLECULE
*****
 34 37 0 0 0
SMALL
GASTEIGER

@<TRIPOS>ATOM
      1 C          -5.3467  -18.3725   22.8704 C.ar    1  UNL1        0.1474
      2 C          -6.6265  -19.0296   22.4456 C.ar    1  UNL1        0.0390
      3 C          -7.9439  -18.4210   22.8251 C.ar    1  UNL1        0.0205
      4 C          -7.9815  -17.1554   23.6294 C.ar    1  UNL1        0.0662
      5 C          -6.7018  -16.4984   24.0542 C.ar    1  UNL1        0.0767
      6 C          -5.3844  -17.1070   23.6747 C.ar    1  UNL1        0.0438
      7 C          -6.7394  -15.2328   24.8585 C.ar    1  UNL1        0.2820
      8 O          -5.4597  -14.5758   25.2833 O.2     1  UNL1       -0.2651
      9 N          -8.0568  -14.6243   25.2380 N.ar    1  UNL1       -0.1873
     10 C          -9.3367  -15.2813   24.8132 C.ar    1  UNL1        0.1819
     11 N          -9.2990  -16.5468   24.0089 N.ar    1  UNL1       -0.3057
     12 O          -4.0292  -18.9811   22.4909 O.3     1  UNL1       -0.4360
     13 C          -1.6864  -17.7675   19.5265 C.ar    1  UNL1        0.1487
     14 C          -1.0288  -16.5748   20.1550 C.ar    1  UNL1        0.0577
     15 C          -1.3713  -16.1842   21.5621 C.ar    1  UNL1        0.1052
     16 N          -2.3715  -16.9863   22.3408 N.ar    1  UNL1       -0.2097
     17 C          -3.0291  -18.1790   21.7123 C.ar    1  UNL1        0.2365
     18 C          -2.6865  -18.5696   20.3051 C.ar    1  UNL1        0.1586
     19 C          -3.3441  -19.7623   19.6766 C.3     1  UNL1        0.4257
     20 F          -4.0017  -20.9550   19.0481 F       1  UNL1       -0.1656
     21 F          -4.2907  -18.8559   18.9470 F       1  UNL1       -0.1656
     22 F          -2.3974  -20.6687   20.4062 F       1  UNL1       -0.1656
     23 C          -1.9570  -17.4208   16.9659 C.3     1  UNL1        0.2525
     24 O          -1.3438  -18.1581   18.1194 O.3     1  UNL1       -0.4713
     25 C         -10.5788  -17.2039   23.5841 C.3     1  UNL1        0.1387
     26 C         -10.6782  -17.8495   22.2338 C.ar    1  UNL1        0.0555
     27 C         -10.6555  -17.0043   20.9948 C.ar    1  UNL1        0.1424
     28 F         -10.5334  -15.5134   21.1061 F       1  UNL1       -0.2043
     29 C         -10.7549  -17.6500   19.6446 C.ar    1  UNL1        0.0591
     30 C         -10.8770  -19.1408   19.5333 C.ar    1  UNL1        0.1446
     31 F         -10.9764  -19.7865   18.1829 F       1  UNL1       -0.2040
     32 C         -10.8996  -19.9860   20.7722 C.ar    1  UNL1        0.0591
     33 C         -10.8003  -19.3404   22.1225 C.ar    1  UNL1        0.1424
     34 F         -10.8229  -20.1856   23.3615 F       1  UNL1       -0.2043
@<TRIPOS>BOND
     1    23    24    1
     2    24    13    1
     3    13    14   ar
     4    14    15   ar
     5    15    16   ar
     6    16    17   ar
     7    17    12    1
     8    12     1    1
     9     1     2   ar
    10     2     3   ar
    11     3     4   ar
    12     4     5   ar
    13     5     6   ar
    14     5     7   ar
    15     7     8    2
    16     7     9   ar
    17     9    10   ar
    18    10    11   ar
    19    11    25    1
    20    25    26    1
    21    26    27   ar
    22    27    28    1
    23    27    29   ar
    24    29    30   ar
    25    30    31    1
    26    30    32   ar
    27    32    33   ar
    28    33    34    1
    29    17    18   ar
    30    18    19    1
    31    19    20    1
    32    19    21    1
    33    19    22    1
    34    18    13   ar
    35     6     1   ar
    36    33    26   ar
    37    11     4   ar
@<TRIPOS>MOLECULE
*****
 34 37 0 0 0
SMALL
GASTEIGER

@<TRIPOS>ATOM
      1 C           0.4352    1.1400   24.6229 C.ar    1  UNL1        0.1474
      2 C           1.7879    0.4934   24.6672 C.ar    1  UNL1        0.0390
      3 C           2.5615    0.2852   23.3991 C.ar    1  UNL1        0.0205
      4 C           1.9824    0.7237   22.0867 C.ar    1  UNL1        0.0662
      5 C           0.6297    1.3704   22.0424 C.ar    1  UNL1        0.0767
      6 C          -0.1439    1.5785   23.3105 C.ar    1  UNL1        0.0438
      7 C           0.0507    1.8089   20.7300 C.ar    1  UNL1        0.2820
      8 O          -1.3020    2.4555   20.6857 O.2     1  UNL1       -0.2651
      9 N           0.8243    1.6007   19.4619 N.ar    1  UNL1       -0.1873
     10 C           2.1771    0.9540   19.5061 C.ar    1  UNL1        0.1819
     11 N           2.7561    0.5155   20.8185 N.ar    1  UNL1       -0.3057
     12 O          -0.3385    1.3482   25.8910 O.3     1  UNL1       -0.4360
     13 C           0.8299    2.0236   29.6231 C.ar    1  UNL1        0.1487
     14 C           1.6413    3.2725   29.4446 C.ar    1  UNL1        0.0577
     15 C           1.7927    3.8800   28.0815 C.ar    1  UNL1        0.1052
     16 N           1.1328    3.2386   26.8969 N.ar    1  UNL1       -0.2097
     17 C           0.3214    1.9896   27.0755 C.ar    1  UNL1        0.2365
     18 C           0.1700    1.3821   28.4387 C.ar    1  UNL1        0.1586
     19 C          -0.6413    0.1332   28.6172 C.3     1  UNL1        0.4257
     20 F          -1.4527   -1.1157   28.7958 F       1  UNL1       -0.1656
     21 F          -1.9018    0.9447   28.5659 F       1  UNL1       -0.1656
     22 F           0.6191   -0.6783   28.6686 F       1  UNL1       -0.1656
     23 C           1.6813    1.7216   32.0591 C.3     1  UNL1        0.2525
     24 O           0.6785    1.4161   30.9862 O.3     1  UNL1       -0.4713
     25 C           4.1088   -0.1312   20.8628 C.3     1  UNL1        0.1387
     26 C           4.3153   -1.4814   20.2430 C.ar    1  UNL1        0.0555
     27 C           4.1416   -2.7208   21.0699 C.ar    1  UNL1        0.1424
     28 F           3.7613   -2.6099   22.5166 F       1  UNL1       -0.2043
     29 C           4.3480   -4.0710   20.4500 C.ar    1  UNL1        0.0591
     30 C           4.7283   -4.1818   19.0032 C.ar    1  UNL1        0.1446
     31 F           4.9347   -5.5321   18.3834 F       1  UNL1       -0.2040
     32 C           4.9020   -2.9425   18.1763 C.ar    1  UNL1        0.0591
     33 C           4.6955   -1.5923   18.7962 C.ar    1  UNL1        0.1424
     34 F           4.8693   -0.3529   17.9693 F       1  UNL1       -0.2043
@<TRIPOS>BOND
     1    23    24    1
     2    24    13    1
     3    13    14   ar
     4    14    15   ar
     5    15    16   ar
     6    16    17   ar
     7    17    12    1
     8    12     1    1
     9     1     2   ar
    10     2     3   ar
    11     3     4   ar
    12     4     5   ar
    13     5     6   ar
    14     5     7   ar
    15     7     8    2
    16     7     9   ar
    17     9    10   ar
    18    10    11   ar
    19    11    25    1
    20    25    26    1
    21    26    27   ar
    22    27    28    1
    23    27    29   ar
    24    29    30   ar
    25    30    31    1
    26    30    32   ar
    27    32    33   ar
    28    33    34    1
    29    17    18   ar
    30    18    19    1
    31    19    20    1
    32    19    21    1
    33    19    22    1
    34    18    13   ar
    35     6     1   ar
    36    33    26   ar
    37    11     4   ar
@<TRIPOS>MOLECULE
*****
 34 37 0 0 0
SMALL
GASTEIGER

@<TRIPOS>ATOM
      1 C          -7.8621  -19.0465   21.3417 C.ar    1  UNL1        0.1474
      2 C          -7.7001  -17.8568   22.2408 C.ar    1  UNL1        0.0390
      3 C          -6.3308  -17.4272   22.6769 C.ar    1  UNL1        0.0205
      4 C          -5.1233  -18.1872   22.2139 C.ar    1  UNL1        0.0662
      5 C          -5.2852  -19.3769   21.3148 C.ar    1  UNL1        0.0767
      6 C          -6.6546  -19.8065   20.8787 C.ar    1  UNL1        0.0438
      7 C          -4.0778  -20.1370   20.8518 C.ar    1  UNL1        0.2820
      8 O          -4.2397  -21.3267   19.9527 O.2     1  UNL1       -0.2651
      9 N          -2.7084  -19.7073   21.2879 N.ar    1  UNL1       -0.1873
     10 C          -2.5465  -18.5176   22.1870 C.ar    1  UNL1        0.1819
     11 N          -3.7539  -17.7575   22.6500 N.ar    1  UNL1       -0.3057
     12 O          -9.2315  -19.4762   20.9056 O.3     1  UNL1       -0.4360
     13 C         -12.2708  -18.1206   23.0678 C.ar    1  UNL1        0.1487
     14 C         -12.8392  -17.0871   22.1411 C.ar    1  UNL1        0.0577
     15 C         -12.2051  -16.8499   20.8026 C.ar    1  UNL1        0.1052
     16 N         -11.0025  -17.6463   20.3907 N.ar    1  UNL1       -0.2097
     17 C         -10.4340  -18.6798   21.3174 C.ar    1  UNL1        0.2365
     18 C         -11.0682  -18.9170   22.6560 C.ar    1  UNL1        0.1586
     19 C         -10.4998  -19.9505   23.5826 C.3     1  UNL1        0.4257
     20 F          -9.9313  -20.9840   24.5093 F       1  UNL1       -0.1656
     21 F         -11.1264  -21.0351   22.7574 F       1  UNL1       -0.1656
     22 F          -9.8731  -18.8659   24.4078 F       1  UNL1       -0.1656
     23 C         -14.3977  -18.3149   24.5472 C.3     1  UNL1        0.2525
     24 O         -12.9049  -18.3578   24.4063 O.3     1  UNL1       -0.4713
     25 C          -3.5920  -16.5679   23.5491 C.3     1  UNL1        0.1387
     26 C          -4.6531  -16.2397   24.5573 C.ar    1  UNL1        0.0555
     27 C          -5.7223  -15.2422   24.2232 C.ar    1  UNL1        0.1424
     28 F          -5.7306  -14.5728   22.8809 F       1  UNL1       -0.2043
     29 C          -6.7834  -14.9142   25.2314 C.ar    1  UNL1        0.0591
     30 C          -6.7752  -15.5836   26.5737 C.ar    1  UNL1        0.1446
     31 F          -7.8363  -15.2555   27.5820 F       1  UNL1       -0.2040
     32 C          -5.7059  -16.5811   26.9078 C.ar    1  UNL1        0.0591
     33 C          -4.6449  -16.9092   25.8996 C.ar    1  UNL1        0.1424
     34 F          -3.5756  -17.9067   26.2337 F       1  UNL1       -0.2043
@<TRIPOS>BOND
     1    23    24    1
     2    24    13    1
     3    13    14   ar
     4    14    15   ar
     5    15    16   ar
     6    16    17   ar
     7    17    12    1
     8    12     1    1
     9     1     2   ar
    10     2     3   ar
    11     3     4   ar
    12     4     5   ar
    13     5     6   ar
    14     5     7   ar
    15     7     8    2
    16     7     9   ar
    17     9    10   ar
    18    10    11   ar
    19    11    25    1
    20    25    26    1
    21    26    27   ar
    22    27    28    1
    23    27    29   ar
    24    29    30   ar
    25    30    31    1
    26    30    32   ar
    27    32    33   ar
    28    33    34    1
    29    17    18   ar
    30    18    19    1
    31    19    20    1
    32    19    21    1
    33    19    22    1
    34    18    13   ar
    35     6     1   ar
    36    33    26   ar
    37    11     4   ar
@<TRIPOS>MOLECULE
*****
 34 37 0 0 0
SMALL
GASTEIGER

@<TRIPOS>ATOM
      1 C           6.3498   -3.7860   22.6409 C.ar    1  UNL1        0.1474
      2 C           7.5038   -4.1997   23.5052 C.ar    1  UNL1        0.0390
      3 C           7.5889   -3.7186   24.9234 C.ar    1  UNL1        0.0205
      4 C           6.5199   -2.8238   25.4773 C.ar    1  UNL1        0.0662
      5 C           5.3659   -2.4102   24.6129 C.ar    1  UNL1        0.0767
      6 C           5.2808   -2.8913   23.1948 C.ar    1  UNL1        0.0438
      7 C           4.2969   -1.5155   25.1668 C.ar    1  UNL1        0.2820
      8 O           3.1429   -1.1018   24.3025 O.2     1  UNL1       -0.2651
      9 N           4.3820   -1.0344   26.5850 N.ar    1  UNL1       -0.1873
     10 C           5.5360   -1.4480   27.4494 C.ar    1  UNL1        0.1819
     11 N           6.6050   -2.3427   26.8955 N.ar    1  UNL1       -0.3057
     12 O           6.2647   -4.2671   21.2227 O.3     1  UNL1       -0.4360
     13 C           5.6117   -2.1416   17.9355 C.ar    1  UNL1        0.1487
     14 C           6.9019   -1.3843   17.8267 C.ar    1  UNL1        0.0577
     15 C           7.9797   -1.5879   18.8498 C.ar    1  UNL1        0.1052
     16 N           7.7673   -2.5489   19.9819 N.ar    1  UNL1       -0.2097
     17 C           6.4771   -3.3062   20.0907 C.ar    1  UNL1        0.2365
     18 C           5.3993   -3.1025   19.0674 C.ar    1  UNL1        0.1586
     19 C           4.1091   -3.8599   19.1762 C.3     1  UNL1        0.4257
     20 F           2.8189   -4.6172   19.2850 F       1  UNL1       -0.1656
     21 F           4.6774   -4.9512   18.3183 F       1  UNL1       -0.1656
     22 F           3.5408   -2.7685   20.0341 F       1  UNL1       -0.1656
     23 C           3.6458   -0.7315   16.9884 C.3     1  UNL1        0.2525
     24 O           4.5340   -1.9380   16.9123 O.3     1  UNL1       -0.4713
     25 C           7.7590   -2.7563   27.7598 C.3     1  UNL1        0.1387
     26 C           7.5397   -3.7068   28.8994 C.ar    1  UNL1        0.0555
     27 C           7.1249   -3.1840   30.2428 C.ar    1  UNL1        0.1424
     28 F           6.9294   -1.7109   30.4466 F       1  UNL1       -0.2043
     29 C           6.9056   -4.1345   31.3823 C.ar    1  UNL1        0.0591
     30 C           7.1012   -5.6076   31.1785 C.ar    1  UNL1        0.1446
     31 F           6.8819   -6.5581   32.3181 F       1  UNL1       -0.2040
     32 C           7.5160   -6.1304   29.8351 C.ar    1  UNL1        0.0591
     33 C           7.7352   -5.1800   28.6956 C.ar    1  UNL1        0.1424
     34 F           8.1501   -5.7027   27.3522 F       1  UNL1       -0.2043
@<TRIPOS>BOND
     1    23    24    1
     2    24    13    1
     3    13    14   ar
     4    14    15   ar
     5    15    16   ar
     6    16    17   ar
     7    17    12    1
     8    12     1    1
     9     1     2   ar
    10     2     3   ar
    11     3     4   ar
    12     4     5   ar
    13     5     6   ar
    14     5     7   ar
    15     7     8    2
    16     7     9   ar
    17     9    10   ar
    18    10    11   ar
    19    11    25    1
    20    25    26    1
    21    26    27   ar
    22    27    28    1
    23    27    29   ar
    24    29    30   ar
    25    30    31    1
    26    30    32   ar
    27    32    33   ar
    28    33    34    1
    29    17    18   ar
    30    18    19    1
    31    19    20    1
    32    19    21    1
    33    19    22    1
    34    18    13   ar
    35     6     1   ar
    36    33    26   ar
    37    11     4   ar
@<TRIPOS>MOLECULE
*****
 34 37 0 0 0
SMALL
GASTEIGER

@<TRIPOS>ATOM
      1 C           6.2038   -4.0219   22.6055 C.ar    1  UNL1        0.1474
      2 C           7.2072   -4.6646   23.5165 C.ar    1  UNL1        0.0390
      3 C           7.2483   -4.2920   24.9689 C.ar    1  UNL1        0.0205
      4 C           6.2860   -3.2767   25.5103 C.ar    1  UNL1        0.0662
      5 C           5.2826   -2.6340   24.5993 C.ar    1  UNL1        0.0767
      6 C           5.2415   -3.0066   23.1469 C.ar    1  UNL1        0.0438
      7 C           4.3202   -1.6187   25.1407 C.ar    1  UNL1        0.2820
      8 O           3.3168   -0.9760   24.2297 O.2     1  UNL1       -0.2651
      9 N           4.3613   -1.2461   26.5930 N.ar    1  UNL1       -0.1873
     10 C           5.3648   -1.8889   27.5041 C.ar    1  UNL1        0.1819
     11 N           6.3271   -2.9042   26.9628 N.ar    1  UNL1       -0.3057
     12 O           6.1626   -4.3944   21.1531 O.3     1  UNL1       -0.4360
     13 C           5.5836   -2.0357   18.0145 C.ar    1  UNL1        0.1487
     14 C           6.8656   -1.2570   18.0046 C.ar    1  UNL1        0.0577
     15 C           7.9133   -1.5242   19.0443 C.ar    1  UNL1        0.1052
     16 N           7.6790   -2.5700   20.0938 N.ar    1  UNL1       -0.2097
     17 C           6.3970   -3.3486   20.1036 C.ar    1  UNL1        0.2365
     18 C           5.3492   -3.0814   19.0639 C.ar    1  UNL1        0.1586
     19 C           4.0672   -3.8600   19.0737 C.3     1  UNL1        0.4257
     20 F           2.7851   -4.6387   19.0836 F       1  UNL1       -0.1656
     21 F           3.4084   -2.7653   19.8596 F       1  UNL1       -0.1656
     22 F           4.7260   -4.9547   18.2879 F       1  UNL1       -0.1656
     23 C           3.6092   -0.5987   17.1272 C.3     1  UNL1        0.2525
     24 O           4.5358   -1.7685   16.9749 O.3     1  UNL1       -0.4713
     25 C           7.3306   -3.5469   27.8738 C.3     1  UNL1        0.1387
     26 C           7.4585   -3.0835   29.2947 C.ar    1  UNL1        0.0555
     27 C           6.9804   -3.9589   30.4150 C.ar    1  UNL1        0.1424
     28 F           6.3744   -5.2977   30.1144 F       1  UNL1       -0.2043
     29 C           7.1084   -3.4955   31.8358 C.ar    1  UNL1        0.0591
     30 C           7.7144   -2.1567   32.1364 C.ar    1  UNL1        0.1446
     31 F           7.8424   -1.6933   33.5573 F       1  UNL1       -0.2040
     32 C           8.1925   -1.2813   31.0161 C.ar    1  UNL1        0.0591
     33 C           8.0645   -1.7447   29.5952 C.ar    1  UNL1        0.1424
     34 F           8.5426   -0.8693   28.4749 F       1  UNL1       -0.2043
@<TRIPOS>BOND
     1    23    24    1
     2    24    13    1
     3    13    14   ar
     4    14    15   ar
     5    15    16   ar
     6    16    17   ar
     7    17    12    1
     8    12     1    1
     9     1     2   ar
    10     2     3   ar
    11     3     4   ar
    12     4     5   ar
    13     5     6   ar
    14     5     7   ar
    15     7     8    2
    16     7     9   ar
    17     9    10   ar
    18    10    11   ar
    19    11    25    1
    20    25    26    1
    21    26    27   ar
    22    27    28    1
    23    27    29   ar
    24    29    30   ar
    25    30    31    1
    26    30    32   ar
    27    32    33   ar
    28    33    34    1
    29    17    18   ar
    30    18    19    1
    31    19    20    1
    32    19    21    1
    33    19    22    1
    34    18    13   ar
    35     6     1   ar
    36    33    26   ar
    37    11     4   ar
@<TRIPOS>MOLECULE
*****
 34 37 0 0 0
SMALL
GASTEIGER

@<TRIPOS>ATOM
      1 C           4.4401   -3.0410   21.5434 C.ar    1  UNL1        0.1474
      2 C           5.6857   -3.8744   21.6050 C.ar    1  UNL1        0.0390
      3 C           6.4999   -3.9141   22.8641 C.ar    1  UNL1        0.0205
      4 C           6.0685   -3.1204   24.0616 C.ar    1  UNL1        0.0662
      5 C           4.8229   -2.2870   23.9999 C.ar    1  UNL1        0.0767
      6 C           4.0087   -2.2473   22.7408 C.ar    1  UNL1        0.0438
      7 C           4.3916   -1.4933   25.1974 C.ar    1  UNL1        0.2820
      8 O           3.1459   -0.6599   25.1358 O.2     1  UNL1       -0.2651
      9 N           5.2058   -1.5330   26.4565 N.ar    1  UNL1       -0.1873
     10 C           6.4515   -2.3665   26.5182 C.ar    1  UNL1        0.1819
     11 N           6.8829   -3.1602   25.3207 N.ar    1  UNL1       -0.3057
     12 O           3.6257   -3.0013   20.2842 O.3     1  UNL1       -0.4360
     13 C           4.1659    0.2484   18.0712 C.ar    1  UNL1        0.1487
     14 C           2.8388    0.9278   18.2366 C.ar    1  UNL1        0.0577
     15 C           1.7741    0.2975   19.0845 C.ar    1  UNL1        0.1052
     16 N           2.0364   -1.0122   19.7671 N.ar    1  UNL1       -0.2097
     17 C           3.3634   -1.6916   19.6017 C.ar    1  UNL1        0.2365
     18 C           4.4282   -1.0613   18.7537 C.ar    1  UNL1        0.1586
     19 C           5.7552   -1.7406   18.5883 C.3     1  UNL1        0.4257
     20 F           7.0823   -2.4200   18.4229 F       1  UNL1       -0.1656
     21 F           5.1657   -2.6371   17.5401 F       1  UNL1       -0.1656
     22 F           6.3448   -0.8442   19.6365 F       1  UNL1       -0.1656
     23 C           6.0846    1.9766   17.7850 C.3     1  UNL1        0.2525
     24 O           5.2306    0.8787   17.2233 O.3     1  UNL1       -0.4713
     25 C           8.1285   -3.9936   25.3823 C.3     1  UNL1        0.1387
     26 C           8.0822   -5.3684   25.9806 C.ar    1  UNL1        0.0555
     27 C           8.0032   -6.5720   25.0890 C.ar    1  UNL1        0.1424
     28 F           7.9704   -6.4009   23.5991 F       1  UNL1       -0.2043
     29 C           7.9569   -7.9467   25.6872 C.ar    1  UNL1        0.0591
     30 C           7.9897   -8.1178   27.1771 C.ar    1  UNL1        0.1446
     31 F           7.9435   -9.4926   27.7753 F       1  UNL1       -0.2040
     32 C           8.0688   -6.9142   28.0687 C.ar    1  UNL1        0.0591
     33 C           8.1150   -5.5395   27.4704 C.ar    1  UNL1        0.1424
     34 F           8.1941   -4.3358   28.3620 F       1  UNL1       -0.2043
@<TRIPOS>BOND
     1    23    24    1
     2    24    13    1
     3    13    14   ar
     4    14    15   ar
     5    15    16   ar
     6    16    17   ar
     7    17    12    1
     8    12     1    1
     9     1     2   ar
    10     2     3   ar
    11     3     4   ar
    12     4     5   ar
    13     5     6   ar
    14     5     7   ar
    15     7     8    2
    16     7     9   ar
    17     9    10   ar
    18    10    11   ar
    19    11    25    1
    20    25    26    1
    21    26    27   ar
    22    27    28    1
    23    27    29   ar
    24    29    30   ar
    25    30    31    1
    26    30    32   ar
    27    32    33   ar
    28    33    34    1
    29    17    18   ar
    30    18    19    1
    31    19    20    1
    32    19    21    1
    33    19    22    1
    34    18    13   ar
    35     6     1   ar
    36    33    26   ar
    37    11     4   ar
@<TRIPOS>MOLECULE
*****
 34 37 0 0 0
SMALL
GASTEIGER

@<TRIPOS>ATOM
      1 C           6.8118   -4.1977   22.8869 C.ar    1  UNL1        0.1474
      2 C           6.5612   -2.7514   23.1957 C.ar    1  UNL1        0.0390
      3 C           6.4474   -2.2975   24.6208 C.ar    1  UNL1        0.0205
      4 C           6.5841   -3.2900   25.7372 C.ar    1  UNL1        0.0662
      5 C           6.8347   -4.7363   25.4285 C.ar    1  UNL1        0.0767
      6 C           6.9486   -5.1901   24.0034 C.ar    1  UNL1        0.0438
      7 C           6.9715   -5.7287   26.5449 C.ar    1  UNL1        0.2820
      8 O           7.2221   -7.1750   26.2362 O.2     1  UNL1       -0.2651
      9 N           6.8576   -5.2748   27.9700 N.ar    1  UNL1       -0.1873
     10 C           6.6070   -3.8285   28.2788 C.ar    1  UNL1        0.1819
     11 N           6.4703   -2.8360   27.1624 N.ar    1  UNL1       -0.3057
     12 O           6.9257   -4.6516   21.4618 O.3     1  UNL1       -0.4360
     13 C           5.8303   -2.4445   18.3507 C.ar    1  UNL1        0.1487
     14 C           7.0654   -1.6201   18.1391 C.ar    1  UNL1        0.0577
     15 C           8.2539   -1.8061   19.0351 C.ar    1  UNL1        0.1052
     16 N           8.2074   -2.8166   20.1427 N.ar    1  UNL1       -0.2097
     17 C           6.9723   -3.6411   20.3542 C.ar    1  UNL1        0.2365
     18 C           5.7837   -3.4550   19.4582 C.ar    1  UNL1        0.1586
     19 C           4.5486   -4.2795   19.6698 C.3     1  UNL1        0.4257
     20 F           3.3135   -5.1040   19.8813 F       1  UNL1       -0.1656
     21 F           4.9401   -5.1608   18.5208 F       1  UNL1       -0.1656
     22 F           4.1572   -3.3983   20.8187 F       1  UNL1       -0.1656
     23 C           4.0177   -0.9023   17.3085 C.3     1  UNL1        0.2525
     24 O           4.6418   -2.2585   17.4547 O.3     1  UNL1       -0.4713
     25 C           6.2196   -1.3897   27.4711 C.3     1  UNL1        0.1387
     26 C           4.9788   -0.9846   28.2102 C.ar    1  UNL1        0.0555
     27 C           3.6434   -1.0586   27.5311 C.ar    1  UNL1        0.1424
     28 F           3.5488   -1.5377   26.1128 F       1  UNL1       -0.2043
     29 C           2.4027   -0.6536   28.2703 C.ar    1  UNL1        0.0591
     30 C           2.4973   -0.1745   29.6886 C.ar    1  UNL1        0.1446
     31 F           1.2564    0.2306   30.4277 F       1  UNL1       -0.2040
     32 C           3.8326   -0.1005   30.3677 C.ar    1  UNL1        0.0591
     33 C           5.0734   -0.5056   29.6285 C.ar    1  UNL1        0.1424
     34 F           6.4089   -0.4316   30.3076 F       1  UNL1       -0.2043
@<TRIPOS>BOND
     1    23    24    1
     2    24    13    1
     3    13    14   ar
     4    14    15   ar
     5    15    16   ar
     6    16    17   ar
     7    17    12    1
     8    12     1    1
     9     1     2   ar
    10     2     3   ar
    11     3     4   ar
    12     4     5   ar
    13     5     6   ar
    14     5     7   ar
    15     7     8    2
    16     7     9   ar
    17     9    10   ar
    18    10    11   ar
    19    11    25    1
    20    25    26    1
    21    26    27   ar
    22    27    28    1
    23    27    29   ar
    24    29    30   ar
    25    30    31    1
    26    30    32   ar
    27    32    33   ar
    28    33    34    1
    29    17    18   ar
    30    18    19    1
    31    19    20    1
    32    19    21    1
    33    19    22    1
    34    18    13   ar
    35     6     1   ar
    36    33    26   ar
    37    11     4   ar
