@<TRIPOS>MOLECULE
*****
 37 40 0 0 0
SMALL
GASTEIGER

@<TRIPOS>ATOM
      1 N          -9.2428  -19.8933   22.6747 N.pl3   1  UNL1       -0.3316
      2 H          -9.6302  -20.7800   22.8559 H       1  UNL1        0.1468
      3 C          -7.9279  -19.7808   21.9618 C.ar    1  UNL1        0.0577
      4 C          -6.6562  -19.6615   22.7484 C.ar    1  UNL1        0.0462
      5 C          -5.3412  -19.5490   22.0355 C.ar    1  UNL1        0.1602
      6 F          -4.0695  -19.4297   22.8220 F       1  UNL1       -0.2027
      7 C          -5.2979  -19.5559   20.5361 C.ar    1  UNL1        0.1534
      8 C          -6.5696  -19.6752   19.7496 C.ar    1  UNL1        0.0351
      9 C          -7.8845  -19.7877   20.4624 C.ar    1  UNL1        0.0722
     10 CL         -9.1562  -19.9070   19.6759 Cl      1  UNL1       -0.0809
     11 S          -3.9829  -19.4434   19.8233 S.O2    1  UNL1        0.0772
     12 O          -4.4530  -18.1857   19.1546 O.2     1  UNL1       -0.1498
     13 O          -3.5129  -20.7011   20.4920 O.2     1  UNL1       -0.1498
     14 N          -2.6679  -19.3309   19.1104 N.pl3   1  UNL1       -0.1936
     15 H          -2.5006  -19.8631   18.2993 H       1  UNL1        0.1758
     16 C          -1.6078  -18.4074   19.6335 C.ar    1  UNL1        0.1786
     17 N          -0.1262  -18.6100   19.5168 N.ar    1  UNL1       -0.2214
     18 C           0.5541  -17.4471   20.1763 C.ar    1  UNL1        0.1079
     19 C          -0.5072  -16.5258   20.7007 C.ar    1  UNL1        0.0588
     20 S          -1.8434  -17.1193   20.3652 S.2     1  UNL1       -0.0497
     21 C          -9.9676  -18.6547   23.1113 C.3     1  UNL1        0.0927
     22 N         -11.9871  -19.1148   20.9410 N.3     1  UNL1       -0.3219
     23 C         -11.2724  -17.7993   21.0338 C.3     1  UNL1        0.0568
     24 C         -11.5674  -16.7139   20.0415 C.3     1  UNL1        0.0205
     25 C         -10.8528  -15.3983   20.1344 C.3     1  UNL1        0.0271
     26 C          -9.8431  -15.1682   21.2195 C.2     1  UNL1       -0.0303
     27 C          -9.5480  -16.2537   22.2118 C.2     1  UNL1       -0.0238
     28 C         -10.2627  -17.5692   22.1189 C.3     1  UNL1        0.0557
     29 H         -12.6320  -19.0964   20.1510 H       1  UNL1        0.1188
     30 H         -12.5086  -19.2799   21.8019 H       1  UNL1        0.1188
     31 C          -8.5383  -16.0237   23.2969 C.ar    1  UNL1       -0.0040
     32 C          -8.9940  -15.7212   24.6936 C.ar    1  UNL1        0.0020
     33 C          -7.9843  -15.4911   25.7788 C.ar    1  UNL1        0.0296
     34 C          -6.5188  -15.5636   25.4672 C.ar    1  UNL1        0.1401
     35 F          -5.5090  -15.3336   26.5523 F       1  UNL1       -0.2042
     36 C          -6.0630  -15.8661   24.0705 C.ar    1  UNL1        0.0296
     37 C          -7.0728  -16.0961   22.9854 C.ar    1  UNL1        0.0020
@<TRIPOS>BOND
     1    23    22    1
     2    23    24    1
     3    24    25    1
     4    25    26    1
     5    26    27    2
     6    27    31    1
     7    31    32   ar
     8    32    33   ar
     9    33    34   ar
    10    34    35    1
    11    34    36   ar
    12    36    37   ar
    13    27    28    1
    14    28    21    1
    15    21     1    1
    16     1     3    1
    17     3     4   ar
    18     4     5   ar
    19     5     6    1
    20     5     7   ar
    21     7    11    1
    22    11    12    2
    23    11    13    2
    24    11    14    1
    25    14    16    1
    26    16    17   ar
    27    17    18   ar
    28    18    19   ar
    29    19    20   ar
    30     7     8   ar
    31     8     9   ar
    32     9    10    1
    33    28    23    1
    34     9     3   ar
    35    37    31   ar
    36    20    16   ar
    37    22    29    1
    38    22    30    1
    39     1     2    1
    40    14    15    1
@<TRIPOS>MOLECULE
*****
 37 40 0 0 0
SMALL
GASTEIGER

@<TRIPOS>ATOM
      1 N          -9.1009  -19.5261   22.4752 N.pl3   1  UNL1       -0.3316
      2 H          -9.6173  -20.3641   22.4942 H       1  UNL1        0.1468
      3 C          -7.7656  -19.4833   21.7932 C.ar    1  UNL1        0.0577
      4 C          -6.5090  -19.4073   22.6087 C.ar    1  UNL1        0.0462
      5 C          -5.1737  -19.3645   21.9266 C.ar    1  UNL1        0.1602
      6 F          -3.9170  -19.2885   22.7421 F       1  UNL1       -0.2027
      7 C          -5.0950  -19.3977   20.4291 C.ar    1  UNL1        0.1534
      8 C          -6.3517  -19.4737   19.6136 C.ar    1  UNL1        0.0351
      9 C          -7.6869  -19.5165   20.2956 C.ar    1  UNL1        0.0722
     10 CL         -8.9436  -19.5924   19.4801 Cl      1  UNL1       -0.0809
     11 S          -3.7598  -19.3549   19.7471 S.O2    1  UNL1        0.0772
     12 O          -4.1761  -18.1168   19.0097 O.2     1  UNL1       -0.1498
     13 O          -3.3435  -20.5930   20.4844 O.2     1  UNL1       -0.1498
     14 N          -2.4245  -19.3120   19.0650 N.pl3   1  UNL1       -0.1936
     15 H          -2.2545  -19.8806   18.2794 H       1  UNL1        0.1758
     16 C          -1.3482  -18.4028   19.5798 C.ar    1  UNL1        0.1786
     17 N           0.1245  -18.6878   19.5734 N.ar    1  UNL1       -0.2214
     18 C           0.8272  -17.5101   20.1810 C.ar    1  UNL1        0.1079
     19 C          -0.2111  -16.4972   20.5629 C.ar    1  UNL1        0.0588
     20 S          -1.5556  -17.0489   20.1914 S.2     1  UNL1       -0.0497
     21 C          -9.6494  -18.2922   23.1283 C.3     1  UNL1        0.0927
     22 N         -10.4844  -19.8498   25.5525 N.3     1  UNL1       -0.3219
     23 C         -11.4947  -19.0366   24.7988 C.3     1  UNL1        0.0568
     24 C         -12.9225  -19.0023   25.2572 C.3     1  UNL1        0.0205
     25 C         -13.9328  -18.1891   24.5035 C.3     1  UNL1        0.0271
     26 C         -13.5154  -17.4103   23.2915 C.2     1  UNL1       -0.0303
     27 C         -12.0876  -17.4446   22.8331 C.2     1  UNL1       -0.0238
     28 C         -11.0773  -18.2578   23.5867 C.3     1  UNL1        0.0557
     29 H         -10.9384  -20.3097   26.3416 H       1  UNL1        0.1188
     30 H          -9.7435  -19.2385   25.8955 H       1  UNL1        0.1188
     31 C         -11.6700  -16.6658   21.6210 C.ar    1  UNL1       -0.0040
     32 C         -10.3619  -15.9319   21.6150 C.ar    1  UNL1        0.0020
     33 C          -9.9444  -15.1530   20.4029 C.ar    1  UNL1        0.0296
     34 C         -10.8350  -15.1082   19.1968 C.ar    1  UNL1        0.1401
     35 F         -10.4175  -14.3294   17.9847 F       1  UNL1       -0.2042
     36 C         -12.1432  -15.8422   19.2028 C.ar    1  UNL1        0.0296
     37 C         -12.5607  -16.6210   20.4149 C.ar    1  UNL1        0.0020
@<TRIPOS>BOND
     1    23    22    1
     2    23    24    1
     3    24    25    1
     4    25    26    1
     5    26    27    2
     6    27    31    1
     7    31    32   ar
     8    32    33   ar
     9    33    34   ar
    10    34    35    1
    11    34    36   ar
    12    36    37   ar
    13    27    28    1
    14    28    21    1
    15    21     1    1
    16     1     3    1
    17     3     4   ar
    18     4     5   ar
    19     5     6    1
    20     5     7   ar
    21     7    11    1
    22    11    12    2
    23    11    13    2
    24    11    14    1
    25    14    16    1
    26    16    17   ar
    27    17    18   ar
    28    18    19   ar
    29    19    20   ar
    30     7     8   ar
    31     8     9   ar
    32     9    10    1
    33    28    23    1
    34     9     3   ar
    35    37    31   ar
    36    20    16   ar
    37    22    29    1
    38    22    30    1
    39     1     2    1
    40    14    15    1
@<TRIPOS>MOLECULE
*****
 37 40 0 0 0
SMALL
GASTEIGER

@<TRIPOS>ATOM
      1 N           5.3618    0.5507   19.2569 N.pl3   1  UNL1       -0.3316
      2 H           5.9844    0.9757   18.6238 H       1  UNL1        0.1468
      3 C           3.9655    1.0785   19.4043 C.ar    1  UNL1        0.0577
      4 C           3.6511    2.0786   20.4772 C.ar    1  UNL1        0.0462
      5 C           2.2548    2.6064   20.6246 C.ar    1  UNL1        0.1602
      6 F           1.9404    3.6065   21.6975 F       1  UNL1       -0.2027
      7 C           1.1729    2.1342   19.6991 C.ar    1  UNL1        0.1534
      8 C           1.4873    1.1342   18.6263 C.ar    1  UNL1        0.0351
      9 C           2.8836    0.6063   18.4788 C.ar    1  UNL1        0.0722
     10 CL          3.1980   -0.3937   17.4060 Cl      1  UNL1       -0.0809
     11 S          -0.2234    2.6621   19.8465 S.O2    1  UNL1        0.0772
     12 O          -0.6317    1.3909   20.5301 O.2     1  UNL1       -0.1498
     13 O           0.1850    3.9332   19.1629 O.2     1  UNL1       -0.1498
     14 N          -1.6197    3.1899   19.9940 N.pl3   1  UNL1       -0.1936
     15 H          -2.1708    3.3541   19.1949 H       1  UNL1        0.1758
     16 C          -2.1763    3.4675   21.3589 C.ar    1  UNL1        0.1786
     17 N          -3.5684    3.1569   21.8234 N.ar    1  UNL1       -0.2214
     18 C          -3.6910    3.6019   23.2506 C.ar    1  UNL1        0.1079
     19 C          -2.3747    4.1876   23.6682 C.ar    1  UNL1        0.0588
     20 S          -1.4386    4.1046   22.4991 S.2     1  UNL1       -0.0497
     21 C           5.8094   -0.6247   20.0742 C.3     1  UNL1        0.0927
     22 N           6.5688   -2.0364   17.5383 N.3     1  UNL1       -0.3219
     23 C           5.6431   -2.6972   18.5162 C.3     1  UNL1        0.0568
     24 C           5.0970   -4.0638   18.2262 C.3     1  UNL1        0.0205
     25 C           4.1713   -4.7247   19.2042 C.3     1  UNL1        0.0271
     26 C           3.7917   -4.0189   20.4721 C.2     1  UNL1       -0.0303
     27 C           4.3377   -2.6523   20.7621 C.2     1  UNL1       -0.0238
     28 C           5.2634   -1.9914   19.7842 C.3     1  UNL1        0.0557
     29 H           6.7170   -2.6537   16.7400 H       1  UNL1        0.1188
     30 H           7.4625   -1.8460   17.9915 H       1  UNL1        0.1188
     31 C           3.9580   -1.9465   22.0301 C.ar    1  UNL1       -0.0040
     32 C           4.6949   -2.2423   23.3027 C.ar    1  UNL1        0.0020
     33 C           4.3152   -1.5364   24.5706 C.ar    1  UNL1        0.0296
     34 C           3.1987   -0.5348   24.5660 C.ar    1  UNL1        0.1401
     35 F           2.8190    0.1710   25.8339 F       1  UNL1       -0.2042
     36 C           2.4618   -0.2390   23.2933 C.ar    1  UNL1        0.0296
     37 C           2.8415   -0.9448   22.0254 C.ar    1  UNL1        0.0020
@<TRIPOS>BOND
     1    23    22    1
     2    23    24    1
     3    24    25    1
     4    25    26    1
     5    26    27    2
     6    27    31    1
     7    31    32   ar
     8    32    33   ar
     9    33    34   ar
    10    34    35    1
    11    34    36   ar
    12    36    37   ar
    13    27    28    1
    14    28    21    1
    15    21     1    1
    16     1     3    1
    17     3     4   ar
    18     4     5   ar
    19     5     6    1
    20     5     7   ar
    21     7    11    1
    22    11    12    2
    23    11    13    2
    24    11    14    1
    25    14    16    1
    26    16    17   ar
    27    17    18   ar
    28    18    19   ar
    29    19    20   ar
    30     7     8   ar
    31     8     9   ar
    32     9    10    1
    33    28    23    1
    34     9     3   ar
    35    37    31   ar
    36    20    16   ar
    37    22    29    1
    38    22    30    1
    39     1     2    1
    40    14    15    1
@<TRIPOS>MOLECULE
*****
 37 40 0 0 0
SMALL
GASTEIGER

@<TRIPOS>ATOM
      1 N         -13.0141   -3.0783   19.4237 N.pl3   1  UNL1       -0.3316
      2 H         -12.8915   -3.3010   20.3748 H       1  UNL1        0.1468
      3 C         -13.4272   -1.6925   19.0251 C.ar    1  UNL1        0.0577
      4 C         -12.4181   -0.7471   18.4439 C.ar    1  UNL1        0.0462
      5 C         -12.8313    0.6387   18.0453 C.ar    1  UNL1        0.1602
      6 F         -11.8222    1.5842   17.4640 F       1  UNL1       -0.2027
      7 C         -14.2535    1.0791   18.2279 C.ar    1  UNL1        0.1534
      8 C         -15.2626    0.1336   18.8091 C.ar    1  UNL1        0.0351
      9 C         -14.8495   -1.2522   19.2077 C.ar    1  UNL1        0.0722
     10 CL        -15.8586   -2.1976   19.7890 Cl      1  UNL1       -0.0809
     11 S         -14.6666    2.4648   17.8293 S.O2    1  UNL1        0.0772
     12 O         -14.7141    2.8662   19.2738 O.2     1  UNL1       -0.1498
     13 O         -14.6190    2.0635   16.3848 O.2     1  UNL1       -0.1498
     14 N         -15.0797    3.8507   17.4307 N.pl3   1  UNL1       -0.1936
     15 H         -16.0140    4.0327   17.1793 H       1  UNL1        0.1758
     16 C         -14.0693    4.9592   17.4151 C.ar    1  UNL1        0.1786
     17 N         -12.5797    4.7937   17.3538 N.ar    1  UNL1       -0.2214
     18 C         -11.9608    6.1600   17.3589 C.ar    1  UNL1        0.1079
     19 C         -13.0679    7.1701   17.4235 C.ar    1  UNL1        0.0588
     20 S         -14.3711    6.4280   17.4583 S.2     1  UNL1       -0.0497
     21 C         -12.7877   -4.1248   18.3732 C.3     1  UNL1        0.0927
     22 N          -9.9785   -3.3153   19.0465 N.3     1  UNL1       -0.3219
     23 C         -10.3282   -4.7675   18.9098 C.3     1  UNL1        0.0568
     24 C          -9.2733   -5.8150   19.1097 C.3     1  UNL1        0.0205
     25 C          -9.6230   -7.2673   18.9730 C.3     1  UNL1        0.0271
     26 C         -11.0275   -7.6720   18.6364 C.2     1  UNL1       -0.0303
     27 C         -12.0824   -6.6246   18.4364 C.2     1  UNL1       -0.0238
     28 C         -11.7327   -5.1723   18.5732 C.3     1  UNL1        0.0557
     29 H          -8.9889   -3.2240   19.2761 H       1  UNL1        0.1188
     30 H         -10.5397   -2.8989   19.7895 H       1  UNL1        0.1188
     31 C         -13.4870   -7.0293   18.0998 C.ar    1  UNL1       -0.0040
     32 C         -13.8156   -7.5226   16.7219 C.ar    1  UNL1        0.0020
     33 C         -15.2202   -7.9273   16.3852 C.ar    1  UNL1        0.0296
     34 C         -16.2962   -7.8388   17.4266 C.ar    1  UNL1        0.1401
     35 F         -17.7008   -8.2435   17.0900 F       1  UNL1       -0.2042
     36 C         -15.9676   -7.3455   18.8045 C.ar    1  UNL1        0.0296
     37 C         -14.5630   -6.9408   19.1411 C.ar    1  UNL1        0.0020
@<TRIPOS>BOND
     1    23    22    1
     2    23    24    1
     3    24    25    1
     4    25    26    1
     5    26    27    2
     6    27    31    1
     7    31    32   ar
     8    32    33   ar
     9    33    34   ar
    10    34    35    1
    11    34    36   ar
    12    36    37   ar
    13    27    28    1
    14    28    21    1
    15    21     1    1
    16     1     3    1
    17     3     4   ar
    18     4     5   ar
    19     5     6    1
    20     5     7   ar
    21     7    11    1
    22    11    12    2
    23    11    13    2
    24    11    14    1
    25    14    16    1
    26    16    17   ar
    27    17    18   ar
    28    18    19   ar
    29    19    20   ar
    30     7     8   ar
    31     8     9   ar
    32     9    10    1
    33    28    23    1
    34     9     3   ar
    35    37    31   ar
    36    20    16   ar
    37    22    29    1
    38    22    30    1
    39     1     2    1
    40    14    15    1
@<TRIPOS>MOLECULE
*****
 37 40 0 0 0
SMALL
GASTEIGER

@<TRIPOS>ATOM
      1 N           6.8383   -4.0996   20.6417 N.pl3   1  UNL1       -0.3316
      2 H           7.0093   -4.9010   20.0961 H       1  UNL1        0.1468
      3 C           5.7019   -3.1843   20.2944 C.ar    1  UNL1        0.0577
      4 C           5.6908   -1.7745   20.8067 C.ar    1  UNL1        0.0462
      5 C           4.5543   -0.8592   20.4593 C.ar    1  UNL1        0.1602
      6 F           4.5432    0.5505   20.9717 F       1  UNL1       -0.2027
      7 C           3.4289   -1.3537   19.5996 C.ar    1  UNL1        0.1534
      8 C           3.4400   -2.7634   19.0873 C.ar    1  UNL1        0.0351
      9 C           4.5765   -3.6787   19.4346 C.ar    1  UNL1        0.0722
     10 CL          4.5876   -5.0884   18.9223 Cl      1  UNL1       -0.0809
     11 S           2.2925   -0.4384   19.2523 S.O2    1  UNL1        0.0772
     12 O           1.4587   -1.0645   20.3305 O.2     1  UNL1       -0.1498
     13 O           3.1263    0.1878   18.1741 O.2     1  UNL1       -0.1498
     14 N           1.1560    0.4770   18.9050 N.pl3   1  UNL1       -0.1936
     15 H           0.6916    0.3798   18.0423 H       1  UNL1        0.1758
     16 C           0.7270    1.5404   19.8720 C.ar    1  UNL1        0.1786
     17 N          -0.5760    1.5839   20.6139 N.ar    1  UNL1       -0.2214
     18 C          -0.5825    2.8174   21.4674 C.ar    1  UNL1        0.1079
     19 C           0.7164    3.5363   21.2530 C.ar    1  UNL1        0.0588
     20 S           1.5258    2.7471   20.2670 S.2     1  UNL1       -0.0497
     21 C           7.7143   -3.7938   21.8203 C.3     1  UNL1        0.0927
     22 N           8.8996   -6.5484   21.7336 N.3     1  UNL1       -0.3219
     23 C           8.2594   -6.0468   22.9939 C.3     1  UNL1        0.0568
     24 C           8.2118   -6.9224   24.2108 C.3     1  UNL1        0.0205
     25 C           7.5716   -6.4208   25.4712 C.3     1  UNL1        0.0271
     26 C           6.9789   -5.0436   25.5146 C.2     1  UNL1       -0.0303
     27 C           7.0265   -4.1679   24.2977 C.2     1  UNL1       -0.0238
     28 C           7.6667   -4.6695   23.0373 C.3     1  UNL1        0.0557
     29 H           9.2465   -7.4960   21.8823 H       1  UNL1        0.1188
     30 H           9.6765   -5.9377   21.4805 H       1  UNL1        0.1188
     31 C           6.4338   -2.7906   24.3410 C.ar    1  UNL1       -0.0040
     32 C           7.3174   -1.6008   24.5725 C.ar    1  UNL1        0.0020
     33 C           6.7247   -0.2235   24.6159 C.ar    1  UNL1        0.0296
     34 C           5.2484   -0.0361   24.4278 C.ar    1  UNL1        0.1401
     35 F           4.6557    1.3411   24.4711 F       1  UNL1       -0.2042
     36 C           4.3648   -1.2260   24.1963 C.ar    1  UNL1        0.0296
     37 C           4.9575   -2.6032   24.1529 C.ar    1  UNL1        0.0020
@<TRIPOS>BOND
     1    23    22    1
     2    23    24    1
     3    24    25    1
     4    25    26    1
     5    26    27    2
     6    27    31    1
     7    31    32   ar
     8    32    33   ar
     9    33    34   ar
    10    34    35    1
    11    34    36   ar
    12    36    37   ar
    13    27    28    1
    14    28    21    1
    15    21     1    1
    16     1     3    1
    17     3     4   ar
    18     4     5   ar
    19     5     6    1
    20     5     7   ar
    21     7    11    1
    22    11    12    2
    23    11    13    2
    24    11    14    1
    25    14    16    1
    26    16    17   ar
    27    17    18   ar
    28    18    19   ar
    29    19    20   ar
    30     7     8   ar
    31     8     9   ar
    32     9    10    1
    33    28    23    1
    34     9     3   ar
    35    37    31   ar
    36    20    16   ar
    37    22    29    1
    38    22    30    1
    39     1     2    1
    40    14    15    1
@<TRIPOS>MOLECULE
*****
 37 40 0 0 0
SMALL
GASTEIGER

@<TRIPOS>ATOM
      1 N           5.6549    1.3984   20.5275 N.pl3   1  UNL1       -0.3316
      2 H           5.6478    2.1784   21.1281 H       1  UNL1        0.1468
      3 C           6.1757    0.0797   21.0169 C.ar    1  UNL1        0.0577
      4 C           7.0938   -0.7319   20.1517 C.ar    1  UNL1        0.0462
      5 C           7.6146   -2.0507   20.6413 C.ar    1  UNL1        0.1602
      6 F           8.5327   -2.8623   19.7761 F       1  UNL1       -0.2027
      7 C           7.2174   -2.5579   21.9958 C.ar    1  UNL1        0.1534
      8 C           6.2993   -1.7463   22.8610 C.ar    1  UNL1        0.0351
      9 C           5.7785   -0.4276   22.3716 C.ar    1  UNL1        0.0722
     10 CL          4.8604    0.3840   23.2367 Cl      1  UNL1       -0.0809
     11 S           7.7383   -3.8766   22.4853 S.O2    1  UNL1        0.0772
     12 O           6.4692   -4.5423   22.0422 O.2     1  UNL1       -0.1498
     13 O           9.0073   -3.2110   22.9283 O.2     1  UNL1       -0.1498
     14 N           8.2591   -5.1955   22.9747 N.pl3   1  UNL1       -0.1936
     15 H           8.9001   -5.7050   22.4282 H       1  UNL1        0.1758
     16 C           7.8032   -5.7379   24.2968 C.ar    1  UNL1        0.1786
     17 N           7.0466   -4.9801   25.3472 N.ar    1  UNL1       -0.2214
     18 C           6.7996   -5.9072   26.5002 C.ar    1  UNL1        0.1079
     19 C           7.4036   -7.2380   26.1625 C.ar    1  UNL1        0.0588
     20 S           8.0239   -7.1335   24.8007 S.2     1  UNL1       -0.0497
     21 C           5.1448    1.5287   19.1229 C.3     1  UNL1        0.0927
     22 N           3.9166    4.2544   18.8732 N.3     1  UNL1       -0.3219
     23 C           3.0588    3.0307   18.7446 C.3     1  UNL1        0.0568
     24 C           1.5870    3.1697   18.4911 C.3     1  UNL1        0.0205
     25 C           0.7292    1.9459   18.3625 C.3     1  UNL1        0.0271
     26 C           1.3432    0.5831   18.4873 C.2     1  UNL1       -0.0303
     27 C           2.8150    0.4441   18.7408 C.2     1  UNL1       -0.0238
     28 C           3.6728    1.6678   18.8694 C.3     1  UNL1        0.0557
     29 H           3.3389    5.0877   18.7623 H       1  UNL1        0.1188
     30 H           4.6373    4.2418   18.1515 H       1  UNL1        0.1188
     31 C           3.4292   -0.9188   18.8656 C.ar    1  UNL1       -0.0040
     32 C           4.3203   -1.4423   17.7786 C.ar    1  UNL1        0.0020
     33 C           4.9345   -2.8052   17.9035 C.ar    1  UNL1        0.0296
     34 C           4.6574   -3.6445   19.1154 C.ar    1  UNL1        0.1401
     35 F           5.2714   -5.0073   19.2403 F       1  UNL1       -0.2042
     36 C           3.7661   -3.1209   20.2025 C.ar    1  UNL1        0.0296
     37 C           3.1521   -1.7581   20.0776 C.ar    1  UNL1        0.0020
@<TRIPOS>BOND
     1    23    22    1
     2    23    24    1
     3    24    25    1
     4    25    26    1
     5    26    27    2
     6    27    31    1
     7    31    32   ar
     8    32    33   ar
     9    33    34   ar
    10    34    35    1
    11    34    36   ar
    12    36    37   ar
    13    27    28    1
    14    28    21    1
    15    21     1    1
    16     1     3    1
    17     3     4   ar
    18     4     5   ar
    19     5     6    1
    20     5     7   ar
    21     7    11    1
    22    11    12    2
    23    11    13    2
    24    11    14    1
    25    14    16    1
    26    16    17   ar
    27    17    18   ar
    28    18    19   ar
    29    19    20   ar
    30     7     8   ar
    31     8     9   ar
    32     9    10    1
    33    28    23    1
    34     9     3   ar
    35    37    31   ar
    36    20    16   ar
    37    22    29    1
    38    22    30    1
    39     1     2    1
    40    14    15    1
@<TRIPOS>MOLECULE
*****
 37 40 0 0 0
SMALL
GASTEIGER

@<TRIPOS>ATOM
      1 N           5.9331    0.2982   20.9866 N.pl3   1  UNL1       -0.3316
      2 H           6.8886    0.3935   21.2034 H       1  UNL1        0.1468
      3 C           4.8929    0.6773   21.9986 C.ar    1  UNL1        0.0577
      4 C           4.6493   -0.2019   23.1893 C.ar    1  UNL1        0.0462
      5 C           3.6091    0.1772   24.2013 C.ar    1  UNL1        0.1602
      6 F           3.3656   -0.7020   25.3920 F       1  UNL1       -0.2027
      7 C           2.8124    1.4355   24.0227 C.ar    1  UNL1        0.1534
      8 C           3.0560    2.3147   22.8320 C.ar    1  UNL1        0.0351
      9 C           4.0962    1.9356   21.8200 C.ar    1  UNL1        0.0722
     10 CL          4.3397    2.8148   20.6293 Cl      1  UNL1       -0.0809
     11 S           1.7723    1.8146   25.0347 S.O2    1  UNL1        0.0772
     12 O           2.7223    2.8049   25.6402 O.2     1  UNL1       -0.1498
     13 O           0.8222    0.8243   24.4292 O.2     1  UNL1       -0.1498
     14 N           0.7321    2.1938   26.0468 N.pl3   1  UNL1       -0.1936
     15 H           0.2358    3.0385   25.9499 H       1  UNL1        0.1758
     16 C           0.4481    1.2859   27.2066 C.ar    1  UNL1        0.1786
     17 N          -0.9099    0.8669   27.6864 N.ar    1  UNL1       -0.2214
     18 C          -0.7251   -0.0403   28.8666 C.ar    1  UNL1        0.1079
     19 C           0.7472   -0.1821   29.1161 C.ar    1  UNL1        0.0588
     20 S           1.4723    0.6376   28.0902 S.2     1  UNL1       -0.0497
     21 C           5.5174   -0.2262   19.6441 C.3     1  UNL1        0.0927
     22 N           7.5526   -2.4255   19.4987 N.3     1  UNL1       -0.3219
     23 C           6.0901   -2.7512   19.4279 C.3     1  UNL1        0.0568
     24 C           5.6451   -4.1764   19.2844 C.3     1  UNL1        0.0205
     25 C           4.1826   -4.5021   19.2137 C.3     1  UNL1        0.0271
     26 C           3.1650   -3.4025   19.2864 C.2     1  UNL1       -0.0303
     27 C           3.6100   -1.9772   19.4298 C.2     1  UNL1       -0.0238
     28 C           5.0725   -1.6516   19.5006 C.3     1  UNL1        0.0557
     29 H           8.0960   -3.2863   19.4347 H       1  UNL1        0.1188
     30 H           7.7549   -1.9606   20.3838 H       1  UNL1        0.1188
     31 C           2.5923   -0.8776   19.5025 C.ar    1  UNL1       -0.0040
     32 C           1.7249   -0.7376   20.7182 C.ar    1  UNL1        0.0020
     33 C           0.7073    0.3621   20.7909 C.ar    1  UNL1        0.0296
     34 C           0.5572    1.3218   19.6479 C.ar    1  UNL1        0.1401
     35 F          -0.4604    2.4214   19.7205 F       1  UNL1       -0.2042
     36 C           1.4247    1.1817   18.4322 C.ar    1  UNL1        0.0296
     37 C           2.4422    0.0821   18.3595 C.ar    1  UNL1        0.0020
@<TRIPOS>BOND
     1    23    22    1
     2    23    24    1
     3    24    25    1
     4    25    26    1
     5    26    27    2
     6    27    31    1
     7    31    32   ar
     8    32    33   ar
     9    33    34   ar
    10    34    35    1
    11    34    36   ar
    12    36    37   ar
    13    27    28    1
    14    28    21    1
    15    21     1    1
    16     1     3    1
    17     3     4   ar
    18     4     5   ar
    19     5     6    1
    20     5     7   ar
    21     7    11    1
    22    11    12    2
    23    11    13    2
    24    11    14    1
    25    14    16    1
    26    16    17   ar
    27    17    18   ar
    28    18    19   ar
    29    19    20   ar
    30     7     8   ar
    31     8     9   ar
    32     9    10    1
    33    28    23    1
    34     9     3   ar
    35    37    31   ar
    36    20    16   ar
    37    22    29    1
    38    22    30    1
    39     1     2    1
    40    14    15    1
@<TRIPOS>MOLECULE
*****
 37 40 0 0 0
SMALL
GASTEIGER

@<TRIPOS>ATOM
      1 N           2.8724   -0.5954   23.0966 N.pl3   1  UNL1       -0.3316
      2 H           1.9931   -0.4500   22.6784 H       1  UNL1        0.1468
      3 C           3.0349   -0.4290   24.5785 C.ar    1  UNL1        0.0577
      4 C           3.8802   -1.3957   25.3536 C.ar    1  UNL1        0.0462
      5 C           4.0426   -1.2293   26.8355 C.ar    1  UNL1        0.1602
      6 F           4.8880   -2.1960   27.6106 F       1  UNL1       -0.2027
      7 C           3.3597   -0.0961   27.5422 C.ar    1  UNL1        0.1534
      8 C           2.5144    0.8706   26.7671 C.ar    1  UNL1        0.0351
      9 C           2.3520    0.7042   25.2853 C.ar    1  UNL1        0.0722
     10 CL          1.5066    1.6710   24.5102 Cl      1  UNL1       -0.0809
     11 S           3.5222    0.0703   29.0240 S.O2    1  UNL1        0.0772
     12 O           2.4380   -0.9399   29.2563 O.2     1  UNL1       -0.1498
     13 O           4.6064    1.0805   28.7917 O.2     1  UNL1       -0.1498
     14 N           3.6846    0.2367   30.5060 N.pl3   1  UNL1       -0.1936
     15 H           3.4095    1.0764   30.9401 H       1  UNL1        0.1758
     16 C           4.2662   -0.8763   31.3263 C.ar    1  UNL1        0.1786
     17 N           3.6637   -1.4644   32.5678 N.ar    1  UNL1       -0.2214
     18 C           4.5775   -2.5482   33.0580 C.ar    1  UNL1        0.1079
     19 C           5.7448   -2.6300   32.1195 C.ar    1  UNL1        0.0588
     20 S           5.5524   -1.5967   31.0493 S.2     1  UNL1       -0.0497
     21 C           4.0497   -0.9833   22.2519 C.3     1  UNL1        0.0927
     22 N           5.2456   -3.5916   23.1278 N.3     1  UNL1       -0.3219
     23 C           4.5654   -3.4884   21.7949 C.3     1  UNL1        0.0568
     24 C           4.4831   -4.6893   20.9000 C.3     1  UNL1        0.0205
     25 C           3.8028   -4.5862   19.5671 C.3     1  UNL1        0.0271
     26 C           3.2049   -3.2821   19.1291 C.2     1  UNL1       -0.0303
     27 C           3.2872   -2.0812   20.0241 C.2     1  UNL1       -0.0238
     28 C           3.9674   -2.1844   21.3570 C.3     1  UNL1        0.0557
     29 H           5.5907   -4.5422   23.2608 H       1  UNL1        0.1188
     30 H           4.5807   -3.3646   23.8673 H       1  UNL1        0.1188
     31 C           2.6892   -0.7770   19.5861 C.ar    1  UNL1       -0.0040
     32 C           3.5219    0.2119   18.8254 C.ar    1  UNL1        0.0020
     33 C           2.9239    1.5161   18.3875 C.ar    1  UNL1        0.0296
     34 C           1.4933    1.8312   18.7103 C.ar    1  UNL1        0.1401
     35 F           0.8954    3.1353   18.2724 F       1  UNL1       -0.2042
     36 C           0.6607    0.8422   19.4710 C.ar    1  UNL1        0.0296
     37 C           1.2587   -0.4619   19.9089 C.ar    1  UNL1        0.0020
@<TRIPOS>BOND
     1    23    22    1
     2    23    24    1
     3    24    25    1
     4    25    26    1
     5    26    27    2
     6    27    31    1
     7    31    32   ar
     8    32    33   ar
     9    33    34   ar
    10    34    35    1
    11    34    36   ar
    12    36    37   ar
    13    27    28    1
    14    28    21    1
    15    21     1    1
    16     1     3    1
    17     3     4   ar
    18     4     5   ar
    19     5     6    1
    20     5     7   ar
    21     7    11    1
    22    11    12    2
    23    11    13    2
    24    11    14    1
    25    14    16    1
    26    16    17   ar
    27    17    18   ar
    28    18    19   ar
    29    19    20   ar
    30     7     8   ar
    31     8     9   ar
    32     9    10    1
    33    28    23    1
    34     9     3   ar
    35    37    31   ar
    36    20    16   ar
    37    22    29    1
    38    22    30    1
    39     1     2    1
    40    14    15    1
@<TRIPOS>MOLECULE
*****
 37 40 0 0 0
SMALL
GASTEIGER

@<TRIPOS>ATOM
      1 N         -11.6992   -3.0536   19.2836 N.pl3   1  UNL1       -0.3316
      2 H         -10.7265   -2.9080   19.2406 H       1  UNL1        0.1468
      3 C         -12.6403   -1.9154   19.0216 C.ar    1  UNL1        0.0577
      4 C         -14.0400   -1.9605   19.5592 C.ar    1  UNL1        0.0462
      5 C         -14.9811   -0.8222   19.2971 C.ar    1  UNL1        0.1602
      6 F         -16.3807   -0.8673   19.8347 F       1  UNL1       -0.2027
      7 C         -14.5226    0.3611   18.4975 C.ar    1  UNL1        0.1534
      8 C         -13.1229    0.4062   17.9599 C.ar    1  UNL1        0.0351
      9 C         -12.1818   -0.7320   18.2220 C.ar    1  UNL1        0.0722
     10 CL        -10.7822   -0.6869   17.6844 Cl      1  UNL1       -0.0809
     11 S         -15.4637    1.4994   18.2355 S.O2    1  UNL1        0.0772
     12 O         -14.7828    2.3074   19.3000 O.2     1  UNL1       -0.1498
     13 O         -16.1446    0.6913   17.1709 O.2     1  UNL1       -0.1498
     14 N         -16.4048    2.6377   17.9734 N.pl3   1  UNL1       -0.1936
     15 H         -16.3542    3.1327   17.1240 H       1  UNL1        0.1758
     16 C         -17.4231    3.0217   19.0057 C.ar    1  UNL1        0.1786
     17 N         -18.2278    2.0745   19.8455 N.ar    1  UNL1       -0.2214
     18 C         -19.1175    2.8877   20.7383 C.ar    1  UNL1        0.1079
     19 C         -18.8627    4.3376   20.4503 C.ar    1  UNL1        0.0588
     20 S         -17.8154    4.4205   19.3796 S.2     1  UNL1       -0.0497
     21 C         -12.2401   -4.4138   19.6113 C.3     1  UNL1        0.0927
     22 N          -9.3028   -5.0225   19.5709 N.3     1  UNL1       -0.3219
     23 C         -10.2654   -5.9236   18.8558 C.3     1  UNL1        0.0568
     24 C          -9.7593   -7.1291   18.1205 C.3     1  UNL1        0.0205
     25 C         -10.7219   -8.0302   17.4054 C.3     1  UNL1        0.0271
     26 C         -12.1905   -7.7259   17.4256 C.2     1  UNL1       -0.0303
     27 C         -12.6966   -6.5205   18.1609 C.2     1  UNL1       -0.0238
     28 C         -11.7340   -5.6193   18.8760 C.3     1  UNL1        0.0557
     29 H          -8.3537   -5.3771   19.4534 H       1  UNL1        0.1188
     30 H          -9.5353   -4.9960   20.5637 H       1  UNL1        0.1188
     31 C         -14.1653   -6.2161   18.1811 C.ar    1  UNL1       -0.0040
     32 C         -15.0315   -6.7720   19.2722 C.ar    1  UNL1        0.0020
     33 C         -16.5002   -6.4677   19.2924 C.ar    1  UNL1        0.0296
     34 C         -17.1026   -5.6073   18.2215 C.ar    1  UNL1        0.1401
     35 F         -18.5712   -5.3029   18.2416 F       1  UNL1       -0.2042
     36 C         -16.2363   -5.0513   17.1303 C.ar    1  UNL1        0.0296
     37 C         -14.7677   -5.3557   17.1102 C.ar    1  UNL1        0.0020
@<TRIPOS>BOND
     1    23    22    1
     2    23    24    1
     3    24    25    1
     4    25    26    1
     5    26    27    2
     6    27    31    1
     7    31    32   ar
     8    32    33   ar
     9    33    34   ar
    10    34    35    1
    11    34    36   ar
    12    36    37   ar
    13    27    28    1
    14    28    21    1
    15    21     1    1
    16     1     3    1
    17     3     4   ar
    18     4     5   ar
    19     5     6    1
    20     5     7   ar
    21     7    11    1
    22    11    12    2
    23    11    13    2
    24    11    14    1
    25    14    16    1
    26    16    17   ar
    27    17    18   ar
    28    18    19   ar
    29    19    20   ar
    30     7     8   ar
    31     8     9   ar
    32     9    10    1
    33    28    23    1
    34     9     3   ar
    35    37    31   ar
    36    20    16   ar
    37    22    29    1
    38    22    30    1
    39     1     2    1
    40    14    15    1
