@<TRIPOS>MOLECULE
*****
 23 25 0 0 0
SMALL
GASTEIGER

@<TRIPOS>ATOM
      1 C         -11.0050  -17.4034   22.7266 C.3     1  UNL1        0.0710
      2 C         -11.9361  -18.4945   23.1654 C.3     1  UNL1        0.0257
      3 C         -13.3152  -17.9136   23.2682 C.3     1  UNL1        0.0690
      4 N         -13.2364  -16.4635   22.8929 N.3     1  UNL1       -0.2971
      5 C         -11.8087  -16.1481   22.5582 C.3     1  UNL1        0.0758
      6 H         -13.5441  -15.8862   23.6756 H       1  UNL1        0.1233
      7 C          -9.8557  -16.5368   22.3046 C.2     1  UNL1        0.1700
      8 O          -9.7854  -16.0160   20.8998 O.2     1  UNL1       -0.2916
      9 C          -8.7767  -16.1909   23.2877 C.2     1  UNL1        0.0171
     10 C          -7.3585  -16.0413   22.8229 C.2     1  UNL1        0.0005
     11 C          -6.2795  -15.6954   23.8059 C.2     1  UNL1        0.0204
     12 C          -6.6190  -15.4993   25.2538 C.2     1  UNL1        0.1007
     13 N          -5.7746  -15.1554   26.4449 N.2     1  UNL1       -0.1482
     14 N          -6.6711  -15.0925   27.6459 N.2     1  UNL1       -0.1467
     15 C          -8.0695  -15.3975   27.1970 C.2     1  UNL1        0.1197
     16 C          -8.0373  -15.6489   25.7186 C.2     1  UNL1        0.0226
     17 C          -9.1161  -15.9947   24.7355 C.3     1  UNL1        0.0587
     18 C          -9.9610  -18.4775   22.8068 C.3     1  UNL1        0.0086
     19 C          -9.9520  -19.5911   21.8019 C.3     1  UNL1        0.0005
     20 C          -7.8516  -19.5202   21.5132 C.3     1  UNL1        0.0000
     21 C          -9.0474  -19.5163   20.6077 C.3     1  UNL1        0.0000
     22 C         -10.2433  -19.5123   19.7021 C.3     1  UNL1        0.0000
     23 C          -8.1429  -19.4414   19.4134 C.3     1  UNL1        0.0000
@<TRIPOS>BOND
     1    20    21    1
     2    21    22    1
     3    21    23    1
     4    21    19    1
     5    19    18    1
     6    18     1    1
     7     1     7    1
     8     7     8    2
     9     7     9    1
    10     9    10    2
    11    10    11    1
    12    11    12    2
    13    12    13    1
    14    13    14    2
    15    14    15    1
    16    15    16    2
    17    16    17    1
    18     1     2    1
    19     2     3    1
    20     3     4    1
    21     4     5    1
    22     5     1    1
    23    17     9    1
    24    16    12    1
    25     4     6    1
@<TRIPOS>MOLECULE
*****
 23 25 0 0 0
SMALL
GASTEIGER

@<TRIPOS>ATOM
      1 C          -9.1632  -18.1490   23.4413 C.3     1  UNL1        0.0710
      2 C          -9.7243  -18.1973   24.8317 C.3     1  UNL1        0.0257
      3 C         -10.3385  -19.5503   25.0368 C.3     1  UNL1        0.0690
      4 N         -10.1570  -20.3382   23.7734 N.3     1  UNL1       -0.2971
      5 C          -9.4307  -19.4722   22.7873 C.3     1  UNL1        0.0758
      6 H         -11.0672  -20.6030   23.3969 H       1  UNL1        0.1233
      7 C          -8.5180  -17.8093   22.1305 C.2     1  UNL1        0.1700
      8 O          -9.1044  -16.7363   21.2618 O.2     1  UNL1       -0.2916
      9 C          -7.2864  -18.5426   21.6885 C.2     1  UNL1        0.0171
     10 C          -7.3569  -19.5009   20.5368 C.2     1  UNL1        0.0005
     11 C          -6.1252  -20.2343   20.0948 C.2     1  UNL1        0.0204
     12 C          -4.8231  -20.0092   20.8046 C.2     1  UNL1        0.1007
     13 N          -3.4536  -20.5845   20.5957 N.2     1  UNL1       -0.1482
     14 N          -2.5368  -19.9816   21.6184 N.2     1  UNL1       -0.1467
     15 C          -3.3396  -19.0338   22.4593 C.2     1  UNL1        0.1197
     16 C          -4.7526  -19.0509   21.9564 C.2     1  UNL1        0.0226
     17 C          -5.9843  -18.3176   22.3983 C.3     1  UNL1        0.0587
     18 C          -8.7609  -16.7548   23.8213 C.3     1  UNL1        0.0086
     19 C          -8.7235  -16.3524   25.2658 C.3     1  UNL1        0.0005
     20 C          -7.0064  -15.3850   24.4811 C.3     1  UNL1        0.0000
     21 C          -7.4672  -15.7803   25.8528 C.3     1  UNL1        0.0000
     22 C          -7.9280  -16.1757   27.2244 C.3     1  UNL1        0.0000
     23 C          -6.2109  -15.2083   26.4397 C.3     1  UNL1        0.0000
@<TRIPOS>BOND
     1    20    21    1
     2    21    22    1
     3    21    23    1
     4    21    19    1
     5    19    18    1
     6    18     1    1
     7     1     7    1
     8     7     8    2
     9     7     9    1
    10     9    10    2
    11    10    11    1
    12    11    12    2
    13    12    13    1
    14    13    14    2
    15    14    15    1
    16    15    16    2
    17    16    17    1
    18     1     2    1
    19     2     3    1
    20     3     4    1
    21     4     5    1
    22     5     1    1
    23    17     9    1
    24    16    12    1
    25     4     6    1
@<TRIPOS>MOLECULE
*****
 23 25 0 0 0
SMALL
GASTEIGER

@<TRIPOS>ATOM
      1 C          -8.4978  -16.8008   23.7275 C.3     1  UNL1        0.0710
      2 C          -8.8902  -16.8437   25.1747 C.3     1  UNL1        0.0257
      3 C          -8.3774  -15.5964   25.8312 C.3     1  UNL1        0.0690
      4 N          -7.6681  -14.7825   24.7898 N.3     1  UNL1       -0.2971
      5 C          -7.7425  -15.5268   23.4897 C.3     1  UNL1        0.0758
      6 H          -6.6928  -14.6512   25.0581 H       1  UNL1        0.1233
      7 C          -8.2527  -17.0343   22.2662 C.2     1  UNL1        0.1700
      8 O          -9.0915  -16.3282   21.2428 O.2     1  UNL1       -0.2916
      9 C          -7.1685  -17.9740   21.8285 C.2     1  UNL1        0.0171
     10 C          -7.4472  -18.9999   20.7704 C.2     1  UNL1        0.0005
     11 C          -6.3630  -19.9397   20.3327 C.2     1  UNL1        0.0204
     12 C          -5.0001  -19.8533   20.9531 C.2     1  UNL1        0.1007
     13 N          -3.7426  -20.6390   20.7265 N.2     1  UNL1       -0.1482
     14 N          -2.6866  -20.0985   21.6446 N.2     1  UNL1       -0.1467
     15 C          -3.2915  -18.9789   22.4386 C.2     1  UNL1        0.1197
     16 C          -4.7214  -18.8273   22.0113 C.2     1  UNL1        0.0226
     17 C          -5.8056  -17.8877   22.4489 C.3     1  UNL1        0.0587
     18 C          -9.2019  -18.1235   23.6599 C.3     1  UNL1        0.0086
     19 C         -10.6937  -18.1873   23.8027 C.3     1  UNL1        0.0005
     20 C         -12.1512  -16.8970   22.9596 C.3     1  UNL1        0.0000
     21 C         -11.5633  -18.2241   22.5811 C.3     1  UNL1        0.0000
     22 C         -10.9754  -19.5512   22.2026 C.3     1  UNL1        0.0000
     23 C         -12.4329  -18.2609   21.3594 C.3     1  UNL1        0.0000
@<TRIPOS>BOND
     1    20    21    1
     2    21    22    1
     3    21    23    1
     4    21    19    1
     5    19    18    1
     6    18     1    1
     7     1     7    1
     8     7     8    2
     9     7     9    1
    10     9    10    2
    11    10    11    1
    12    11    12    2
    13    12    13    1
    14    13    14    2
    15    14    15    1
    16    15    16    2
    17    16    17    1
    18     1     2    1
    19     2     3    1
    20     3     4    1
    21     4     5    1
    22     5     1    1
    23    17     9    1
    24    16    12    1
    25     4     6    1
@<TRIPOS>MOLECULE
*****
 23 25 0 0 0
SMALL
GASTEIGER

@<TRIPOS>ATOM
      1 C          -9.2780  -18.8691   23.1444 C.3     1  UNL1        0.0710
      2 C          -9.8520  -18.2974   24.4070 C.3     1  UNL1        0.0257
      3 C         -10.0496  -19.4237   25.3778 C.3     1  UNL1        0.0690
      4 N          -9.5978  -20.6913   24.7153 N.3     1  UNL1       -0.2971
      5 C          -9.1210  -20.3486   23.3350 C.3     1  UNL1        0.0758
      6 H         -10.3755  -21.3489   24.6595 H       1  UNL1        0.1233
      7 C          -8.7122  -19.1434   21.7826 C.2     1  UNL1        0.1700
      8 O          -9.6265  -19.2516   20.5985 O.2     1  UNL1       -0.2916
      9 C          -7.2320  -19.3096   21.6050 C.2     1  UNL1        0.0171
     10 C          -6.7025  -20.2655   20.5776 C.2     1  UNL1        0.0005
     11 C          -5.2223  -20.4316   20.4000 C.2     1  UNL1        0.0204
     12 C          -4.2717  -19.6418   21.2500 C.2     1  UNL1        0.1007
     13 N          -2.7733  -19.5947   21.3017 N.2     1  UNL1       -0.1482
     14 N          -2.3769  -18.6096   22.3611 N.2     1  UNL1       -0.1467
     15 C          -3.6302  -18.0479   22.9642 C.2     1  UNL1        0.1197
     16 C          -4.8013  -18.6858   22.2775 C.2     1  UNL1        0.0226
     17 C          -6.2814  -18.5197   22.4550 C.3     1  UNL1        0.0587
     18 C          -9.3168  -17.4469   22.6692 C.3     1  UNL1        0.0086
     19 C         -10.5536  -16.6223   22.8704 C.3     1  UNL1        0.0005
     20 C         -10.4305  -15.8257   20.9082 C.3     1  UNL1        0.0000
     21 C         -11.5211  -16.4332   21.7399 C.3     1  UNL1        0.0000
     22 C         -12.6117  -17.0406   22.5716 C.3     1  UNL1        0.0000
     23 C         -12.4886  -16.2440   20.6093 C.3     1  UNL1        0.0000
@<TRIPOS>BOND
     1    20    21    1
     2    21    22    1
     3    21    23    1
     4    21    19    1
     5    19    18    1
     6    18     1    1
     7     1     7    1
     8     7     8    2
     9     7     9    1
    10     9    10    2
    11    10    11    1
    12    11    12    2
    13    12    13    1
    14    13    14    2
    15    14    15    1
    16    15    16    2
    17    16    17    1
    18     1     2    1
    19     2     3    1
    20     3     4    1
    21     4     5    1
    22     5     1    1
    23    17     9    1
    24    16    12    1
    25     4     6    1
@<TRIPOS>MOLECULE
*****
 23 25 0 0 0
SMALL
GASTEIGER

@<TRIPOS>ATOM
      1 C          -6.6247  -16.7071   23.2738 C.3     1  UNL1        0.0710
      2 C          -5.3871  -16.3124   24.0240 C.3     1  UNL1        0.0257
      3 C          -5.6346  -14.9746   24.6554 C.3     1  UNL1        0.0690
      4 N          -7.0252  -14.5424   24.2956 N.3     1  UNL1       -0.2971
      5 C          -7.6371  -15.6131   23.4417 C.3     1  UNL1        0.0758
      6 H          -6.9916  -13.6640   23.7782 H       1  UNL1        0.1233
      7 C          -7.6975  -17.3588   22.4527 C.2     1  UNL1        0.1700
      8 O          -7.4695  -17.6223   20.9938 O.2     1  UNL1       -0.2916
      9 C          -8.9984  -17.7472   23.0907 C.2     1  UNL1        0.0171
     10 C          -9.0049  -18.6276   24.3050 C.2     1  UNL1        0.0005
     11 C         -10.3059  -19.0160   24.9430 C.2     1  UNL1        0.0204
     12 C         -11.6002  -18.5237   24.3665 C.2     1  UNL1        0.1007
     13 N         -13.0272  -18.7387   24.7755 N.2     1  UNL1       -0.1482
     14 N         -13.9027  -17.9911   23.8140 N.2     1  UNL1       -0.1467
     15 C         -13.0167  -17.3140   22.8107 C.2     1  UNL1        0.1197
     16 C         -11.5937  -17.6432   23.1522 C.2     1  UNL1        0.0226
     17 C         -10.2928  -17.2549   22.5143 C.3     1  UNL1        0.0587
     18 C          -5.8365  -17.9374   22.9343 C.3     1  UNL1        0.0086
     19 C          -4.3467  -17.9455   23.1087 C.3     1  UNL1        0.0005
     20 C          -4.6967  -19.6611   21.9109 C.3     1  UNL1        0.0000
     21 C          -3.4952  -18.8270   22.2438 C.3     1  UNL1        0.0000
     22 C          -2.2937  -17.9929   22.5768 C.3     1  UNL1        0.0000
     23 C          -2.6437  -19.7084   21.3790 C.3     1  UNL1        0.0000
@<TRIPOS>BOND
     1    20    21    1
     2    21    22    1
     3    21    23    1
     4    21    19    1
     5    19    18    1
     6    18     1    1
     7     1     7    1
     8     7     8    2
     9     7     9    1
    10     9    10    2
    11    10    11    1
    12    11    12    2
    13    12    13    1
    14    13    14    2
    15    14    15    1
    16    15    16    2
    17    16    17    1
    18     1     2    1
    19     2     3    1
    20     3     4    1
    21     4     5    1
    22     5     1    1
    23    17     9    1
    24    16    12    1
    25     4     6    1
@<TRIPOS>MOLECULE
*****
 23 25 0 0 0
SMALL
GASTEIGER

@<TRIPOS>ATOM
      1 C          -8.8392  -17.7344   22.3021 C.3     1  UNL1        0.0710
      2 C          -9.3521  -16.3248   22.2979 C.3     1  UNL1        0.0257
      3 C         -10.1835  -16.1378   21.0635 C.3     1  UNL1        0.0690
      4 N         -10.1845  -17.4317   20.3049 N.3     1  UNL1       -0.2971
      5 C          -9.3537  -18.4185   21.0703 C.3     1  UNL1        0.0758
      6 H          -9.7854  -17.2892   19.3770 H       1  UNL1        0.1233
      7 C          -8.1904  -19.0589   22.5757 C.2     1  UNL1        0.1700
      8 O          -8.9099  -20.0924   23.3906 O.2     1  UNL1       -0.2916
      9 C          -6.8221  -19.3498   22.0343 C.2     1  UNL1        0.0171
     10 C          -6.6517  -20.3347   20.9160 C.2     1  UNL1        0.0005
     11 C          -5.2833  -20.6256   20.3747 C.2     1  UNL1        0.0204
     12 C          -4.0854  -19.9315   20.9518 C.2     1  UNL1        0.1007
     13 N          -2.6236  -20.0145   20.6258 N.2     1  UNL1       -0.1482
     14 N          -1.8905  -19.0808   21.5428 N.2     1  UNL1       -0.1467
     15 C          -2.8992  -18.4208   22.4354 C.2     1  UNL1        0.1197
     16 C          -4.2557  -18.9465   22.0702 C.2     1  UNL1        0.0226
     17 C          -5.6241  -18.6557   22.6115 C.3     1  UNL1        0.0587
     18 C          -8.1891  -17.3272   23.5911 C.3     1  UNL1        0.0086
     19 C          -7.7225  -15.9145   23.7822 C.3     1  UNL1        0.0005
     20 C          -5.6815  -15.3588   23.9415 C.3     1  UNL1        0.0000
     21 C          -6.8008  -15.5760   24.9162 C.3     1  UNL1        0.0000
     22 C          -7.9201  -15.7932   25.8909 C.3     1  UNL1        0.0000
     23 C          -5.8790  -15.2375   26.0501 C.3     1  UNL1        0.0000
@<TRIPOS>BOND
     1    20    21    1
     2    21    22    1
     3    21    23    1
     4    21    19    1
     5    19    18    1
     6    18     1    1
     7     1     7    1
     8     7     8    2
     9     7     9    1
    10     9    10    2
    11    10    11    1
    12    11    12    2
    13    12    13    1
    14    13    14    2
    15    14    15    1
    16    15    16    2
    17    16    17    1
    18     1     2    1
    19     2     3    1
    20     3     4    1
    21     4     5    1
    22     5     1    1
    23    17     9    1
    24    16    12    1
    25     4     6    1
@<TRIPOS>MOLECULE
*****
 23 25 0 0 0
SMALL
GASTEIGER

@<TRIPOS>ATOM
      1 C          -7.7136  -17.8839   22.0852 C.3     1  UNL1        0.0710
      2 C          -8.4528  -16.5835   22.1966 C.3     1  UNL1        0.0257
      3 C          -9.6871  -16.6779   21.3496 C.3     1  UNL1        0.0690
      4 N          -9.7107  -18.0366   20.7146 N.3     1  UNL1       -0.2971
      5 C          -8.4910  -18.7820   21.1692 C.3     1  UNL1        0.0758
      6 H          -9.7013  -17.9442   19.6989 H       1  UNL1        0.1233
      7 C          -6.7706  -19.0475   22.1688 C.2     1  UNL1        0.1700
      8 O          -7.2847  -20.4034   22.5524 O.2     1  UNL1       -0.2916
      9 C          -5.3135  -18.8550   21.8689 C.2     1  UNL1        0.0171
     10 C          -4.3344  -18.6742   22.9907 C.2     1  UNL1        0.0005
     11 C          -2.8773  -18.4817   22.6908 C.2     1  UNL1        0.0204
     12 C          -2.3994  -18.4701   21.2690 C.2     1  UNL1        0.1007
     13 N          -1.0344  -18.3022   20.6702 N.2     1  UNL1       -0.1482
     14 N          -1.1700  -18.3793   19.1784 N.2     1  UNL1       -0.1467
     15 C          -2.6188  -18.5948   18.8551 C.2     1  UNL1        0.1197
     16 C          -3.3786  -18.6510   20.1471 C.2     1  UNL1        0.0226
     17 C          -4.8357  -18.8434   20.4471 C.3     1  UNL1        0.0587
     18 C          -6.7390  -17.2291   23.0186 C.3     1  UNL1        0.0086
     19 C          -7.1408  -16.0026   23.7829 C.3     1  UNL1        0.0005
     20 C          -7.5469  -15.7020   25.8432 C.3     1  UNL1        0.0000
     21 C          -6.3360  -15.5609   24.9692 C.3     1  UNL1        0.0000
     22 C          -5.1251  -15.4198   24.0953 C.3     1  UNL1        0.0000
     23 C          -5.5313  -15.1192   26.1555 C.3     1  UNL1        0.0000
@<TRIPOS>BOND
     1    20    21    1
     2    21    22    1
     3    21    23    1
     4    21    19    1
     5    19    18    1
     6    18     1    1
     7     1     7    1
     8     7     8    2
     9     7     9    1
    10     9    10    2
    11    10    11    1
    12    11    12    2
    13    12    13    1
    14    13    14    2
    15    14    15    1
    16    15    16    2
    17    16    17    1
    18     1     2    1
    19     2     3    1
    20     3     4    1
    21     4     5    1
    22     5     1    1
    23    17     9    1
    24    16    12    1
    25     4     6    1
@<TRIPOS>MOLECULE
*****
 23 25 0 0 0
SMALL
GASTEIGER

@<TRIPOS>ATOM
      1 C          -7.8234  -16.0979   24.7921 C.3     1  UNL1        0.0710
      2 C          -8.6921  -16.3254   25.9937 C.3     1  UNL1        0.0257
      3 C          -7.9907  -15.7500   27.1882 C.3     1  UNL1        0.0690
      4 N          -6.6887  -15.1669   26.7250 N.3     1  UNL1       -0.2971
      5 C          -6.5852  -15.3819   25.2441 C.3     1  UNL1        0.0758
      6 H          -5.9135  -15.6321   27.1973 H       1  UNL1        0.1233
      7 C          -7.1857  -16.0165   23.4368 C.2     1  UNL1        0.1700
      8 O          -7.6540  -14.9905   22.4480 O.2     1  UNL1       -0.2916
      9 C          -6.0796  -16.9613   23.0705 C.2     1  UNL1        0.0171
     10 C          -4.7273  -16.8138   23.7023 C.2     1  UNL1        0.0005
     11 C          -3.6212  -17.7585   23.3359 C.2     1  UNL1        0.0204
     12 C          -3.8677  -18.8508   22.3378 C.2     1  UNL1        0.1007
     13 N          -2.9777  -19.9237   21.7838 N.2     1  UNL1       -0.1482
     14 N          -3.7802  -20.7342   20.8097 N.2     1  UNL1       -0.1467
     15 C          -5.1660  -20.1623   20.7616 C.2     1  UNL1        0.1197
     16 C          -5.2201  -18.9982   21.7060 C.2     1  UNL1        0.0226
     17 C          -6.3261  -18.0535   22.0724 C.3     1  UNL1        0.0587
     18 C          -8.9283  -16.7969   24.0568 C.3     1  UNL1        0.0086
     19 C          -9.4686  -18.0969   24.5745 C.3     1  UNL1        0.0005
     20 C          -9.9336  -20.1654   24.6473 C.3     1  UNL1        0.0000
     21 C         -10.1003  -19.0759   23.6298 C.3     1  UNL1        0.0000
     22 C         -10.2670  -17.9865   22.6122 C.3     1  UNL1        0.0000
     23 C         -10.7320  -20.0550   22.6851 C.3     1  UNL1        0.0000
@<TRIPOS>BOND
     1    20    21    1
     2    21    22    1
     3    21    23    1
     4    21    19    1
     5    19    18    1
     6    18     1    1
     7     1     7    1
     8     7     8    2
     9     7     9    1
    10     9    10    2
    11    10    11    1
    12    11    12    2
    13    12    13    1
    14    13    14    2
    15    14    15    1
    16    15    16    2
    17    16    17    1
    18     1     2    1
    19     2     3    1
    20     3     4    1
    21     4     5    1
    22     5     1    1
    23    17     9    1
    24    16    12    1
    25     4     6    1
@<TRIPOS>MOLECULE
*****
 23 25 0 0 0
SMALL
GASTEIGER

@<TRIPOS>ATOM
      1 C          -6.8182  -19.0238   21.3135 C.3     1  UNL1        0.0710
      2 C          -5.4851  -18.7331   21.9369 C.3     1  UNL1        0.0257
      3 C          -4.5023  -19.7419   21.4212 C.3     1  UNL1        0.0690
      4 N          -5.2278  -20.6562   20.4790 N.3     1  UNL1       -0.2971
      5 C          -6.6591  -20.2124   20.4124 C.3     1  UNL1        0.0758
      6 H          -5.1785  -21.6158   20.8213 H       1  UNL1        0.1233
      7 C          -8.2468  -19.0680   20.8585 C.2     1  UNL1        0.1700
      8 O          -8.5661  -19.1246   19.3941 O.2     1  UNL1       -0.2916
      9 C          -9.3561  -19.0557   21.8682 C.2     1  UNL1        0.0171
     10 C          -9.2495  -19.8904   23.1098 C.2     1  UNL1        0.0005
     11 C         -10.3589  -19.8780   24.1195 C.2     1  UNL1        0.0204
     12 C         -11.5748  -19.0309   23.8873 C.2     1  UNL1        0.1007
     13 N         -12.8186  -18.8168   24.6980 N.2     1  UNL1       -0.1482
     14 N         -13.6939  -17.8498   23.9572 N.2     1  UNL1       -0.1467
     15 C         -12.9910  -17.4662   22.6888 C.2     1  UNL1        0.1197
     16 C         -11.6813  -18.1961   22.6456 C.2     1  UNL1        0.0226
     17 C         -10.5720  -18.2085   21.6361 C.3     1  UNL1        0.0587
     18 C          -7.2759  -17.8444   22.1194 C.3     1  UNL1        0.0086
     19 C          -6.3812  -17.2642   23.1743 C.3     1  UNL1        0.0005
     20 C          -8.2184  -16.5136   23.9236 C.3     1  UNL1        0.0000
     21 C          -6.7989  -16.0288   23.9155 C.3     1  UNL1        0.0000
     22 C          -5.3794  -15.5440   23.9074 C.3     1  UNL1        0.0000
     23 C          -7.2166  -14.7934   24.6567 C.3     1  UNL1        0.0000
@<TRIPOS>BOND
     1    20    21    1
     2    21    22    1
     3    21    23    1
     4    21    19    1
     5    19    18    1
     6    18     1    1
     7     1     7    1
     8     7     8    2
     9     7     9    1
    10     9    10    2
    11    10    11    1
    12    11    12    2
    13    12    13    1
    14    13    14    2
    15    14    15    1
    16    15    16    2
    17    16    17    1
    18     1     2    1
    19     2     3    1
    20     3     4    1
    21     4     5    1
    22     5     1    1
    23    17     9    1
    24    16    12    1
    25     4     6    1
