@<TRIPOS>MOLECULE
*****
 37 40 0 0 0
SMALL
GASTEIGER

@<TRIPOS>ATOM
      1 N           1.6357    0.6126   20.7599 N.am    1  UNL1       -0.2533
      2 C           1.7439    0.6776   22.2545 C.2     1  UNL1        0.3092
      3 O           2.8179   -0.0936   22.9630 O.2     1  UNL1       -0.2521
      4 N           0.7782    1.5138   23.0408 N.am    1  UNL1       -0.2680
      5 H           0.9309    1.1188   20.2949 H       1  UNL1        0.1578
      6 H           0.0733    2.0199   22.5759 H       1  UNL1        0.1564
      7 C           0.8865    1.5787   24.5355 C.ar    1  UNL1        0.0516
      8 C          -0.2524    1.1086   25.3911 C.ar    1  UNL1        0.0147
      9 C          -0.1441    1.1736   26.8857 C.ar    1  UNL1        0.0013
     10 C           1.1029    1.7086   27.5249 C.ar    1  UNL1        0.0016
     11 C           2.2418    2.1786   26.6693 C.ar    1  UNL1        0.0013
     12 C           2.1336    2.1137   25.1746 C.ar    1  UNL1        0.0147
     13 C           1.2112    1.7735   29.0195 C.ar    1  UNL1        0.0193
     14 C           0.7392    2.9936   29.7534 C.ar    1  UNL1        0.0044
     15 C           0.8474    3.0585   31.2481 C.ar    1  UNL1        0.0339
     16 C           1.4277    1.9034   32.0089 C.ar    1  UNL1        0.1254
     17 N           1.5360    1.9683   33.5035 N.pl3   1  UNL1       -0.3426
     18 N           1.8998    0.6833   31.2750 N.ar    1  UNL1       -0.2296
     19 C           1.7915    0.6183   29.7803 C.ar    1  UNL1        0.1002
     20 H           1.2262    2.7691   33.9852 H       1  UNL1        0.1437
     21 H           1.9169    1.2102   34.0029 H       1  UNL1        0.1437
     22 N           3.5678    0.2802   18.9428 N.ar    1  UNL1       -0.2162
     23 N           4.3339   -0.8952   18.4122 N.ar    1  UNL1       -0.1683
     24 C           3.8411   -2.1253   19.1150 C.ar    1  UNL1        0.0810
     25 C           2.7703   -1.7102   20.0800 C.ar    1  UNL1        0.0509
     26 C           2.6015   -0.2235   19.9736 C.ar    1  UNL1        0.1380
     27 C           4.2491    5.9933   17.2410 C.3     1  UNL1        0.0310
     28 C           4.0787    4.5650   17.6665 C.ar    1  UNL1       -0.0218
     29 C           2.7183    4.0475   18.0286 C.ar    1  UNL1       -0.0027
     30 C           2.5479    2.6192   18.4541 C.ar    1  UNL1        0.0189
     31 C           3.7381    1.7085   18.5174 C.ar    1  UNL1        0.0842
     32 C           5.0986    2.2260   18.1553 C.ar    1  UNL1        0.0189
     33 C           5.2689    3.6543   17.7298 C.ar    1  UNL1       -0.0027
     34 C           4.3327   -3.5248   18.8920 C.3     1  UNL1        0.0372
     35 C           5.6724   -2.9889   18.4823 C.3     1  UNL1        0.0060
     36 C           2.9929   -4.0607   19.3017 C.3     1  UNL1        0.0060
     37 C           4.8243   -4.9243   18.6690 C.3     1  UNL1        0.0060
@<TRIPOS>BOND
     1    27    28    1
     2    28    29   ar
     3    29    30   ar
     4    30    31   ar
     5    31    22    1
     6    22    23   ar
     7    23    24   ar
     8    24    34    1
     9    34    35    1
    10    34    36    1
    11    34    37    1
    12    24    25   ar
    13    25    26   ar
    14    26     1    1
    15     1     2   am
    16     2     3    2
    17     2     4   am
    18     4     7    1
    19     7     8   ar
    20     8     9   ar
    21     9    10   ar
    22    10    13    1
    23    13    14   ar
    24    14    15   ar
    25    15    16   ar
    26    16    17    1
    27    16    18   ar
    28    18    19   ar
    29    10    11   ar
    30    11    12   ar
    31    31    32   ar
    32    32    33   ar
    33    33    28   ar
    34    26    22   ar
    35    12     7   ar
    36    19    13   ar
    37     1     5    1
    38     4     6    1
    39    17    20    1
    40    17    21    1
@<TRIPOS>MOLECULE
*****
 37 40 0 0 0
SMALL
GASTEIGER

@<TRIPOS>ATOM
      1 N           3.6253    0.3550   22.2258 N.am    1  UNL1       -0.2533
      2 C           2.3282    0.9292   22.7134 C.2     1  UNL1        0.3092
      3 O           1.0397    0.5399   22.0514 O.2     1  UNL1       -0.2521
      4 N           2.3195    1.8927   23.8630 N.am    1  UNL1       -0.2680
      5 H           4.4709    0.6105   22.6603 H       1  UNL1        0.1578
      6 H           3.1652    2.1482   24.2975 H       1  UNL1        0.1564
      7 C           1.0224    2.4669   24.3505 C.ar    1  UNL1        0.0516
      8 C           0.2205    1.7355   25.3859 C.ar    1  UNL1        0.0147
      9 C          -1.0767    2.3097   25.8735 C.ar    1  UNL1        0.0013
     10 C          -1.5720    3.6152   25.3257 C.ar    1  UNL1        0.0016
     11 C          -0.7701    4.3466   24.2903 C.ar    1  UNL1        0.0013
     12 C           0.5270    3.7724   23.8027 C.ar    1  UNL1        0.0147
     13 C          -2.8692    4.1894   25.8132 C.ar    1  UNL1        0.0193
     14 C          -4.1410    3.9068   25.0698 C.ar    1  UNL1        0.0044
     15 C          -5.4381    4.4810   25.5573 C.ar    1  UNL1        0.0339
     16 C          -5.4634    5.3377   26.7883 C.ar    1  UNL1        0.1254
     17 N          -6.7606    5.9119   27.2758 N.pl3   1  UNL1       -0.3426
     18 N          -4.1916    5.6203   27.5317 N.ar    1  UNL1       -0.2296
     19 C          -2.8945    5.0462   27.0442 C.ar    1  UNL1        0.1002
     20 H          -7.5953    5.7264   26.7879 H       1  UNL1        0.1437
     21 H          -6.7772    6.4743   28.0838 H       1  UNL1        0.1437
     22 N           3.1528   -0.3246   19.6841 N.ar    1  UNL1       -0.2162
     23 N           3.3469   -1.5657   18.8645 N.ar    1  UNL1       -0.1683
     24 C           3.9480   -2.6167   19.7499 C.ar    1  UNL1        0.0810
     25 C           4.1255   -2.0251   21.1169 C.ar    1  UNL1        0.0509
     26 C           3.6340   -0.6085   21.0762 C.ar    1  UNL1        0.1380
     27 C           0.8551    4.8646   17.7366 C.3     1  UNL1        0.0310
     28 C           1.4295    3.5673   18.2235 C.ar    1  UNL1       -0.0218
     29 C           2.8455    3.5116   18.7151 C.ar    1  UNL1       -0.0027
     30 C           3.4200    2.2143   19.2020 C.ar    1  UNL1        0.0189
     31 C           2.5784    0.9727   19.1973 C.ar    1  UNL1        0.0842
     32 C           1.1623    1.0284   18.7057 C.ar    1  UNL1        0.0189
     33 C           0.5879    2.3257   18.2188 C.ar    1  UNL1       -0.0027
     34 C           4.3084   -4.0140   19.3403 C.3     1  UNL1        0.0372
     35 C           2.8816   -4.2687   18.9538 C.3     1  UNL1        0.0060
     36 C           5.7352   -3.7593   19.7269 C.3     1  UNL1        0.0060
     37 C           4.6688   -5.4112   18.9307 C.3     1  UNL1        0.0060
@<TRIPOS>BOND
     1    27    28    1
     2    28    29   ar
     3    29    30   ar
     4    30    31   ar
     5    31    22    1
     6    22    23   ar
     7    23    24   ar
     8    24    34    1
     9    34    35    1
    10    34    36    1
    11    34    37    1
    12    24    25   ar
    13    25    26   ar
    14    26     1    1
    15     1     2   am
    16     2     3    2
    17     2     4   am
    18     4     7    1
    19     7     8   ar
    20     8     9   ar
    21     9    10   ar
    22    10    13    1
    23    13    14   ar
    24    14    15   ar
    25    15    16   ar
    26    16    17    1
    27    16    18   ar
    28    18    19   ar
    29    10    11   ar
    30    11    12   ar
    31    31    32   ar
    32    32    33   ar
    33    33    28   ar
    34    26    22   ar
    35    12     7   ar
    36    19    13   ar
    37     1     5    1
    38     4     6    1
    39    17    20    1
    40    17    21    1
@<TRIPOS>MOLECULE
*****
 37 40 0 0 0
SMALL
GASTEIGER

@<TRIPOS>ATOM
      1 N           3.0504    0.8722   20.5738 N.am    1  UNL1       -0.2533
      2 C           1.6305    1.2672   20.2954 C.2     1  UNL1        0.3092
      3 O           0.5694    0.2141   20.1717 O.2     1  UNL1       -0.2521
      4 N           1.2713    2.7154   20.1406 N.am    1  UNL1       -0.2680
      5 H           3.7467    1.5634   20.6550 H       1  UNL1        0.1578
      6 H           1.9676    3.4066   20.2218 H       1  UNL1        0.1564
      7 C          -0.1487    3.1103   19.8622 C.ar    1  UNL1        0.0516
      8 C          -0.5291    3.6385   18.5108 C.ar    1  UNL1        0.0147
      9 C          -1.9491    4.0335   18.2324 C.ar    1  UNL1        0.0013
     10 C          -2.9888    3.9003   19.3053 C.ar    1  UNL1        0.0016
     11 C          -2.6084    3.3721   20.6567 C.ar    1  UNL1        0.0013
     12 C          -1.1884    2.9771   20.9351 C.ar    1  UNL1        0.0147
     13 C          -4.4088    4.2953   19.0269 C.ar    1  UNL1        0.0193
     14 C          -5.5035    3.2742   19.1212 C.ar    1  UNL1        0.0044
     15 C          -6.9236    3.6691   18.8428 C.ar    1  UNL1        0.0339
     16 C          -7.2488    5.0852   18.4700 C.ar    1  UNL1        0.1254
     17 N          -8.6688    5.4802   18.1916 N.pl3   1  UNL1       -0.3426
     18 N          -6.1541    6.1063   18.3757 N.ar    1  UNL1       -0.2296
     19 C          -4.7341    5.7113   18.6541 C.ar    1  UNL1        0.1002
     20 H          -9.3874    4.8100   18.2535 H       1  UNL1        0.1437
     21 H          -8.8823    6.4096   17.9470 H       1  UNL1        0.1437
     22 N           3.4946   -1.3298   22.0225 N.ar    1  UNL1       -0.2162
     23 N           3.8843   -2.7442   21.7101 N.ar    1  UNL1       -0.1683
     24 C           4.0400   -2.8645   20.2230 C.ar    1  UNL1        0.0810
     25 C           3.7466   -1.5244   19.6164 C.ar    1  UNL1        0.0509
     26 C           3.4095   -0.5759   20.7285 C.ar    1  UNL1        0.1380
     27 C           2.4582    0.9176   27.4883 C.3     1  UNL1        0.0310
     28 C           2.7173    0.3557   26.1219 C.ar    1  UNL1       -0.0218
     29 C           1.9100    0.8306   24.9502 C.ar    1  UNL1       -0.0027
     30 C           2.1691    0.2687   23.5838 C.ar    1  UNL1        0.0189
     31 C           3.2355   -0.7680   23.3889 C.ar    1  UNL1        0.0842
     32 C           4.0428   -1.2428   24.5606 C.ar    1  UNL1        0.0189
     33 C           3.7837   -0.6810   25.9270 C.ar    1  UNL1       -0.0027
     34 C           4.4221   -4.1067   19.4742 C.3     1  UNL1        0.0372
     35 C           2.9955   -4.2886   19.0479 C.3     1  UNL1        0.0060
     36 C           5.8487   -3.9249   19.9005 C.3     1  UNL1        0.0060
     37 C           4.8042   -5.3490   18.7253 C.3     1  UNL1        0.0060
@<TRIPOS>BOND
     1    27    28    1
     2    28    29   ar
     3    29    30   ar
     4    30    31   ar
     5    31    22    1
     6    22    23   ar
     7    23    24   ar
     8    24    34    1
     9    34    35    1
    10    34    36    1
    11    34    37    1
    12    24    25   ar
    13    25    26   ar
    14    26     1    1
    15     1     2   am
    16     2     3    2
    17     2     4   am
    18     4     7    1
    19     7     8   ar
    20     8     9   ar
    21     9    10   ar
    22    10    13    1
    23    13    14   ar
    24    14    15   ar
    25    15    16   ar
    26    16    17    1
    27    16    18   ar
    28    18    19   ar
    29    10    11   ar
    30    11    12   ar
    31    31    32   ar
    32    32    33   ar
    33    33    28   ar
    34    26    22   ar
    35    12     7   ar
    36    19    13   ar
    37     1     5    1
    38     4     6    1
    39    17    20    1
    40    17    21    1
@<TRIPOS>MOLECULE
*****
 37 40 0 0 0
SMALL
GASTEIGER

@<TRIPOS>ATOM
      1 N           0.3571    3.7480   23.0500 N.am    1  UNL1       -0.2533
      2 C           0.7786    2.8927   24.2078 C.2     1  UNL1        0.3092
      3 O          -0.1224    1.7986   24.6992 O.2     1  UNL1       -0.2521
      4 N           2.1010    3.1312   24.8744 N.am    1  UNL1       -0.2680
      5 H           0.9485    4.4660   22.7275 H       1  UNL1        0.1578
      6 H           2.6923    3.8493   24.5519 H       1  UNL1        0.1564
      7 C           2.5224    2.2758   26.0323 C.ar    1  UNL1        0.0516
      8 C           3.1880    0.9544   25.7854 C.ar    1  UNL1        0.0147
      9 C           3.6094    0.0990   26.9433 C.ar    1  UNL1        0.0013
     10 C           3.3653    0.5649   28.3480 C.ar    1  UNL1        0.0016
     11 C           2.6996    1.8863   28.5948 C.ar    1  UNL1        0.0013
     12 C           2.2782    2.7417   27.4370 C.ar    1  UNL1        0.0147
     13 C           3.7867   -0.2905   29.5059 C.ar    1  UNL1        0.0193
     14 C           5.1523   -0.9108   29.5222 C.ar    1  UNL1        0.0044
     15 C           5.5737   -1.7662   30.6800 C.ar    1  UNL1        0.0339
     16 C           4.6295   -2.0014   31.8216 C.ar    1  UNL1        0.1254
     17 N           5.0509   -2.8568   32.9794 N.pl3   1  UNL1       -0.3426
     18 N           3.2639   -1.3811   31.8053 N.ar    1  UNL1       -0.2296
     19 C           2.8424   -0.5256   30.6474 C.ar    1  UNL1        0.1002
     20 H           5.9472   -3.2639   32.9901 H       1  UNL1        0.1437
     21 H           4.4312   -3.0111   33.7287 H       1  UNL1        0.1437
     22 N          -1.1898    2.7219   21.1267 N.ar    1  UNL1       -0.2162
     23 N          -2.6586    2.7423   20.8232 N.ar    1  UNL1       -0.1683
     24 C          -3.3419    3.5424   21.8922 C.ar    1  UNL1        0.0810
     25 C          -2.2953    4.0166   22.8565 C.ar    1  UNL1        0.0509
     26 C          -0.9653    3.5094   22.3834 C.ar    1  UNL1        0.1380
     27 C           3.0439   -0.0272   17.8835 C.3     1  UNL1        0.0310
     28 C           1.9855    0.6601   18.6943 C.ar    1  UNL1       -0.0218
     29 C           1.1859   -0.1176   19.6972 C.ar    1  UNL1       -0.0027
     30 C           0.1274    0.5697   20.5080 C.ar    1  UNL1        0.0189
     31 C          -0.1314    2.0346   20.3159 C.ar    1  UNL1        0.0842
     32 C           0.6682    2.8123   19.3130 C.ar    1  UNL1        0.0189
     33 C           1.7266    2.1250   18.5022 C.ar    1  UNL1       -0.0027
     34 C          -4.8133    3.8197   21.9814 C.3     1  UNL1        0.0372
     35 C          -4.7608    4.5238   20.6579 C.3     1  UNL1        0.0060
     36 C          -4.8659    3.1156   23.3048 C.3     1  UNL1        0.0060
     37 C          -6.2848    4.0970   22.0705 C.3     1  UNL1        0.0060
@<TRIPOS>BOND
     1    27    28    1
     2    28    29   ar
     3    29    30   ar
     4    30    31   ar
     5    31    22    1
     6    22    23   ar
     7    23    24   ar
     8    24    34    1
     9    34    35    1
    10    34    36    1
    11    34    37    1
    12    24    25   ar
    13    25    26   ar
    14    26     1    1
    15     1     2   am
    16     2     3    2
    17     2     4   am
    18     4     7    1
    19     7     8   ar
    20     8     9   ar
    21     9    10   ar
    22    10    13    1
    23    13    14   ar
    24    14    15   ar
    25    15    16   ar
    26    16    17    1
    27    16    18   ar
    28    18    19   ar
    29    10    11   ar
    30    11    12   ar
    31    31    32   ar
    32    32    33   ar
    33    33    28   ar
    34    26    22   ar
    35    12     7   ar
    36    19    13   ar
    37     1     5    1
    38     4     6    1
    39    17    20    1
    40    17    21    1
@<TRIPOS>MOLECULE
*****
 37 40 0 0 0
SMALL
GASTEIGER

@<TRIPOS>ATOM
      1 N           3.5871    2.1629   31.6996 N.am    1  UNL1       -0.2533
      2 C           2.3426    2.3789   30.8908 C.2     1  UNL1        0.3092
      3 O           1.0053    2.4221   31.5691 O.2     1  UNL1       -0.2521
      4 N           2.4350    2.5516   29.4037 N.am    1  UNL1       -0.2680
      5 H           4.4648    2.1345   31.2544 H       1  UNL1        0.1578
      6 H           3.3127    2.5233   28.9584 H       1  UNL1        0.1564
      7 C           1.1904    2.7676   28.5949 C.ar    1  UNL1        0.0516
      8 C           0.7191    4.1610   28.3012 C.ar    1  UNL1        0.0147
      9 C          -0.5255    4.3770   27.4924 C.ar    1  UNL1        0.0013
     10 C          -1.2990    3.1996   26.9772 C.ar    1  UNL1        0.0016
     11 C          -0.8277    1.8062   27.2709 C.ar    1  UNL1        0.0013
     12 C           0.4169    1.5902   28.0797 C.ar    1  UNL1        0.0147
     13 C          -2.5436    3.4156   26.1684 C.ar    1  UNL1        0.0193
     14 C          -2.5089    3.2452   24.6785 C.ar    1  UNL1        0.0044
     15 C          -3.7536    3.4612   23.8697 C.ar    1  UNL1        0.0339
     16 C          -5.0330    3.8475   24.5508 C.ar    1  UNL1        0.1254
     17 N          -6.2776    4.0635   23.7420 N.pl3   1  UNL1       -0.3426
     18 N          -5.0677    4.0178   26.0407 N.ar    1  UNL1       -0.2296
     19 C          -3.8230    3.8019   26.8495 C.ar    1  UNL1        0.1002
     20 H          -6.2548    3.9517   22.7642 H       1  UNL1        0.1437
     21 H          -7.1173    4.3170   24.1891 H       1  UNL1        0.1437
     22 N           4.0904    0.8669   33.9826 N.ar    1  UNL1       -0.2162
     23 N           3.7541    1.0929   35.4269 N.ar    1  UNL1       -0.1683
     24 C           2.9505    2.3558   35.5236 C.ar    1  UNL1        0.0810
     25 C           2.7902    2.9104   34.1391 C.ar    1  UNL1        0.0509
     26 C           3.4947    1.9902   33.1868 C.ar    1  UNL1        0.1380
     27 C           7.2616   -3.7240   31.7765 C.3     1  UNL1        0.0310
     28 C           6.4688   -2.5763   32.3281 C.ar    1  UNL1       -0.0218
     29 C           7.0419   -1.1902   32.3074 C.ar    1  UNL1       -0.0027
     30 C           6.2491   -0.0425   32.8589 C.ar    1  UNL1        0.0189
     31 C           4.8832   -0.2808   33.4311 C.ar    1  UNL1        0.0842
     32 C           4.3101   -1.6668   33.4518 C.ar    1  UNL1        0.0189
     33 C           5.1029   -2.8145   32.9003 C.ar    1  UNL1       -0.0027
     34 C           2.4034    2.9584   36.7836 C.3     1  UNL1        0.0372
     35 C           2.8358    1.7447   37.5518 C.3     1  UNL1        0.0060
     36 C           1.9710    4.1720   36.0154 C.3     1  UNL1        0.0060
     37 C           1.8563    3.5609   38.0436 C.3     1  UNL1        0.0060
@<TRIPOS>BOND
     1    27    28    1
     2    28    29   ar
     3    29    30   ar
     4    30    31   ar
     5    31    22    1
     6    22    23   ar
     7    23    24   ar
     8    24    34    1
     9    34    35    1
    10    34    36    1
    11    34    37    1
    12    24    25   ar
    13    25    26   ar
    14    26     1    1
    15     1     2   am
    16     2     3    2
    17     2     4   am
    18     4     7    1
    19     7     8   ar
    20     8     9   ar
    21     9    10   ar
    22    10    13    1
    23    13    14   ar
    24    14    15   ar
    25    15    16   ar
    26    16    17    1
    27    16    18   ar
    28    18    19   ar
    29    10    11   ar
    30    11    12   ar
    31    31    32   ar
    32    32    33   ar
    33    33    28   ar
    34    26    22   ar
    35    12     7   ar
    36    19    13   ar
    37     1     5    1
    38     4     6    1
    39    17    20    1
    40    17    21    1
@<TRIPOS>MOLECULE
*****
 37 40 0 0 0
SMALL
GASTEIGER

@<TRIPOS>ATOM
      1 N           6.0533   -1.0978   24.9707 N.am    1  UNL1       -0.2533
      2 C           4.6564   -0.5711   25.1159 C.2     1  UNL1        0.3092
      3 O           3.5793   -1.4480   25.6824 O.2     1  UNL1       -0.2521
      4 N           4.3365    0.8325   24.6946 N.am    1  UNL1       -0.2680
      5 H           6.7602   -0.5223   24.5989 H       1  UNL1        0.1578
      6 H           5.0434    1.4081   24.3228 H       1  UNL1        0.1564
      7 C           2.9396    1.3592   24.8399 C.ar    1  UNL1        0.0516
      8 C           2.5870    2.2397   26.0020 C.ar    1  UNL1        0.0147
      9 C           1.1900    2.7664   26.1473 C.ar    1  UNL1        0.0013
     10 C           0.1456    2.4127   25.1304 C.ar    1  UNL1        0.0016
     11 C           0.4982    1.5322   23.9683 C.ar    1  UNL1        0.0013
     12 C           1.8951    1.0056   23.8230 C.ar    1  UNL1        0.0147
     13 C          -1.2513    2.9394   25.2757 C.ar    1  UNL1        0.0193
     14 C          -2.0467    3.3019   24.0567 C.ar    1  UNL1        0.0044
     15 C          -3.4437    3.8286   24.2019 C.ar    1  UNL1        0.0339
     16 C          -4.0453    3.9927   25.5662 C.ar    1  UNL1        0.1254
     17 N          -5.4422    4.5194   25.7114 N.pl3   1  UNL1       -0.3426
     18 N          -3.2499    3.6302   26.7852 N.ar    1  UNL1       -0.2296
     19 C          -1.8529    3.1035   26.6399 C.ar    1  UNL1        0.1002
     20 H          -5.9642    4.7574   24.9113 H       1  UNL1        0.1437
     21 H          -5.8370    4.6272   26.6068 H       1  UNL1        0.1437
     22 N           6.3672   -3.7112   24.5052 N.ar    1  UNL1       -0.2162
     23 N           6.7456   -4.8991   25.3392 N.ar    1  UNL1       -0.1683
     24 C           6.9855   -4.4236   26.7414 C.ar    1  UNL1        0.0810
     25 C           6.7554   -2.9417   26.7741 C.ar    1  UNL1        0.0509
     26 C           6.3732   -2.5014   25.3920 C.ar    1  UNL1        0.1380
     27 C           5.0589   -3.7854   18.6500 C.3     1  UNL1        0.0310
     28 C           5.3859   -3.7669   20.1138 C.ar    1  UNL1       -0.0218
     29 C           6.8023   -3.9599   20.5683 C.ar    1  UNL1       -0.0027
     30 C           7.1294   -3.9413   22.0321 C.ar    1  UNL1        0.0189
     31 C           6.0401   -3.7298   23.0414 C.ar    1  UNL1        0.0842
     32 C           4.6237   -3.5368   22.5868 C.ar    1  UNL1        0.0189
     33 C           4.2967   -3.5553   21.1231 C.ar    1  UNL1       -0.0027
     34 C           7.3854   -5.2796   27.9065 C.3     1  UNL1        0.0372
     35 C           7.4780   -4.0582   28.7722 C.3     1  UNL1        0.0060
     36 C           7.2928   -6.5011   27.0407 C.3     1  UNL1        0.0060
     37 C           7.7853   -6.1357   29.0715 C.3     1  UNL1        0.0060
@<TRIPOS>BOND
     1    27    28    1
     2    28    29   ar
     3    29    30   ar
     4    30    31   ar
     5    31    22    1
     6    22    23   ar
     7    23    24   ar
     8    24    34    1
     9    34    35    1
    10    34    36    1
    11    34    37    1
    12    24    25   ar
    13    25    26   ar
    14    26     1    1
    15     1     2   am
    16     2     3    2
    17     2     4   am
    18     4     7    1
    19     7     8   ar
    20     8     9   ar
    21     9    10   ar
    22    10    13    1
    23    13    14   ar
    24    14    15   ar
    25    15    16   ar
    26    16    17    1
    27    16    18   ar
    28    18    19   ar
    29    10    11   ar
    30    11    12   ar
    31    31    32   ar
    32    32    33   ar
    33    33    28   ar
    34    26    22   ar
    35    12     7   ar
    36    19    13   ar
    37     1     5    1
    38     4     6    1
    39    17    20    1
    40    17    21    1
@<TRIPOS>MOLECULE
*****
 37 40 0 0 0
SMALL
GASTEIGER

@<TRIPOS>ATOM
      1 N           2.2770    1.6828   22.4105 N.am    1  UNL1       -0.2533
      2 C           0.8368    2.0663   22.5794 C.2     1  UNL1        0.3092
      3 O          -0.2209    1.3889   21.7592 O.2     1  UNL1       -0.2521
      4 N           0.4540    3.1272   23.5683 N.am    1  UNL1       -0.2680
      5 H           2.9711    2.1275   22.9488 H       1  UNL1        0.1578
      6 H           1.1481    3.5718   24.1066 H       1  UNL1        0.1564
      7 C          -0.9863    3.5106   23.7371 C.ar    1  UNL1        0.0516
      8 C          -1.7253    3.1204   24.9828 C.ar    1  UNL1        0.0147
      9 C          -3.1656    3.5038   25.1516 C.ar    1  UNL1        0.0013
     10 C          -3.8670    4.2775   24.0748 C.ar    1  UNL1        0.0016
     11 C          -3.1280    4.6677   22.8291 C.ar    1  UNL1        0.0013
     12 C          -1.6877    4.2842   22.6603 C.ar    1  UNL1        0.0147
     13 C          -5.3073    4.6609   24.2436 C.ar    1  UNL1        0.0193
     14 C          -6.3330    4.1733   23.2637 C.ar    1  UNL1        0.0044
     15 C          -7.7733    4.5568   23.4325 C.ar    1  UNL1        0.0339
     16 C          -8.1878    5.4278   24.5811 C.ar    1  UNL1        0.1254
     17 N          -9.6281    5.8112   24.7499 N.pl3   1  UNL1       -0.3426
     18 N          -7.1621    5.9153   25.5610 N.ar    1  UNL1       -0.2296
     19 C          -5.7218    5.5319   25.3922 C.ar    1  UNL1        0.1002
     20 H         -10.3014    5.4912   24.1068 H       1  UNL1        0.1437
     21 H          -9.9003    6.3829   25.5038 H       1  UNL1        0.1437
     22 N           2.5865    0.7411   19.9281 N.ar    1  UNL1       -0.2162
     23 N           3.0645   -0.5515   19.3360 N.ar    1  UNL1       -0.1683
     24 C           3.4332   -1.4696   20.4635 C.ar    1  UNL1        0.0810
     25 C           3.1831   -0.7443   21.7525 C.ar    1  UNL1        0.0509
     26 C           2.6598    0.6220   21.4216 C.ar    1  UNL1        0.1380
     27 C           0.7105    5.5447   16.8612 C.3     1  UNL1        0.0310
     28 C           1.1795    4.3438   17.6279 C.ar    1  UNL1       -0.0218
     29 C           0.2391    3.2038   17.8848 C.ar    1  UNL1       -0.0027
     30 C           0.7081    2.0029   18.6515 C.ar    1  UNL1        0.0189
     31 C           2.1175    1.9420   19.1614 C.ar    1  UNL1        0.0842
     32 C           3.0578    3.0820   18.9045 C.ar    1  UNL1        0.0189
     33 C           2.5889    4.2829   18.1378 C.ar    1  UNL1       -0.0027
     34 C           3.9596   -2.8674   20.3262 C.3     1  UNL1        0.0372
     35 C           4.3153   -2.8766   21.7834 C.3     1  UNL1        0.0060
     36 C           3.6039   -2.8582   18.8690 C.3     1  UNL1        0.0060
     37 C           4.4861   -4.2653   20.1888 C.3     1  UNL1        0.0060
@<TRIPOS>BOND
     1    27    28    1
     2    28    29   ar
     3    29    30   ar
     4    30    31   ar
     5    31    22    1
     6    22    23   ar
     7    23    24   ar
     8    24    34    1
     9    34    35    1
    10    34    36    1
    11    34    37    1
    12    24    25   ar
    13    25    26   ar
    14    26     1    1
    15     1     2   am
    16     2     3    2
    17     2     4   am
    18     4     7    1
    19     7     8   ar
    20     8     9   ar
    21     9    10   ar
    22    10    13    1
    23    13    14   ar
    24    14    15   ar
    25    15    16   ar
    26    16    17    1
    27    16    18   ar
    28    18    19   ar
    29    10    11   ar
    30    11    12   ar
    31    31    32   ar
    32    32    33   ar
    33    33    28   ar
    34    26    22   ar
    35    12     7   ar
    36    19    13   ar
    37     1     5    1
    38     4     6    1
    39    17    20    1
    40    17    21    1
@<TRIPOS>MOLECULE
*****
 37 40 0 0 0
SMALL
GASTEIGER

@<TRIPOS>ATOM
      1 N           2.5635    0.9793   19.9740 N.am    1  UNL1       -0.2533
      2 C           1.2292    1.3287   20.5632 C.2     1  UNL1        0.3092
      3 O           0.5140    0.3421   21.4381 O.2     1  UNL1       -0.2521
      4 N           0.6098    2.6647   20.2778 N.am    1  UNL1       -0.2680
      5 H           3.0328    1.6268   19.3998 H       1  UNL1        0.1578
      6 H           1.0791    3.3123   19.7036 H       1  UNL1        0.1564
      7 C          -0.7246    3.0141   20.8671 C.ar    1  UNL1        0.0516
      8 C          -1.9437    3.0508   19.9940 C.ar    1  UNL1        0.0147
      9 C          -3.2781    3.4002   20.5833 C.ar    1  UNL1        0.0013
     10 C          -3.3934    3.7129   22.0458 C.ar    1  UNL1        0.0016
     11 C          -2.1743    3.6762   22.9189 C.ar    1  UNL1        0.0013
     12 C          -0.8399    3.3268   22.3296 C.ar    1  UNL1        0.0147
     13 C          -4.7278    4.0623   22.6351 C.ar    1  UNL1        0.0193
     14 C          -5.8883    4.3678   21.7352 C.ar    1  UNL1        0.0044
     15 C          -7.2227    4.7172   22.3246 C.ar    1  UNL1        0.0339
     16 C          -7.3966    4.7610   23.8138 C.ar    1  UNL1        0.1254
     17 N          -8.7309    5.1104   24.4032 N.pl3   1  UNL1       -0.3426
     18 N          -6.2360    4.4555   24.7137 N.ar    1  UNL1       -0.2296
     19 C          -4.9016    4.1061   24.1244 C.ar    1  UNL1        0.1002
     20 H          -9.4926    5.3109   23.8125 H       1  UNL1        0.1437
     21 H          -8.8450    5.1392   25.3806 H       1  UNL1        0.1437
     22 N           3.7209   -0.8145   21.5826 N.ar    1  UNL1       -0.2162
     23 N           4.2434   -2.2102   21.4127 N.ar    1  UNL1       -0.1683
     24 C           4.0284   -2.6151   19.9845 C.ar    1  UNL1        0.0810
     25 C           3.3729   -1.4695   19.2717 C.ar    1  UNL1        0.0509
     26 C           3.1829   -0.3567   20.2594 C.ar    1  UNL1        0.1380
     27 C           3.7734    2.3769   26.6632 C.3     1  UNL1        0.0310
     28 C           3.7603    1.5790   25.3931 C.ar    1  UNL1       -0.0218
     29 C           2.8637    0.3830   25.2679 C.ar    1  UNL1       -0.0027
     30 C           2.8506   -0.4148   23.9977 C.ar    1  UNL1        0.0189
     31 C           3.7340   -0.0167   22.8528 C.ar    1  UNL1        0.0842
     32 C           4.6306    1.1793   22.9780 C.ar    1  UNL1        0.0189
     33 C           4.6437    1.9772   24.2481 C.ar    1  UNL1       -0.0027
     34 C           4.4031   -3.9339   19.3759 C.3     1  UNL1        0.0372
     35 C           2.9606   -4.1984   19.0610 C.3     1  UNL1        0.0060
     36 C           5.8456   -3.6694   19.6908 C.3     1  UNL1        0.0060
     37 C           4.7777   -5.2527   18.7673 C.3     1  UNL1        0.0060
@<TRIPOS>BOND
     1    27    28    1
     2    28    29   ar
     3    29    30   ar
     4    30    31   ar
     5    31    22    1
     6    22    23   ar
     7    23    24   ar
     8    24    34    1
     9    34    35    1
    10    34    36    1
    11    34    37    1
    12    24    25   ar
    13    25    26   ar
    14    26     1    1
    15     1     2   am
    16     2     3    2
    17     2     4   am
    18     4     7    1
    19     7     8   ar
    20     8     9   ar
    21     9    10   ar
    22    10    13    1
    23    13    14   ar
    24    14    15   ar
    25    15    16   ar
    26    16    17    1
    27    16    18   ar
    28    18    19   ar
    29    10    11   ar
    30    11    12   ar
    31    31    32   ar
    32    32    33   ar
    33    33    28   ar
    34    26    22   ar
    35    12     7   ar
    36    19    13   ar
    37     1     5    1
    38     4     6    1
    39    17    20    1
    40    17    21    1
@<TRIPOS>MOLECULE
*****
 37 40 0 0 0
SMALL
GASTEIGER

@<TRIPOS>ATOM
      1 N           1.9782    1.3390   20.0614 N.am    1  UNL1       -0.2533
      2 C           2.0332    1.4761   21.5540 C.2     1  UNL1        0.3092
      3 O           3.2265    2.1099   22.2056 O.2     1  UNL1       -0.2521
      4 N           0.8950    0.9794   22.3953 N.am    1  UNL1       -0.2680
      5 H           1.1951    0.9229   19.6338 H       1  UNL1        0.1578
      6 H           0.1118    0.5634   21.9678 H       1  UNL1        0.1564
      7 C           0.9500    1.1165   23.8880 C.ar    1  UNL1        0.0516
      8 C           2.0829    0.5030   24.6563 C.ar    1  UNL1        0.0147
      9 C           2.1379    0.6402   26.1490 C.ar    1  UNL1        0.0013
     10 C           1.0601    1.3908   26.8735 C.ar    1  UNL1        0.0016
     11 C          -0.0727    2.0044   26.1052 C.ar    1  UNL1        0.0013
     12 C          -0.1277    1.8672   24.6125 C.ar    1  UNL1        0.0147
     13 C           1.1152    1.5280   28.3662 C.ar    1  UNL1        0.0193
     14 C           0.6927    2.8115   29.0175 C.ar    1  UNL1        0.0044
     15 C           0.7478    2.9486   30.5102 C.ar    1  UNL1        0.0339
     16 C           1.2253    1.8023   31.3516 C.ar    1  UNL1        0.1254
     17 N           1.2803    1.9395   32.8443 N.pl3   1  UNL1       -0.3426
     18 N           1.6477    0.5188   30.7002 N.ar    1  UNL1       -0.2296
     19 C           1.5927    0.3817   29.2075 C.ar    1  UNL1        0.1002
     20 H           1.0030    2.7819   33.2717 H       1  UNL1        0.1437
     21 H           1.5937    1.1871   33.3965 H       1  UNL1        0.1437
     22 N           4.1755    0.9877   18.5803 N.ar    1  UNL1       -0.2162
     23 N           5.1090    1.8955   17.8357 N.ar    1  UNL1       -0.1683
     24 C           4.6269    3.3045   18.0154 C.ar    1  UNL1        0.0810
     25 C           3.3955    3.2675   18.8710 C.ar    1  UNL1        0.0509
     26 C           3.1165    1.8356   19.2201 C.ar    1  UNL1        0.1380
     27 C           4.6024   -4.9865   18.9365 C.3     1  UNL1        0.0310
     28 C           4.4957   -3.4930   18.8474 C.ar    1  UNL1       -0.0218
     29 C           3.3288   -2.7860   19.4707 C.ar    1  UNL1       -0.0027
     30 C           3.2221   -1.2924   19.3816 C.ar    1  UNL1        0.0189
     31 C           4.2822   -0.5059   18.6693 C.ar    1  UNL1        0.0842
     32 C           5.4491   -1.2129   18.0460 C.ar    1  UNL1        0.0189
     33 C           5.5558   -2.7064   18.1351 C.ar    1  UNL1       -0.0027
     34 C           5.2644    4.5346   17.4404 C.3     1  UNL1        0.0372
     35 C           6.6166    3.9019   17.5863 C.3     1  UNL1        0.0060
     36 C           3.9122    5.1672   17.2945 C.3     1  UNL1        0.0060
     37 C           5.9019    5.7646   16.8654 C.3     1  UNL1        0.0060
@<TRIPOS>BOND
     1    27    28    1
     2    28    29   ar
     3    29    30   ar
     4    30    31   ar
     5    31    22    1
     6    22    23   ar
     7    23    24   ar
     8    24    34    1
     9    34    35    1
    10    34    36    1
    11    34    37    1
    12    24    25   ar
    13    25    26   ar
    14    26     1    1
    15     1     2   am
    16     2     3    2
    17     2     4   am
    18     4     7    1
    19     7     8   ar
    20     8     9   ar
    21     9    10   ar
    22    10    13    1
    23    13    14   ar
    24    14    15   ar
    25    15    16   ar
    26    16    17    1
    27    16    18   ar
    28    18    19   ar
    29    10    11   ar
    30    11    12   ar
    31    31    32   ar
    32    32    33   ar
    33    33    28   ar
    34    26    22   ar
    35    12     7   ar
    36    19    13   ar
    37     1     5    1
    38     4     6    1
    39    17    20    1
    40    17    21    1
