@<TRIPOS>MOLECULE
*****
 23 25 0 0 0
SMALL
GASTEIGER

@<TRIPOS>ATOM
      1 C          -9.0830  -19.6097   21.3772 C.ar    1  UNL1        0.1386
      2 C          -8.5738  -19.4147   19.9799 C.ar    1  UNL1        0.0369
      3 C          -7.1018  -19.2682   19.7317 C.ar    1  UNL1        0.0046
      4 C          -6.1389  -19.3167   20.8809 C.ar    1  UNL1        0.0191
      5 C          -6.6481  -19.5117   22.2783 C.ar    1  UNL1        0.0046
      6 C          -8.1202  -19.6582   22.5264 C.ar    1  UNL1        0.0369
      7 C          -4.6668  -19.1701   20.6327 C.2     1  UNL1        0.0968
      8 C          -3.6817  -19.6761   21.6443 C.2     1  UNL1        0.0043
      9 C          -2.2096  -19.5296   21.3960 C.3     1  UNL1        0.1163
     10 C          -1.7227  -18.8770   20.1362 C.2     1  UNL1        0.2671
     11 O          -0.2507  -18.7305   19.8879 O.2     1  UNL1       -0.2711
     12 N          -2.7080  -18.3711   19.1246 N.am    1  UNL1       -0.0790
     13 N          -4.1800  -18.5176   19.3728 N.2     1  UNL1       -0.1564
     14 O         -10.5551  -19.7562   21.6255 O.3     1  UNL1       -0.4754
     15 C         -11.1005  -19.6018   23.0142 C.3     1  UNL1        0.2068
     16 C         -12.1784  -18.5954   23.2890 C.3     1  UNL1        0.0646
     17 C         -11.8259  -17.1482   23.4653 C.3     1  UNL1        0.0759
     18 C         -10.6857  -16.1755   20.5665 C.3     1  UNL1        0.0173
     19 C          -9.9070  -16.2287   21.8475 C.3     1  UNL1        0.0576
     20 C          -8.4676  -15.8442   22.0209 C.3     1  UNL1        0.0174
     21 C          -8.1020  -16.0537   23.4606 C.3     1  UNL1        0.0187
     22 C          -9.3156  -16.5677   24.1769 C.3     1  UNL1        0.0721
     23 N         -10.4312  -16.6758   23.1799 N.3     1  UNL1       -0.2738
@<TRIPOS>BOND
     1    19    18    1
     2    19    20    1
     3    20    21    1
     4    21    22    1
     5    22    23    1
     6    23    17    1
     7    17    16    1
     8    16    15    1
     9    15    14    1
    10    14     1    1
    11     1     2   ar
    12     2     3   ar
    13     3     4   ar
    14     4     7    1
    15     7     8    2
    16     8     9    1
    17     9    10    1
    18    10    11    2
    19    10    12    1
    20    12    13    2
    21     4     5   ar
    22     5     6   ar
    23    23    19    1
    24     6     1   ar
    25    13     7    1
@<TRIPOS>MOLECULE
*****
 23 25 0 0 0
SMALL
GASTEIGER

@<TRIPOS>ATOM
      1 C          -8.6497  -19.6598   21.1280 C.ar    1  UNL1        0.1386
      2 C          -7.7274  -19.6159   22.3100 C.ar    1  UNL1        0.0369
      3 C          -6.2512  -19.4488   22.1036 C.ar    1  UNL1        0.0046
      4 C          -5.6972  -19.3256   20.7151 C.ar    1  UNL1        0.0191
      5 C          -6.6195  -19.3696   19.5330 C.ar    1  UNL1        0.0046
      6 C          -8.0958  -19.5367   19.7394 C.ar    1  UNL1        0.0369
      7 C          -4.2208  -19.1585   20.5087 C.2     1  UNL1        0.0968
      8 C          -3.7093  -18.4547   19.2869 C.2     1  UNL1        0.0043
      9 C          -2.2329  -18.2876   19.0805 C.3     1  UNL1        0.1163
     10 C          -1.2682  -18.8244   20.0960 C.2     1  UNL1        0.2671
     11 O           0.2081  -18.6573   19.8897 O.2     1  UNL1       -0.2711
     12 N          -1.7798  -19.5282   21.3179 N.am    1  UNL1       -0.0790
     13 N          -3.2561  -19.6953   21.5242 N.2     1  UNL1       -0.1564
     14 O         -10.1261  -19.8269   21.3343 O.3     1  UNL1       -0.4754
     15 C         -11.0940  -19.1471   20.4119 C.3     1  UNL1        0.2068
     16 C         -11.0581  -17.6559   20.2536 C.3     1  UNL1        0.0646
     17 C         -11.2907  -16.7698   21.4413 C.3     1  UNL1        0.0759
     18 C         -11.7739  -18.4618   24.1896 C.3     1  UNL1        0.0173
     19 C         -10.5811  -17.6071   23.8786 C.3     1  UNL1        0.0576
     20 C          -9.4010  -17.3800   24.7763 C.3     1  UNL1        0.0174
     21 C          -8.4495  -16.4620   24.0678 C.3     1  UNL1        0.0187
     22 C          -9.0416  -16.1216   22.7323 C.3     1  UNL1        0.0721
     23 N         -10.3590  -16.8293   22.6154 N.3     1  UNL1       -0.2738
@<TRIPOS>BOND
     1    19    18    1
     2    19    20    1
     3    20    21    1
     4    21    22    1
     5    22    23    1
     6    23    17    1
     7    17    16    1
     8    16    15    1
     9    15    14    1
    10    14     1    1
    11     1     2   ar
    12     2     3   ar
    13     3     4   ar
    14     4     7    1
    15     7     8    2
    16     8     9    1
    17     9    10    1
    18    10    11    2
    19    10    12    1
    20    12    13    2
    21     4     5   ar
    22     5     6   ar
    23    23    19    1
    24     6     1   ar
    25    13     7    1
@<TRIPOS>MOLECULE
*****
 23 25 0 0 0
SMALL
GASTEIGER

@<TRIPOS>ATOM
      1 C          -8.7659  -19.6349   21.3340 C.ar    1  UNL1        0.1386
      2 C          -8.2582  -19.3519   19.9512 C.ar    1  UNL1        0.0369
      3 C          -6.7853  -19.2046   19.7086 C.ar    1  UNL1        0.0046
      4 C          -5.8201  -19.3403   20.8487 C.ar    1  UNL1        0.0191
      5 C          -6.3278  -19.6234   22.2315 C.ar    1  UNL1        0.0046
      6 C          -7.8006  -19.7707   22.4741 C.ar    1  UNL1        0.0369
      7 C          -4.3472  -19.1930   20.6060 C.2     1  UNL1        0.0968
      8 C          -3.8546  -18.6038   19.3176 C.2     1  UNL1        0.0043
      9 C          -2.3817  -18.4565   19.0749 C.3     1  UNL1        0.1163
     10 C          -1.4014  -18.8985   20.1207 C.2     1  UNL1        0.2671
     11 O           0.0715  -18.7512   19.8781 O.2     1  UNL1       -0.2711
     12 N          -1.8940  -19.4878   21.4092 N.am    1  UNL1       -0.0790
     13 N          -3.3669  -19.6350   21.6518 N.2     1  UNL1       -0.1564
     14 O         -10.2388  -19.7822   21.5767 O.3     1  UNL1       -0.4754
     15 C         -10.7351  -20.2652   22.9072 C.3     1  UNL1        0.2068
     16 C         -11.0139  -19.2822   24.0055 C.3     1  UNL1        0.0646
     17 C         -11.8560  -18.0714   23.7324 C.3     1  UNL1        0.0759
     18 C          -9.1911  -16.3066   23.0745 C.3     1  UNL1        0.0173
     19 C         -10.3958  -16.4468   22.1919 C.3     1  UNL1        0.0576
     20 C         -10.5870  -15.8004   20.8519 C.3     1  UNL1        0.0174
     21 C         -11.9302  -16.2121   20.3261 C.3     1  UNL1        0.0187
     22 C         -12.5691  -17.1129   21.3412 C.3     1  UNL1        0.0721
     23 N         -11.6207  -17.2580   22.4943 N.3     1  UNL1       -0.2738
@<TRIPOS>BOND
     1    19    18    1
     2    19    20    1
     3    20    21    1
     4    21    22    1
     5    22    23    1
     6    23    17    1
     7    17    16    1
     8    16    15    1
     9    15    14    1
    10    14     1    1
    11     1     2   ar
    12     2     3   ar
    13     3     4   ar
    14     4     7    1
    15     7     8    2
    16     8     9    1
    17     9    10    1
    18    10    11    2
    19    10    12    1
    20    12    13    2
    21     4     5   ar
    22     5     6   ar
    23    23    19    1
    24     6     1   ar
    25    13     7    1
@<TRIPOS>MOLECULE
*****
 23 25 0 0 0
SMALL
GASTEIGER

@<TRIPOS>ATOM
      1 C          -8.9134  -19.2904   20.6492 C.ar    1  UNL1        0.1386
      2 C          -8.0923  -18.8854   21.8374 C.ar    1  UNL1        0.0369
      3 C          -6.5997  -18.7930   21.7213 C.ar    1  UNL1        0.0046
      4 C          -5.9281  -19.1057   20.4170 C.ar    1  UNL1        0.0191
      5 C          -6.7491  -19.5107   19.2288 C.ar    1  UNL1        0.0046
      6 C          -8.2418  -19.6031   19.3449 C.ar    1  UNL1        0.0369
      7 C          -4.4354  -19.0134   20.3009 C.2     1  UNL1        0.0968
      8 C          -3.5607  -19.7648   21.2601 C.2     1  UNL1        0.0043
      9 C          -2.0680  -19.6725   21.1440 C.3     1  UNL1        0.1163
     10 C          -1.4501  -18.8287   20.0688 C.2     1  UNL1        0.2671
     11 O           0.0425  -18.7363   19.9527 O.2     1  UNL1       -0.2711
     12 N          -2.3250  -18.0772   19.1095 N.am    1  UNL1       -0.0790
     13 N          -3.8176  -18.1696   19.2256 N.2     1  UNL1       -0.1564
     14 O         -10.4061  -19.3827   20.7653 O.3     1  UNL1       -0.4754
     15 C         -11.2707  -18.2916   20.2069 C.3     1  UNL1        0.2068
     16 C         -11.1225  -16.8860   20.7095 C.3     1  UNL1        0.0646
     17 C         -11.0472  -16.6207   22.1839 C.3     1  UNL1        0.0759
     18 C         -10.1244  -18.6283   24.5854 C.3     1  UNL1        0.0173
     19 C         -11.5369  -18.2715   24.2284 C.3     1  UNL1        0.0576
     20 C         -12.7733  -18.7749   24.9125 C.3     1  UNL1        0.0174
     21 C         -13.9616  -18.1632   24.2315 C.3     1  UNL1        0.0187
     22 C         -13.4596  -17.2818   23.1265 C.3     1  UNL1        0.0721
     23 N         -11.9611  -17.3487   23.1245 N.3     1  UNL1       -0.2738
@<TRIPOS>BOND
     1    19    18    1
     2    19    20    1
     3    20    21    1
     4    21    22    1
     5    22    23    1
     6    23    17    1
     7    17    16    1
     8    16    15    1
     9    15    14    1
    10    14     1    1
    11     1     2   ar
    12     2     3   ar
    13     3     4   ar
    14     4     7    1
    15     7     8    2
    16     8     9    1
    17     9    10    1
    18    10    11    2
    19    10    12    1
    20    12    13    2
    21     4     5   ar
    22     5     6   ar
    23    23    19    1
    24     6     1   ar
    25    13     7    1
@<TRIPOS>MOLECULE
*****
 23 25 0 0 0
SMALL
GASTEIGER

@<TRIPOS>ATOM
      1 C         -10.2916  -19.4314   21.2552 C.ar    1  UNL1        0.1386
      2 C          -9.4790  -19.6651   22.4942 C.ar    1  UNL1        0.0369
      3 C          -7.9809  -19.6483   22.4227 C.ar    1  UNL1        0.0046
      4 C          -7.2953  -19.3978   21.1122 C.ar    1  UNL1        0.0191
      5 C          -8.1079  -19.1641   19.8733 C.ar    1  UNL1        0.0046
      6 C          -9.6061  -19.1809   19.9448 C.ar    1  UNL1        0.0369
      7 C          -5.7971  -19.3810   21.0408 C.2     1  UNL1        0.0968
      8 C          -5.0696  -20.4602   20.2952 C.2     1  UNL1        0.0043
      9 C          -3.5713  -20.4434   20.2237 C.3     1  UNL1        0.1163
     10 C          -2.8006  -19.3473   20.8979 C.2     1  UNL1        0.2671
     11 O          -1.3025  -19.3304   20.8265 O.2     1  UNL1       -0.2711
     12 N          -3.5282  -18.2680   21.6435 N.am    1  UNL1       -0.0790
     13 N          -5.0263  -18.2848   21.7150 N.2     1  UNL1       -0.1564
     14 O         -11.7899  -19.4483   21.3267 O.3     1  UNL1       -0.4754
     15 C         -12.5454  -18.1688   21.5323 C.3     1  UNL1        0.2068
     16 C         -12.2688  -17.3199   22.7377 C.3     1  UNL1        0.0646
     17 C         -11.3286  -16.1556   22.6354 C.3     1  UNL1        0.0759
     18 C          -8.5402  -15.2128   21.2263 C.3     1  UNL1        0.0173
     19 C          -8.6787  -15.8074   22.5965 C.3     1  UNL1        0.0576
     20 C          -7.5598  -16.0730   23.5595 C.3     1  UNL1        0.0174
     21 C          -8.1499  -16.6705   24.8024 C.3     1  UNL1        0.0187
     22 C          -9.6336  -16.7742   24.6075 C.3     1  UNL1        0.0721
     23 N          -9.9604  -16.2408   23.2441 N.3     1  UNL1       -0.2738
@<TRIPOS>BOND
     1    19    18    1
     2    19    20    1
     3    20    21    1
     4    21    22    1
     5    22    23    1
     6    23    17    1
     7    17    16    1
     8    16    15    1
     9    15    14    1
    10    14     1    1
    11     1     2   ar
    12     2     3   ar
    13     3     4   ar
    14     4     7    1
    15     7     8    2
    16     8     9    1
    17     9    10    1
    18    10    11    2
    19    10    12    1
    20    12    13    2
    21     4     5   ar
    22     5     6   ar
    23    23    19    1
    24     6     1   ar
    25    13     7    1
@<TRIPOS>MOLECULE
*****
 23 25 0 0 0
SMALL
GASTEIGER

@<TRIPOS>ATOM
      1 C          -6.7706  -18.6695   21.0811 C.ar    1  UNL1        0.1386
      2 C          -7.9383  -19.3255   20.4060 C.ar    1  UNL1        0.0369
      3 C          -9.3015  -19.2533   21.0275 C.ar    1  UNL1        0.0046
      4 C          -9.4970  -18.5251   22.3242 C.ar    1  UNL1        0.0191
      5 C          -8.3292  -17.8690   22.9994 C.ar    1  UNL1        0.0046
      6 C          -6.9660  -17.9412   22.3778 C.ar    1  UNL1        0.0369
      7 C         -10.8603  -18.4529   22.9458 C.2     1  UNL1        0.0968
      8 C         -12.0098  -17.8837   22.1683 C.2     1  UNL1        0.0043
      9 C         -13.3732  -17.8115   22.7898 C.3     1  UNL1        0.1163
     10 C         -13.5869  -18.3086   24.1888 C.2     1  UNL1        0.2671
     11 O         -14.9501  -18.2364   24.8104 O.2     1  UNL1       -0.2711
     12 N         -12.4372  -18.8778   24.9663 N.am    1  UNL1       -0.0790
     13 N         -11.0740  -18.9500   24.3448 N.2     1  UNL1       -0.1564
     14 O          -5.4072  -18.7417   20.4596 O.3     1  UNL1       -0.4754
     15 C          -4.9307  -20.0237   19.8437 C.3     1  UNL1        0.2068
     16 C          -3.5663  -20.5526   20.1737 C.3     1  UNL1        0.0646
     17 C          -2.7834  -19.9545   21.3047 C.3     1  UNL1        0.0759
     18 C          -3.5321  -17.3935   23.1834 C.3     1  UNL1        0.0173
     19 C          -2.5617  -17.3942   22.0397 C.3     1  UNL1        0.0576
     20 C          -1.7649  -16.2178   21.5588 C.3     1  UNL1        0.0174
     21 C          -0.9283  -16.6680   20.3979 C.3     1  UNL1        0.0187
     22 C          -1.2080  -18.1225   20.1615 C.3     1  UNL1        0.0721
     23 N          -2.2175  -18.5714   21.1761 N.3     1  UNL1       -0.2738
@<TRIPOS>BOND
     1    19    18    1
     2    19    20    1
     3    20    21    1
     4    21    22    1
     5    22    23    1
     6    23    17    1
     7    17    16    1
     8    16    15    1
     9    15    14    1
    10    14     1    1
    11     1     2   ar
    12     2     3   ar
    13     3     4   ar
    14     4     7    1
    15     7     8    2
    16     8     9    1
    17     9    10    1
    18    10    11    2
    19    10    12    1
    20    12    13    2
    21     4     5   ar
    22     5     6   ar
    23    23    19    1
    24     6     1   ar
    25    13     7    1
@<TRIPOS>MOLECULE
*****
 23 25 0 0 0
SMALL
GASTEIGER

@<TRIPOS>ATOM
      1 C          -6.5019  -20.0361   20.3968 C.ar    1  UNL1        0.1386
      2 C          -6.6297  -20.0501   21.8913 C.ar    1  UNL1        0.0369
      3 C          -7.9304  -19.6735   22.5363 C.ar    1  UNL1        0.0046
      4 C          -9.1035  -19.2830   21.6869 C.ar    1  UNL1        0.0191
      5 C          -8.9757  -19.2690   20.1925 C.ar    1  UNL1        0.0046
      6 C          -7.6750  -19.6456   19.5474 C.ar    1  UNL1        0.0369
      7 C         -10.4043  -18.9064   22.3321 C.2     1  UNL1        0.0968
      8 C         -10.5952  -19.1043   23.8066 C.2     1  UNL1        0.0043
      9 C         -11.8960  -18.7277   24.4518 C.3     1  UNL1        0.1163
     10 C         -13.0059  -18.1532   23.6223 C.2     1  UNL1        0.2671
     11 O         -14.3067  -17.7766   24.2673 O.2     1  UNL1       -0.2711
     12 N         -12.8150  -17.9552   22.1476 N.am    1  UNL1       -0.0790
     13 N         -11.5142  -18.3318   21.5026 N.2     1  UNL1       -0.1564
     14 O          -5.2011  -20.4127   19.7517 O.3     1  UNL1       -0.4754
     15 C          -3.9879  -19.5539   19.9528 C.3     1  UNL1        0.2068
     16 C          -2.7897  -20.1041   20.6682 C.3     1  UNL1        0.0646
     17 C          -2.2090  -19.3645   21.8369 C.3     1  UNL1        0.0759
     18 C          -1.5684  -16.2247   21.2203 C.3     1  UNL1        0.0173
     19 C          -2.6411  -16.7432   22.1316 C.3     1  UNL1        0.0576
     20 C          -3.6076  -15.9096   22.9194 C.3     1  UNL1        0.0174
     21 C          -4.4995  -16.8376   23.6898 C.3     1  UNL1        0.0187
     22 C          -4.0841  -18.2448   23.3780 C.3     1  UNL1        0.0721
     23 N          -2.9355  -18.1865   22.4150 N.3     1  UNL1       -0.2738
@<TRIPOS>BOND
     1    19    18    1
     2    19    20    1
     3    20    21    1
     4    21    22    1
     5    22    23    1
     6    23    17    1
     7    17    16    1
     8    16    15    1
     9    15    14    1
    10    14     1    1
    11     1     2   ar
    12     2     3   ar
    13     3     4   ar
    14     4     7    1
    15     7     8    2
    16     8     9    1
    17     9    10    1
    18    10    11    2
    19    10    12    1
    20    12    13    2
    21     4     5   ar
    22     5     6   ar
    23    23    19    1
    24     6     1   ar
    25    13     7    1
@<TRIPOS>MOLECULE
*****
 23 25 0 0 0
SMALL
GASTEIGER

@<TRIPOS>ATOM
      1 C         -10.8245   -6.4202   17.7621 C.ar    1  UNL1        0.1386
      2 C         -11.4995   -7.3527   16.8005 C.ar    1  UNL1        0.0369
      3 C         -12.8576   -7.9041   17.1189 C.ar    1  UNL1        0.0046
      4 C         -13.5407   -7.5231   18.3988 C.ar    1  UNL1        0.0191
      5 C         -12.8656   -6.5906   19.3604 C.ar    1  UNL1        0.0046
      6 C         -11.5075   -6.0392   19.0421 C.ar    1  UNL1        0.0369
      7 C         -14.8989   -8.0746   18.7172 C.2     1  UNL1        0.0968
      8 C         -16.0211   -7.1452   19.0732 C.2     1  UNL1        0.0043
      9 C         -17.3793   -7.6967   19.3915 C.3     1  UNL1        0.1163
     10 C         -17.6152   -9.1776   19.3538 C.2     1  UNL1        0.2671
     11 O         -18.9732   -9.7291   19.6721 O.2     1  UNL1       -0.2711
     12 N         -16.4928  -10.1070   18.9977 N.am    1  UNL1       -0.0790
     13 N         -15.1347   -9.5554   18.6794 N.2     1  UNL1       -0.1564
     14 O          -9.4663   -5.8687   17.4438 O.3     1  UNL1       -0.4754
     15 C          -9.2860   -4.3947   17.2326 C.3     1  UNL1        0.2068
     16 C          -9.8078   -3.7465   15.9845 C.3     1  UNL1        0.0646
     17 C         -10.8881   -2.7097   16.0733 C.3     1  UNL1        0.0759
     18 C         -13.7598   -4.2373   16.3364 C.3     1  UNL1        0.0173
     19 C         -13.1189   -3.3779   17.3855 C.3     1  UNL1        0.0576
     20 C         -13.6855   -3.0698   18.7398 C.3     1  UNL1        0.0174
     21 C         -12.7157   -2.1772   19.4559 C.3     1  UNL1        0.0187
     22 C         -11.5497   -1.9336   18.5441 C.3     1  UNL1        0.0721
     23 N         -11.7990   -2.6757   17.2646 N.3     1  UNL1       -0.2738
@<TRIPOS>BOND
     1    19    18    1
     2    19    20    1
     3    20    21    1
     4    21    22    1
     5    22    23    1
     6    23    17    1
     7    17    16    1
     8    16    15    1
     9    15    14    1
    10    14     1    1
    11     1     2   ar
    12     2     3   ar
    13     3     4   ar
    14     4     7    1
    15     7     8    2
    16     8     9    1
    17     9    10    1
    18    10    11    2
    19    10    12    1
    20    12    13    2
    21     4     5   ar
    22     5     6   ar
    23    23    19    1
    24     6     1   ar
    25    13     7    1
@<TRIPOS>MOLECULE
*****
 23 25 0 0 0
SMALL
GASTEIGER

@<TRIPOS>ATOM
      1 C          -8.3726  -18.2808   20.6938 C.ar    1  UNL1        0.1386
      2 C          -7.2006  -18.7144   21.5234 C.ar    1  UNL1        0.0369
      3 C          -6.8888  -18.0069   22.8088 C.ar    1  UNL1        0.0046
      4 C          -7.7491  -16.8658   23.2645 C.ar    1  UNL1        0.0191
      5 C          -8.9211  -16.4321   22.4349 C.ar    1  UNL1        0.0046
      6 C          -9.2329  -17.1397   21.1496 C.ar    1  UNL1        0.0369
      7 C          -7.4373  -16.1582   24.5500 C.2     1  UNL1        0.0968
      8 C          -8.4760  -16.0698   25.6285 C.2     1  UNL1        0.0043
      9 C          -8.1642  -15.3622   26.9139 C.3     1  UNL1        0.1163
     10 C          -6.8137  -14.7431   27.1207 C.2     1  UNL1        0.2671
     11 O          -6.5018  -14.0356   28.4060 O.2     1  UNL1       -0.2711
     12 N          -5.7749  -14.8316   26.0421 N.am    1  UNL1       -0.0790
     13 N          -6.0868  -15.5391   24.7568 N.2     1  UNL1       -0.1564
     14 O          -8.6844  -18.9884   19.4084 O.3     1  UNL1       -0.4754
     15 C          -9.9874  -19.7140   19.2487 C.3     1  UNL1        0.2068
     16 C         -11.0943  -19.4944   20.2370 C.3     1  UNL1        0.0646
     17 C         -11.2041  -20.3730   21.4477 C.3     1  UNL1        0.0759
     18 C         -12.8239  -17.9534   22.9211 C.3     1  UNL1        0.0173
     19 C         -11.6537  -18.7030   23.4857 C.3     1  UNL1        0.0576
     20 C         -11.0227  -18.4720   24.8267 C.3     1  UNL1        0.0174
     21 C          -9.8880  -19.4414   24.9783 C.3     1  UNL1        0.0187
     22 C          -9.8179  -20.2715   23.7309 C.3     1  UNL1        0.0721
     23 N         -10.9092  -19.8152   22.8084 N.3     1  UNL1       -0.2738
@<TRIPOS>BOND
     1    19    18    1
     2    19    20    1
     3    20    21    1
     4    21    22    1
     5    22    23    1
     6    23    17    1
     7    17    16    1
     8    16    15    1
     9    15    14    1
    10    14     1    1
    11     1     2   ar
    12     2     3   ar
    13     3     4   ar
    14     4     7    1
    15     7     8    2
    16     8     9    1
    17     9    10    1
    18    10    11    2
    19    10    12    1
    20    12    13    2
    21     4     5   ar
    22     5     6   ar
    23    23    19    1
    24     6     1   ar
    25    13     7    1
