@<TRIPOS>MOLECULE
*****
 33 38 0 0 0
SMALL
GASTEIGER

@<TRIPOS>ATOM
      1 C           6.7054   -4.2269   23.9779 C.3     1  UNL1        0.1120
      2 C           5.4687   -3.5390   23.4808 C.3     1  UNL1        0.1063
      3 N           6.1975   -3.1283   22.2358 N.3     1  UNL1       -0.1544
      4 C           7.4344   -3.8162   22.7329 C.3     1  UNL1        0.1063
      5 O           7.6619   -6.3740   25.0847 O.2     1  UNL1       -0.2748
      6 C           7.0645   -5.0038   25.2097 C.2     1  UNL1        0.2280
      7 N           6.8263   -4.4104   26.5667 N.am    1  UNL1       -0.2794
      8 C           7.1330   -5.0645   27.8812 C.3     1  UNL1        0.0952
      9 C           6.7358   -4.1172   28.9743 C.3     1  UNL1        0.0429
     10 C           6.6799   -3.9359   30.4622 C.3     1  UNL1        0.0925
     11 N           6.0931   -2.5843   30.7428 N.pl3   1  UNL1       -0.3073
     12 C           5.7864   -1.9302   29.4282 C.3     1  UNL1        0.0925
     13 C           6.1836   -2.8775   28.3352 C.3     1  UNL1        0.0429
     14 C           6.2395   -3.0588   26.8473 C.3     1  UNL1        0.0952
     15 C           5.8549   -1.9910   32.0997 C.ar    1  UNL1        0.0510
     16 C           6.9061   -1.1319   32.7377 C.ar    1  UNL1        0.0352
     17 C           6.6679   -0.5386   34.0946 C.ar    1  UNL1        0.1002
     18 N           5.3785   -0.8043   34.8135 N.ar    1  UNL1       -0.2422
     19 C           4.3273   -1.6633   34.1756 C.ar    1  UNL1        0.1002
     20 C           4.5655   -2.2566   32.8186 C.ar    1  UNL1        0.0352
     21 S           5.8384   -2.3514   21.0039 S.O2    1  UNL1        0.0633
     22 O           5.4335   -3.6234   20.3198 O.2     1  UNL1       -0.1528
     23 O           6.2434   -1.0794   21.6881 O.2     1  UNL1       -0.1528
     24 C           5.4793   -1.5745   19.7720 C.ar    1  UNL1        0.1223
     25 C           6.5131   -1.3263   18.7140 C.ar    1  UNL1        0.0199
     26 C           6.1540   -0.5494   17.4821 C.ar    1  UNL1        0.0014
     27 C           4.7611   -0.0207   17.3083 C.ar    1  UNL1        0.0016
     28 C           3.7272   -0.2690   18.3664 C.ar    1  UNL1        0.0205
     29 C           2.3343    0.2597   18.1926 C.ar    1  UNL1        0.0989
     30 N           1.3004    0.0114   19.2507 N.ar    1  UNL1       -0.2423
     31 C           1.6596   -0.7655   20.4826 C.ar    1  UNL1        0.0989
     32 C           3.0525   -1.2941   20.6564 C.ar    1  UNL1        0.0220
     33 C           4.0863   -1.0459   19.5983 C.ar    1  UNL1        0.0217
@<TRIPOS>BOND
     1     5     6    2
     2     6     1    1
     3     1     2    1
     4     2     3    1
     5     3    21    1
     6    21    22    2
     7    21    23    2
     8    21    24    1
     9    24    25   ar
    10    25    26   ar
    11    26    27   ar
    12    27    28   ar
    13    28    29   ar
    14    29    30   ar
    15    30    31   ar
    16    31    32   ar
    17    32    33   ar
    18     3     4    1
    19     6     7   am
    20     7     8    1
    21     8     9    1
    22     9    10    1
    23    10    11    1
    24    11    15    1
    25    15    16   ar
    26    16    17   ar
    27    17    18   ar
    28    18    19   ar
    29    19    20   ar
    30    11    12    1
    31    12    13    1
    32    13    14    1
    33     4     1    1
    34    14     7    1
    35    33    24   ar
    36    13     9    1
    37    33    28   ar
    38    20    15   ar
@<TRIPOS>MOLECULE
*****
 33 38 0 0 0
SMALL
GASTEIGER

@<TRIPOS>ATOM
      1 C          -2.1456    3.9492   19.9346 C.3     1  UNL1        0.1120
      2 C          -2.1625    4.5443   21.3114 C.3     1  UNL1        0.1063
      3 N          -3.6523    4.3788   21.3647 N.3     1  UNL1       -0.1544
      4 C          -3.6354    3.7837   19.9878 C.3     1  UNL1        0.1063
      5 O          -0.9351    4.5076   17.7046 O.2     1  UNL1       -0.2748
      6 C          -1.0801    3.6454   18.9235 C.2     1  UNL1        0.2280
      7 N          -0.1596    2.4794   19.1312 N.am    1  UNL1       -0.2794
      8 C           0.9469    2.0548   18.2116 C.3     1  UNL1        0.0952
      9 C           1.6064    0.8463   18.8070 C.3     1  UNL1        0.0429
     10 C           2.6978   -0.1630   18.6067 C.3     1  UNL1        0.0925
     11 N           2.6735   -1.1091   19.7703 N.pl3   1  UNL1       -0.3073
     12 C           1.5671   -0.6846   20.6899 C.3     1  UNL1        0.0925
     13 C           0.9076    0.5239   20.0945 C.3     1  UNL1        0.0429
     14 C          -0.1839    1.5332   20.2949 C.3     1  UNL1        0.0952
     15 C           3.5940   -2.2751   19.9780 C.ar    1  UNL1        0.0510
     16 C           4.5374   -2.2875   21.1442 C.ar    1  UNL1        0.0352
     17 C           5.4579   -3.4535   21.3519 C.ar    1  UNL1        0.1002
     18 N           5.4351   -4.6070   20.3934 N.ar    1  UNL1       -0.2422
     19 C           4.4919   -4.5946   19.2272 C.ar    1  UNL1        0.1002
     20 C           3.5713   -3.4286   19.0195 C.ar    1  UNL1        0.0352
     21 S          -4.7178    4.6827   22.3758 S.O2    1  UNL1        0.0633
     22 O          -4.7019    6.1237   21.9596 O.2     1  UNL1       -0.1528
     23 O          -4.7337    3.2416   22.7921 O.2     1  UNL1       -0.1528
     24 C          -5.7833    4.9865   23.3870 C.ar    1  UNL1        0.1223
     25 C          -7.2280    4.9630   22.9843 C.ar    1  UNL1        0.0199
     26 C          -8.2935    5.2668   23.9955 C.ar    1  UNL1        0.0014
     27 C          -7.9142    5.5941   25.4094 C.ar    1  UNL1        0.0016
     28 C          -6.4694    5.6175   25.8121 C.ar    1  UNL1        0.0205
     29 C          -6.0902    5.9447   27.2260 C.ar    1  UNL1        0.0989
     30 N          -4.6455    5.9682   27.6287 N.ar    1  UNL1       -0.2423
     31 C          -3.5800    5.6644   26.6175 C.ar    1  UNL1        0.0989
     32 C          -3.9592    5.3371   25.2036 C.ar    1  UNL1        0.0220
     33 C          -5.4040    5.3137   24.8009 C.ar    1  UNL1        0.0217
@<TRIPOS>BOND
     1     5     6    2
     2     6     1    1
     3     1     2    1
     4     2     3    1
     5     3    21    1
     6    21    22    2
     7    21    23    2
     8    21    24    1
     9    24    25   ar
    10    25    26   ar
    11    26    27   ar
    12    27    28   ar
    13    28    29   ar
    14    29    30   ar
    15    30    31   ar
    16    31    32   ar
    17    32    33   ar
    18     3     4    1
    19     6     7   am
    20     7     8    1
    21     8     9    1
    22     9    10    1
    23    10    11    1
    24    11    15    1
    25    15    16   ar
    26    16    17   ar
    27    17    18   ar
    28    18    19   ar
    29    19    20   ar
    30    11    12    1
    31    12    13    1
    32    13    14    1
    33     4     1    1
    34    14     7    1
    35    33    24   ar
    36    13     9    1
    37    33    28   ar
    38    20    15   ar
@<TRIPOS>MOLECULE
*****
 33 38 0 0 0
SMALL
GASTEIGER

@<TRIPOS>ATOM
      1 C           1.2948    1.4802   24.3816 C.3     1  UNL1        0.1120
      2 C           1.3588    1.9611   22.9624 C.3     1  UNL1        0.1063
      3 N           2.0813    0.7066   22.5698 N.3     1  UNL1       -0.1544
      4 C           2.0174    0.2256   23.9892 C.3     1  UNL1        0.1063
      5 O           1.5376    1.9313   26.9287 O.2     1  UNL1       -0.2748
      6 C           0.7387    2.0272   25.6628 C.2     1  UNL1        0.2280
      7 N          -0.6165    2.6703   25.6781 N.am    1  UNL1       -0.2794
      8 C          -1.2996    3.2589   26.8768 C.3     1  UNL1        0.0952
      9 C          -2.6317    3.7900   26.4370 C.3     1  UNL1        0.0429
     10 C          -3.8771    4.4820   26.9060 C.3     1  UNL1        0.0925
     11 N          -4.7870    4.6492   25.7253 N.pl3   1  UNL1       -0.3073
     12 C          -4.1039    4.0606   24.5266 C.3     1  UNL1        0.0925
     13 C          -2.7718    3.5295   24.9664 C.3     1  UNL1        0.0429
     14 C          -1.5264    2.8375   24.4974 C.3     1  UNL1        0.0952
     15 C          -6.1421    5.2922   25.7407 C.ar    1  UNL1        0.0510
     16 C          -6.5596    6.1342   26.9098 C.ar    1  UNL1        0.0352
     17 C          -7.9147    6.7772   26.9252 C.ar    1  UNL1        0.1002
     18 N          -8.8523    6.5782   25.7714 N.ar    1  UNL1       -0.2422
     19 C          -8.4349    5.7363   24.6023 C.ar    1  UNL1        0.1002
     20 C          -7.0798    5.0933   24.5869 C.ar    1  UNL1        0.0352
     21 S           2.6375    0.1596   21.2886 S.O2    1  UNL1        0.0633
     22 O           3.9676    0.7781   21.6019 O.2     1  UNL1       -0.1528
     23 O           1.3073   -0.4590   20.9753 O.2     1  UNL1       -0.1528
     24 C           3.1936   -0.3875   20.0074 C.ar    1  UNL1        0.1223
     25 C           3.0719    0.4035   18.7387 C.ar    1  UNL1        0.0199
     26 C           3.6280   -0.1436   17.4575 C.ar    1  UNL1        0.0014
     27 C           4.3059   -1.4816   17.4450 C.ar    1  UNL1        0.0016
     28 C           4.4277   -2.2726   18.7137 C.ar    1  UNL1        0.0205
     29 C           5.1056   -3.6106   18.7012 C.ar    1  UNL1        0.0989
     30 N           5.2273   -4.4015   19.9698 N.ar    1  UNL1       -0.2423
     31 C           4.6712   -3.8545   21.2510 C.ar    1  UNL1        0.0989
     32 C           3.9933   -2.5165   21.2635 C.ar    1  UNL1        0.0220
     33 C           3.8715   -1.7255   19.9949 C.ar    1  UNL1        0.0217
@<TRIPOS>BOND
     1     5     6    2
     2     6     1    1
     3     1     2    1
     4     2     3    1
     5     3    21    1
     6    21    22    2
     7    21    23    2
     8    21    24    1
     9    24    25   ar
    10    25    26   ar
    11    26    27   ar
    12    27    28   ar
    13    28    29   ar
    14    29    30   ar
    15    30    31   ar
    16    31    32   ar
    17    32    33   ar
    18     3     4    1
    19     6     7   am
    20     7     8    1
    21     8     9    1
    22     9    10    1
    23    10    11    1
    24    11    15    1
    25    15    16   ar
    26    16    17   ar
    27    17    18   ar
    28    18    19   ar
    29    19    20   ar
    30    11    12    1
    31    12    13    1
    32    13    14    1
    33     4     1    1
    34    14     7    1
    35    33    24   ar
    36    13     9    1
    37    33    28   ar
    38    20    15   ar
@<TRIPOS>MOLECULE
*****
 33 38 0 0 0
SMALL
GASTEIGER

@<TRIPOS>ATOM
      1 C           0.6985    2.4657   18.9074 C.3     1  UNL1        0.1120
      2 C           1.5605    2.0335   20.0562 C.3     1  UNL1        0.1063
      3 N           1.7840    0.7083   19.3899 N.3     1  UNL1       -0.1544
      4 C           0.9219    1.1406   18.2410 C.3     1  UNL1        0.1063
      5 O           0.4243    4.6209   17.4827 O.2     1  UNL1       -0.2748
      6 C          -0.0691    3.7084   18.5661 C.2     1  UNL1        0.2280
      7 N          -1.3301    4.0387   19.3084 N.am    1  UNL1       -0.2794
      8 C          -2.1994    5.2394   19.0792 C.3     1  UNL1        0.0952
      9 C          -3.3497    5.1690   20.0392 C.3     1  UNL1        0.0429
     10 C          -4.5979    5.8676   20.4909 C.3     1  UNL1        0.0925
     11 N          -5.2110    5.0550   21.5927 N.pl3   1  UNL1       -0.3073
     12 C          -4.3417    3.8542   21.8219 C.3     1  UNL1        0.0925
     13 C          -3.1914    3.9246   20.8618 C.3     1  UNL1        0.0429
     14 C          -1.9432    3.2261   20.4101 C.3     1  UNL1        0.0952
     15 C          -6.4720    5.3852   22.3349 C.ar    1  UNL1        0.0510
     16 C          -7.1654    4.3285   23.1428 C.ar    1  UNL1        0.0352
     17 C          -8.4263    4.6587   23.8850 C.ar    1  UNL1        0.1002
     18 N          -8.9939    6.0456   23.8193 N.ar    1  UNL1       -0.2422
     19 C          -8.3006    7.1023   23.0114 C.ar    1  UNL1        0.1002
     20 C          -7.0396    6.7721   22.2692 C.ar    1  UNL1        0.0352
     21 S           2.5516   -0.5344   19.7312 S.O2    1  UNL1        0.0633
     22 O           3.8115    0.1056   19.2282 O.2     1  UNL1       -0.1528
     23 O           1.2917   -1.1745   20.2342 O.2     1  UNL1       -0.1528
     24 C           3.3192   -1.7772   20.0725 C.ar    1  UNL1        0.1223
     25 C           3.5809   -2.8106   19.0172 C.ar    1  UNL1        0.0199
     26 C           4.3485   -4.0533   19.3585 C.ar    1  UNL1        0.0014
     27 C           4.8544   -4.2626   20.7550 C.ar    1  UNL1        0.0016
     28 C           4.5927   -3.2292   21.8103 C.ar    1  UNL1        0.0205
     29 C           5.0987   -3.4385   23.2067 C.ar    1  UNL1        0.0989
     30 N           4.8370   -2.4050   24.2620 N.ar    1  UNL1       -0.2423
     31 C           4.0694   -1.1623   23.9207 C.ar    1  UNL1        0.0989
     32 C           3.5635   -0.9530   22.5242 C.ar    1  UNL1        0.0220
     33 C           3.8251   -1.9864   21.4690 C.ar    1  UNL1        0.0217
@<TRIPOS>BOND
     1     5     6    2
     2     6     1    1
     3     1     2    1
     4     2     3    1
     5     3    21    1
     6    21    22    2
     7    21    23    2
     8    21    24    1
     9    24    25   ar
    10    25    26   ar
    11    26    27   ar
    12    27    28   ar
    13    28    29   ar
    14    29    30   ar
    15    30    31   ar
    16    31    32   ar
    17    32    33   ar
    18     3     4    1
    19     6     7   am
    20     7     8    1
    21     8     9    1
    22     9    10    1
    23    10    11    1
    24    11    15    1
    25    15    16   ar
    26    16    17   ar
    27    17    18   ar
    28    18    19   ar
    29    19    20   ar
    30    11    12    1
    31    12    13    1
    32    13    14    1
    33     4     1    1
    34    14     7    1
    35    33    24   ar
    36    13     9    1
    37    33    28   ar
    38    20    15   ar
@<TRIPOS>MOLECULE
*****
 33 38 0 0 0
SMALL
GASTEIGER

@<TRIPOS>ATOM
      1 C           0.9160    1.2399   24.3539 C.3     1  UNL1        0.1120
      2 C           1.9633    0.2221   24.0120 C.3     1  UNL1        0.1063
      3 N           1.8160    0.5589   22.5578 N.3     1  UNL1       -0.1544
      4 C           0.7686    1.5768   22.8997 C.3     1  UNL1        0.1063
      5 O          -0.9853    2.5259   25.5710 O.2     1  UNL1       -0.2748
      6 C           0.2797    1.7215   25.6240 C.2     1  UNL1        0.2280
      7 N           0.9083    1.3986   26.9472 N.am    1  UNL1       -0.2794
      8 C           0.3897    1.8095   28.2934 C.3     1  UNL1        0.0952
      9 C           1.3267    1.2730   29.3346 C.3     1  UNL1        0.0429
     10 C           1.5853    1.1954   30.8101 C.3     1  UNL1        0.0925
     11 N           2.8429    0.4050   31.0193 N.pl3   1  UNL1       -0.3073
     12 C           3.3615   -0.0059   29.6731 C.3     1  UNL1        0.0925
     13 C           2.4245    0.5306   28.6319 C.3     1  UNL1        0.0429
     14 C           2.1658    0.6082   27.1564 C.3     1  UNL1        0.0952
     15 C           3.4714    0.0822   32.3424 C.ar    1  UNL1        0.0510
     16 C           3.5586    1.1343   33.4080 C.ar    1  UNL1        0.0352
     17 C           4.1872    0.8115   34.7311 C.ar    1  UNL1        0.1002
     18 N           4.7286   -0.5635   34.9887 N.ar    1  UNL1       -0.2422
     19 C           4.6414   -1.6156   33.9232 C.ar    1  UNL1        0.1002
     20 C           4.0128   -1.2928   32.6000 C.ar    1  UNL1        0.0352
     21 S           2.4523    0.0773   21.2877 S.O2    1  UNL1        0.0633
     22 O           1.1812   -0.6282   20.9183 O.2     1  UNL1       -0.1528
     23 O           3.7235    0.7828   21.6570 O.2     1  UNL1       -0.1528
     24 C           3.0887   -0.4042   20.0176 C.ar    1  UNL1        0.1223
     25 C           2.9654    0.4075   18.7623 C.ar    1  UNL1        0.0199
     26 C           3.6017   -0.0741   17.4922 C.ar    1  UNL1        0.0014
     27 C           4.3614   -1.3674   17.4774 C.ar    1  UNL1        0.0016
     28 C           4.4848   -2.1792   18.7327 C.ar    1  UNL1        0.0205
     29 C           5.2445   -3.4724   18.7180 C.ar    1  UNL1        0.0989
     30 N           5.3678   -4.2842   19.9733 N.ar    1  UNL1       -0.2423
     31 C           4.7314   -3.8026   21.2434 C.ar    1  UNL1        0.0989
     32 C           3.9717   -2.5093   21.2582 C.ar    1  UNL1        0.0220
     33 C           3.8484   -1.6976   20.0028 C.ar    1  UNL1        0.0217
@<TRIPOS>BOND
     1     5     6    2
     2     6     1    1
     3     1     2    1
     4     2     3    1
     5     3    21    1
     6    21    22    2
     7    21    23    2
     8    21    24    1
     9    24    25   ar
    10    25    26   ar
    11    26    27   ar
    12    27    28   ar
    13    28    29   ar
    14    29    30   ar
    15    30    31   ar
    16    31    32   ar
    17    32    33   ar
    18     3     4    1
    19     6     7   am
    20     7     8    1
    21     8     9    1
    22     9    10    1
    23    10    11    1
    24    11    15    1
    25    15    16   ar
    26    16    17   ar
    27    17    18   ar
    28    18    19   ar
    29    19    20   ar
    30    11    12    1
    31    12    13    1
    32    13    14    1
    33     4     1    1
    34    14     7    1
    35    33    24   ar
    36    13     9    1
    37    33    28   ar
    38    20    15   ar
@<TRIPOS>MOLECULE
*****
 33 38 0 0 0
SMALL
GASTEIGER

@<TRIPOS>ATOM
      1 C          -1.8488    3.7888   20.5650 C.3     1  UNL1        0.1120
      2 C          -3.3201    3.9074   20.8315 C.3     1  UNL1        0.1063
      3 N          -3.0309    4.3232   22.2433 N.3     1  UNL1       -0.1544
      4 C          -1.5595    4.2046   21.9769 C.3     1  UNL1        0.1063
      5 O          -1.1321    4.1859   18.0995 O.2     1  UNL1       -0.2748
      6 C          -1.0129    3.4109   19.3782 C.2     1  UNL1        0.2280
      7 N          -0.0577    2.2579   19.4702 N.am    1  UNL1       -0.2794
      8 C           0.8384    1.7656   18.3726 C.3     1  UNL1        0.0952
      9 C           1.6189    0.5983   18.8999 C.3     1  UNL1        0.0429
     10 C           2.6551   -0.4274   18.5474 C.3     1  UNL1        0.0925
     11 N           2.8818   -1.2906   19.7530 N.pl3   1  UNL1       -0.3073
     12 C           1.9856   -0.7984   20.8506 C.3     1  UNL1        0.0925
     13 C           1.2051    0.3690   20.3234 C.3     1  UNL1        0.0429
     14 C           0.1689    1.3947   20.6758 C.3     1  UNL1        0.0952
     15 C           3.8369   -2.4435   19.8450 C.ar    1  UNL1        0.0510
     16 C           5.0268   -2.3611   20.7546 C.ar    1  UNL1        0.0352
     17 C           5.9819   -3.5140   20.8465 C.ar    1  UNL1        0.1002
     18 N           5.7471   -4.7494   20.0288 N.ar    1  UNL1       -0.2422
     19 C           4.5573   -4.8319   19.1192 C.ar    1  UNL1        0.1002
     20 C           3.6021   -3.6789   19.0272 C.ar    1  UNL1        0.0352
     21 S          -3.8668    4.7011   23.4301 S.O2    1  UNL1        0.0633
     22 O          -4.2166    3.2582   23.6432 O.2     1  UNL1       -0.1528
     23 O          -3.5170    6.1441   23.2170 O.2     1  UNL1       -0.1528
     24 C          -4.7027    5.0791   24.6169 C.ar    1  UNL1        0.1223
     25 C          -4.1180    5.0160   25.9968 C.ar    1  UNL1        0.0199
     26 C          -4.9539    5.3939   27.1836 C.ar    1  UNL1        0.0014
     27 C          -6.3745    5.8349   26.9905 C.ar    1  UNL1        0.0016
     28 C          -6.9593    5.8980   25.6106 C.ar    1  UNL1        0.0205
     29 C          -8.3799    6.3390   25.4175 C.ar    1  UNL1        0.0989
     30 N          -8.9646    6.4020   24.0376 N.ar    1  UNL1       -0.2423
     31 C          -8.1287    6.0241   22.8508 C.ar    1  UNL1        0.0989
     32 C          -6.7081    5.5831   23.0439 C.ar    1  UNL1        0.0220
     33 C          -6.1234    5.5201   24.4238 C.ar    1  UNL1        0.0217
@<TRIPOS>BOND
     1     5     6    2
     2     6     1    1
     3     1     2    1
     4     2     3    1
     5     3    21    1
     6    21    22    2
     7    21    23    2
     8    21    24    1
     9    24    25   ar
    10    25    26   ar
    11    26    27   ar
    12    27    28   ar
    13    28    29   ar
    14    29    30   ar
    15    30    31   ar
    16    31    32   ar
    17    32    33   ar
    18     3     4    1
    19     6     7   am
    20     7     8    1
    21     8     9    1
    22     9    10    1
    23    10    11    1
    24    11    15    1
    25    15    16   ar
    26    16    17   ar
    27    17    18   ar
    28    18    19   ar
    29    19    20   ar
    30    11    12    1
    31    12    13    1
    32    13    14    1
    33     4     1    1
    34    14     7    1
    35    33    24   ar
    36    13     9    1
    37    33    28   ar
    38    20    15   ar
@<TRIPOS>MOLECULE
*****
 33 38 0 0 0
SMALL
GASTEIGER

@<TRIPOS>ATOM
      1 C           1.3665    1.0338   27.6669 C.3     1  UNL1        0.1120
      2 C           2.2552   -0.0925   28.1044 C.3     1  UNL1        0.1063
      3 N           2.3673    0.5250   29.4667 N.3     1  UNL1       -0.1544
      4 C           1.4785    1.6514   29.0292 C.3     1  UNL1        0.1063
      5 O          -0.6185    2.1784   26.4424 O.2     1  UNL1       -0.2748
      6 C           0.6588    1.3935   26.3942 C.2     1  UNL1        0.2280
      7 N           1.2285    0.9683   25.0733 N.am    1  UNL1       -0.2794
      8 C           0.6361    1.2530   23.7249 C.3     1  UNL1        0.0952
      9 C           1.5320    0.6444   22.6871 C.3     1  UNL1        0.0429
     10 C           1.7196    0.4443   21.2124 C.3     1  UNL1        0.0925
     11 N           2.9816   -0.3403   21.0080 N.pl3   1  UNL1       -0.3073
     12 C           3.5740   -0.6250   22.3564 C.3     1  UNL1        0.0925
     13 C           2.6781   -0.0164   23.3942 C.3     1  UNL1        0.0429
     14 C           2.4905    0.1837   24.8688 C.3     1  UNL1        0.0952
     15 C           3.5512   -0.7654   19.6872 C.ar    1  UNL1        0.0510
     16 C           4.5938   -1.8425   19.6317 C.ar    1  UNL1        0.0352
     17 C           5.1635   -2.2676   18.3109 C.ar    1  UNL1        0.1002
     18 N           4.6905   -1.6158   17.0454 N.ar    1  UNL1       -0.2422
     19 C           3.6480   -0.5388   17.1008 C.ar    1  UNL1        0.1002
     20 C           3.0783   -0.1136   18.4217 C.ar    1  UNL1        0.0352
     21 S           3.0750    0.1653   30.7394 S.O2    1  UNL1        0.0633
     22 O           2.0360   -0.8790   31.0220 O.2     1  UNL1       -0.1528
     23 O           4.1140    1.2097   30.4569 O.2     1  UNL1       -0.1528
     24 C           3.7827   -0.1944   32.0121 C.ar    1  UNL1        0.1223
     25 C           4.7369   -1.3515   32.0385 C.ar    1  UNL1        0.0199
     26 C           5.4446   -1.7112   33.3112 C.ar    1  UNL1        0.0014
     27 C           5.1981   -0.9138   34.5575 C.ar    1  UNL1        0.0016
     28 C           4.2439    0.2433   34.5312 C.ar    1  UNL1        0.0205
     29 C           3.9974    1.0406   35.7776 C.ar    1  UNL1        0.0989
     30 N           3.0433    2.1977   35.7513 N.ar    1  UNL1       -0.2423
     31 C           2.3356    2.5574   34.4786 C.ar    1  UNL1        0.0989
     32 C           2.5820    1.7601   33.2322 C.ar    1  UNL1        0.0220
     33 C           3.5362    0.6030   33.2585 C.ar    1  UNL1        0.0217
@<TRIPOS>BOND
     1     5     6    2
     2     6     1    1
     3     1     2    1
     4     2     3    1
     5     3    21    1
     6    21    22    2
     7    21    23    2
     8    21    24    1
     9    24    25   ar
    10    25    26   ar
    11    26    27   ar
    12    27    28   ar
    13    28    29   ar
    14    29    30   ar
    15    30    31   ar
    16    31    32   ar
    17    32    33   ar
    18     3     4    1
    19     6     7   am
    20     7     8    1
    21     8     9    1
    22     9    10    1
    23    10    11    1
    24    11    15    1
    25    15    16   ar
    26    16    17   ar
    27    17    18   ar
    28    18    19   ar
    29    19    20   ar
    30    11    12    1
    31    12    13    1
    32    13    14    1
    33     4     1    1
    34    14     7    1
    35    33    24   ar
    36    13     9    1
    37    33    28   ar
    38    20    15   ar
@<TRIPOS>MOLECULE
*****
 33 38 0 0 0
SMALL
GASTEIGER

@<TRIPOS>ATOM
      1 C           6.5490   -3.8884   30.9733 C.3     1  UNL1        0.1120
      2 C           6.5480   -3.7577   32.4676 C.3     1  UNL1        0.1063
      3 N           5.8078   -2.4581   32.3534 N.3     1  UNL1       -0.1544
      4 C           5.8087   -2.5888   30.8591 C.3     1  UNL1        0.1063
      5 O           7.7178   -6.1591   30.4961 O.2     1  UNL1       -0.2748
      6 C           7.0731   -4.8999   29.9975 C.2     1  UNL1        0.2280
      7 N           6.9524   -4.6520   28.5230 N.am    1  UNL1       -0.2794
      8 C           7.4275   -5.5670   27.4334 C.3     1  UNL1        0.0952
      9 C           7.1042   -4.9262   26.1162 C.3     1  UNL1        0.0429
     10 C           7.1980   -5.0956   24.6288 C.3     1  UNL1        0.0925
     11 N           6.5812   -3.8894   23.9851 N.pl3   1  UNL1       -0.3073
     12 C           6.1061   -2.9744   25.0747 C.3     1  UNL1        0.0925
     13 C           6.4294   -3.6152   26.3918 C.3     1  UNL1        0.0429
     14 C           6.3356   -3.4458   27.8792 C.3     1  UNL1        0.0952
     15 C           6.4606   -3.6416   22.5106 C.ar    1  UNL1        0.0510
     16 C           7.6878   -3.3649   21.6937 C.ar    1  UNL1        0.0352
     17 C           7.5672   -3.1171   20.2193 C.ar    1  UNL1        0.1002
     18 N           6.2194   -3.1460   19.5617 N.ar    1  UNL1       -0.2422
     19 C           4.9921   -3.4227   20.3785 C.ar    1  UNL1        0.1002
     20 C           5.1127   -3.6705   21.8530 C.ar    1  UNL1        0.0352
     21 S           5.2836   -1.4466   33.3293 S.O2    1  UNL1        0.0633
     22 O           6.4833   -0.5821   33.0775 O.2     1  UNL1       -0.1528
     23 O           4.0840   -2.3112   33.5810 O.2     1  UNL1       -0.1528
     24 C           4.7595   -0.4352   34.3051 C.ar    1  UNL1        0.1223
     25 C           5.2478   -0.4382   35.7234 C.ar    1  UNL1        0.0199
     26 C           4.7237    0.5732   36.6992 C.ar    1  UNL1        0.0014
     27 C           3.7113    1.5877   36.2568 C.ar    1  UNL1        0.0016
     28 C           3.2229    1.5908   34.8385 C.ar    1  UNL1        0.0205
     29 C           2.2105    2.6053   34.3961 C.ar    1  UNL1        0.0989
     30 N           1.7222    2.6083   32.9779 N.ar    1  UNL1       -0.2423
     31 C           2.2463    1.5969   32.0020 C.ar    1  UNL1        0.0989
     32 C           3.2587    0.5824   32.4444 C.ar    1  UNL1        0.0220
     33 C           3.7470    0.5793   33.8627 C.ar    1  UNL1        0.0217
@<TRIPOS>BOND
     1     5     6    2
     2     6     1    1
     3     1     2    1
     4     2     3    1
     5     3    21    1
     6    21    22    2
     7    21    23    2
     8    21    24    1
     9    24    25   ar
    10    25    26   ar
    11    26    27   ar
    12    27    28   ar
    13    28    29   ar
    14    29    30   ar
    15    30    31   ar
    16    31    32   ar
    17    32    33   ar
    18     3     4    1
    19     6     7   am
    20     7     8    1
    21     8     9    1
    22     9    10    1
    23    10    11    1
    24    11    15    1
    25    15    16   ar
    26    16    17   ar
    27    17    18   ar
    28    18    19   ar
    29    19    20   ar
    30    11    12    1
    31    12    13    1
    32    13    14    1
    33     4     1    1
    34    14     7    1
    35    33    24   ar
    36    13     9    1
    37    33    28   ar
    38    20    15   ar
@<TRIPOS>MOLECULE
*****
 33 38 0 0 0
SMALL
GASTEIGER

@<TRIPOS>ATOM
      1 C           0.1545    2.1590   26.9188 C.3     1  UNL1        0.1120
      2 C           0.4543    3.1122   28.0374 C.3     1  UNL1        0.1063
      3 N           0.9584    1.9730   28.8730 N.3     1  UNL1       -0.1544
      4 C           0.6585    1.0198   27.7543 C.3     1  UNL1        0.1063
      5 O          -1.7254    2.9882   25.3287 O.2     1  UNL1       -0.2748
      6 C          -0.4140    2.2905   25.5369 C.2     1  UNL1        0.2280
      7 N           0.3290    1.7243   24.3632 N.am    1  UNL1       -0.2794
      8 C          -0.1124    1.7788   22.9307 C.3     1  UNL1        0.0952
      9 C           0.9296    1.0924   22.0981 C.3     1  UNL1        0.0429
     10 C           1.3008    0.7018   20.6983 C.3     1  UNL1        0.0925
     11 N           2.6156   -0.0183   20.7511 N.pl3   1  UNL1       -0.3073
     12 C           3.0569   -0.0728   22.1837 C.3     1  UNL1        0.0925
     13 C           2.0150    0.6136   23.0162 C.3     1  UNL1        0.0429
     14 C           1.6438    1.0042   24.4161 C.3     1  UNL1        0.0952
     15 C           3.3585   -0.5845   19.5775 C.ar    1  UNL1        0.0510
     16 C           3.1006   -0.0523   18.1989 C.ar    1  UNL1        0.0352
     17 C           3.8435   -0.6185   17.0253 C.ar    1  UNL1        0.1002
     18 N           4.8444   -1.7168   17.2302 N.ar    1  UNL1       -0.2422
     19 C           5.1023   -2.2490   18.6086 C.ar    1  UNL1        0.1002
     20 C           4.3594   -1.6828   19.7824 C.ar    1  UNL1        0.0352
     21 S           1.5268    1.8415   30.2549 S.O2    1  UNL1        0.0633
     22 O           0.2479    1.2113   30.7210 O.2     1  UNL1       -0.1528
     23 O           2.8058    2.4716   29.7887 O.2     1  UNL1       -0.1528
     24 C           2.0953    1.7100   31.6367 C.ar    1  UNL1        0.1223
     25 C           2.9943    0.5568   31.9713 C.ar    1  UNL1        0.0199
     26 C           3.5627    0.4253   33.3532 C.ar    1  UNL1        0.0014
     27 C           3.2322    1.4469   34.4005 C.ar    1  UNL1        0.0016
     28 C           2.3332    2.6002   34.0660 C.ar    1  UNL1        0.0205
     29 C           2.0026    3.6218   35.1133 C.ar    1  UNL1        0.0989
     30 N           1.1037    4.7750   34.7787 N.ar    1  UNL1       -0.2423
     31 C           0.5352    4.9065   33.3969 C.ar    1  UNL1        0.0989
     32 C           0.8657    3.8849   32.3495 C.ar    1  UNL1        0.0220
     33 C           1.7647    2.7317   32.6841 C.ar    1  UNL1        0.0217
@<TRIPOS>BOND
     1     5     6    2
     2     6     1    1
     3     1     2    1
     4     2     3    1
     5     3    21    1
     6    21    22    2
     7    21    23    2
     8    21    24    1
     9    24    25   ar
    10    25    26   ar
    11    26    27   ar
    12    27    28   ar
    13    28    29   ar
    14    29    30   ar
    15    30    31   ar
    16    31    32   ar
    17    32    33   ar
    18     3     4    1
    19     6     7   am
    20     7     8    1
    21     8     9    1
    22     9    10    1
    23    10    11    1
    24    11    15    1
    25    15    16   ar
    26    16    17   ar
    27    17    18   ar
    28    18    19   ar
    29    19    20   ar
    30    11    12    1
    31    12    13    1
    32    13    14    1
    33     4     1    1
    34    14     7    1
    35    33    24   ar
    36    13     9    1
    37    33    28   ar
    38    20    15   ar
