@<TRIPOS>MOLECULE
*****
 37 41 0 0 0
SMALL
GASTEIGER

@<TRIPOS>ATOM
      1 C          -5.3868  -20.8939   20.8845 C.3     1  UNL1        0.0294
      2 C          -6.4510  -20.6603   19.8535 C.3     1  UNL1        0.0666
      3 S          -7.0547  -19.2965   19.6943 S.3     1  UNL1       -0.0756
      4 C         -10.2438  -19.6922   20.2624 C.3     1  UNL1        0.1340
      5 N          -9.2979  -18.8662   21.0828 N.ar    1  UNL1       -0.2884
      6 C          -7.8321  -18.6843   20.8217 C.ar    1  UNL1        0.1932
      7 N          -7.2800  -17.7828   21.8859 N.ar    1  UNL1       -0.1221
      8 N          -8.4047  -17.4074   22.8047 N.ar    1  UNL1       -0.1282
      9 C          -9.6519  -18.0770   22.3084 C.ar    1  UNL1        0.1682
     10 C         -11.0138  -17.9753   22.9288 C.ar    1  UNL1        0.0576
     11 C         -11.9797  -16.9320   22.4507 C.ar    1  UNL1        0.0061
     12 C         -13.3416  -16.8303   23.0710 C.ar    1  UNL1        0.0208
     13 C         -13.7376  -17.7719   24.1695 C.ar    1  UNL1        0.0988
     14 N         -12.7717  -18.8153   24.6476 N.ar    1  UNL1       -0.2398
     15 C         -11.4098  -18.9169   24.0272 C.ar    1  UNL1        0.1555
     16 C         -10.4439  -19.9602   24.5052 C.3     1  UNL1        0.4349
     17 F          -9.4780  -21.0035   24.9833 F       1  UNL1       -0.1644
     18 F         -10.0142  -19.0520   25.6190 F       1  UNL1       -0.1644
     19 F         -10.8736  -20.8684   23.3914 F       1  UNL1       -0.1644
     20 C          -3.9399  -20.7599   20.5127 C.3     1  UNL1        0.0730
     21 N          -3.2279  -19.4571   20.7272 N.3     1  UNL1       -0.2726
     22 C          -2.0102  -18.9858   19.9889 C.3     1  UNL1        0.0721
     23 C          -1.6385  -17.6344   20.5231 C.3     1  UNL1        0.0190
     24 C          -2.6264  -17.2704   21.5915 C.3     1  UNL1        0.0201
     25 C          -2.0216  -15.9368   21.9165 C.3     1  UNL1        0.0061
     26 C          -3.2393  -16.4080   22.6549 C.3     1  UNL1        0.0237
     27 C          -3.6087  -18.3969   21.7177 C.3     1  UNL1        0.0724
     28 C          -4.2962  -16.1823   23.6950 C.ar    1  UNL1       -0.0225
     29 C          -5.4590  -15.2819   23.3997 C.ar    1  UNL1       -0.0043
     30 C          -6.5159  -15.0561   24.4399 C.ar    1  UNL1        0.0035
     31 C          -6.4100  -15.7307   25.7754 C.ar    1  UNL1        0.0714
     32 C          -5.2472  -16.6311   26.0707 C.ar    1  UNL1        0.0035
     33 C          -4.1903  -16.8569   25.0306 C.ar    1  UNL1       -0.0043
     34 C          -7.4668  -15.5050   26.8156 C.3     1  UNL1        0.4186
     35 F          -8.5238  -15.2792   27.8558 F       1  UNL1       -0.1659
     36 F          -6.4765  -14.7592   27.6599 F       1  UNL1       -0.1659
     37 F          -8.4572  -16.2508   25.9712 F       1  UNL1       -0.1659
@<TRIPOS>BOND
     1     4     5    1
     2     5     6   ar
     3     6     3    1
     4     3     2    1
     5     2     1    1
     6     1    20    1
     7    20    21    1
     8    21    22    1
     9    22    23    1
    10    24    23    1
    11    24    25    1
    12    25    26    1
    13    26    28    1
    14    28    29   ar
    15    29    30   ar
    16    30    31   ar
    17    31    34    1
    18    34    35    1
    19    34    36    1
    20    34    37    1
    21    31    32   ar
    22    32    33   ar
    23    24    27    1
    24     6     7   ar
    25     7     8   ar
    26     8     9   ar
    27     9    10    1
    28    10    11   ar
    29    11    12   ar
    30    12    13   ar
    31    13    14   ar
    32    14    15   ar
    33    15    16    1
    34    16    17    1
    35    16    18    1
    36    16    19    1
    37     9     5   ar
    38    15    10   ar
    39    27    21    1
    40    26    24    1
    41    33    28   ar
@<TRIPOS>MOLECULE
*****
 37 41 0 0 0
SMALL
GASTEIGER

@<TRIPOS>ATOM
      1 C          -5.1854  -20.8596   20.8280 C.3     1  UNL1        0.0294
      2 C          -6.4381  -20.6760   20.0234 C.3     1  UNL1        0.0666
      3 S          -7.0507  -19.3134   19.8897 S.3     1  UNL1       -0.0756
      4 C         -10.2462  -19.7499   20.3871 C.3     1  UNL1        0.1340
      5 N          -9.3228  -18.9389   21.2470 N.ar    1  UNL1       -0.2884
      6 C          -7.8540  -18.7383   21.0184 C.ar    1  UNL1        0.1932
      7 N          -7.3294  -17.8615   22.1167 N.ar    1  UNL1       -0.1221
      8 N          -8.4741  -17.5203   23.0241 N.ar    1  UNL1       -0.1282
      9 C          -9.7061  -18.1862   22.4866 C.ar    1  UNL1        0.1682
     10 C         -11.0801  -18.1123   23.0839 C.ar    1  UNL1        0.0576
     11 C         -11.4070  -18.9062   24.3138 C.ar    1  UNL1        0.0061
     12 C         -12.7810  -18.8323   24.9110 C.ar    1  UNL1        0.0208
     13 C         -13.8281  -17.9644   24.2782 C.ar    1  UNL1        0.0988
     14 N         -13.5012  -17.1704   23.0483 N.ar    1  UNL1       -0.2398
     15 C         -12.1271  -17.2444   22.4511 C.ar    1  UNL1        0.1555
     16 C         -11.8002  -16.4504   21.2212 C.3     1  UNL1        0.4349
     17 F         -11.4734  -15.6564   19.9913 F       1  UNL1       -0.1644
     18 F         -11.0772  -15.4422   22.0642 F       1  UNL1       -0.1644
     19 F         -12.5233  -17.4586   20.3782 F       1  UNL1       -0.1644
     20 C          -3.8471  -20.6025   20.2014 C.3     1  UNL1        0.0730
     21 N          -3.1166  -19.3246   20.4904 N.3     1  UNL1       -0.2726
     22 C          -1.8715  -18.8462   19.8042 C.3     1  UNL1        0.0721
     23 C          -1.4885  -17.5267   20.4061 C.3     1  UNL1        0.0190
     24 C          -2.4968  -17.1897   21.4642 C.3     1  UNL1        0.0201
     25 C          -1.8758  -15.8836   21.8623 C.3     1  UNL1        0.0061
     26 C          -3.1209  -16.3620   22.5485 C.3     1  UNL1        0.0237
     27 C          -3.5031  -18.3009   21.5163 C.3     1  UNL1        0.0724
     28 C          -4.2001  -16.1604   23.5706 C.ar    1  UNL1       -0.0225
     29 C          -4.1372  -16.8876   24.8810 C.ar    1  UNL1       -0.0043
     30 C          -5.2164  -16.6860   25.9031 C.ar    1  UNL1        0.0035
     31 C          -6.3584  -15.7572   25.6148 C.ar    1  UNL1        0.0714
     32 C          -6.4212  -15.0300   24.3043 C.ar    1  UNL1        0.0035
     33 C          -5.3420  -15.2316   23.2822 C.ar    1  UNL1       -0.0043
     34 C          -7.4375  -15.5556   26.6369 C.3     1  UNL1        0.4186
     35 F          -8.5167  -15.3540   27.6591 F       1  UNL1       -0.1659
     36 F          -8.3687  -15.0821   25.5604 F       1  UNL1       -0.1659
     37 F          -6.5064  -16.0290   27.7134 F       1  UNL1       -0.1659
@<TRIPOS>BOND
     1     4     5    1
     2     5     6   ar
     3     6     3    1
     4     3     2    1
     5     2     1    1
     6     1    20    1
     7    20    21    1
     8    21    22    1
     9    22    23    1
    10    24    23    1
    11    24    25    1
    12    25    26    1
    13    26    28    1
    14    28    29   ar
    15    29    30   ar
    16    30    31   ar
    17    31    34    1
    18    34    35    1
    19    34    36    1
    20    34    37    1
    21    31    32   ar
    22    32    33   ar
    23    24    27    1
    24     6     7   ar
    25     7     8   ar
    26     8     9   ar
    27     9    10    1
    28    10    11   ar
    29    11    12   ar
    30    12    13   ar
    31    13    14   ar
    32    14    15   ar
    33    15    16    1
    34    16    17    1
    35    16    18    1
    36    16    19    1
    37     9     5   ar
    38    15    10   ar
    39    27    21    1
    40    26    24    1
    41    33    28   ar
@<TRIPOS>MOLECULE
*****
 37 41 0 0 0
SMALL
GASTEIGER

@<TRIPOS>ATOM
      1 C          -3.0457  -19.6563   22.0694 C.3     1  UNL1        0.0294
      2 C          -2.2631  -18.4783   21.5695 C.3     1  UNL1        0.0666
      3 S          -2.0452  -17.2905   22.4592 S.3     1  UNL1       -0.0756
      4 C          -3.9417  -17.8457   25.0563 C.3     1  UNL1        0.1340
      5 N          -4.0843  -16.7098   24.0871 N.ar    1  UNL1       -0.2884
      6 C          -3.2126  -16.4546   22.8933 C.ar    1  UNL1        0.1932
      7 N          -3.7132  -15.2167   22.2099 N.ar    1  UNL1       -0.1221
      8 N          -4.8943  -14.7068   22.9813 N.ar    1  UNL1       -0.1282
      9 C          -5.1238  -15.6295   24.1414 C.ar    1  UNL1        0.1682
     10 C          -6.2030  -15.4956   25.1745 C.ar    1  UNL1        0.0576
     11 C          -5.8460  -15.1668   26.5938 C.ar    1  UNL1        0.0061
     12 C          -6.9253  -15.0329   27.6269 C.ar    1  UNL1        0.0208
     13 C          -8.3616  -15.2278   27.2406 C.ar    1  UNL1        0.0988
     14 N          -8.7186  -15.5566   25.8213 N.ar    1  UNL1       -0.2398
     15 C          -7.6392  -15.6905   24.7882 C.ar    1  UNL1        0.1555
     16 C          -7.9962  -16.0194   23.3689 C.3     1  UNL1        0.4349
     17 F          -8.3532  -16.3482   21.9496 F       1  UNL1       -0.1644
     18 F          -7.9512  -14.5613   23.0198 F       1  UNL1       -0.1644
     19 F          -8.0412  -17.4775   23.7181 F       1  UNL1       -0.1644
     20 C          -4.5182  -19.5253   22.3236 C.3     1  UNL1        0.0730
     21 N          -5.4841  -19.5693   21.1768 N.3     1  UNL1       -0.2726
     22 C          -5.1304  -19.7745   19.7336 C.3     1  UNL1        0.0721
     23 C          -6.4010  -19.7479   18.9368 C.3     1  UNL1        0.0190
     24 C          -7.5399  -19.5262   19.8875 C.3     1  UNL1        0.0201
     25 C          -8.6195  -19.5468   18.8464 C.3     1  UNL1        0.0061
     26 C          -8.9731  -19.3416   20.2896 C.3     1  UNL1        0.0237
     27 C          -6.9732  -19.4158   21.2719 C.3     1  UNL1        0.0724
     28 C         -10.0048  -19.1165   21.3550 C.ar    1  UNL1       -0.0225
     29 C         -11.0659  -18.0737   21.1632 C.ar    1  UNL1       -0.0043
     30 C         -12.0975  -17.8486   22.2285 C.ar    1  UNL1        0.0035
     31 C         -12.0680  -18.6663   23.4857 C.ar    1  UNL1        0.0714
     32 C         -11.0070  -19.7091   23.6775 C.ar    1  UNL1        0.0035
     33 C          -9.9753  -19.9342   22.6121 C.ar    1  UNL1       -0.0043
     34 C         -13.0997  -18.4413   24.5511 C.3     1  UNL1        0.4186
     35 F         -14.1313  -18.2162   25.6165 F       1  UNL1       -0.1659
     36 F         -14.0424  -17.8914   23.5221 F       1  UNL1       -0.1659
     37 F         -12.1569  -18.9911   25.5801 F       1  UNL1       -0.1659
@<TRIPOS>BOND
     1     4     5    1
     2     5     6   ar
     3     6     3    1
     4     3     2    1
     5     2     1    1
     6     1    20    1
     7    20    21    1
     8    21    22    1
     9    22    23    1
    10    24    23    1
    11    24    25    1
    12    25    26    1
    13    26    28    1
    14    28    29   ar
    15    29    30   ar
    16    30    31   ar
    17    31    34    1
    18    34    35    1
    19    34    36    1
    20    34    37    1
    21    31    32   ar
    22    32    33   ar
    23    24    27    1
    24     6     7   ar
    25     7     8   ar
    26     8     9   ar
    27     9    10    1
    28    10    11   ar
    29    11    12   ar
    30    12    13   ar
    31    13    14   ar
    32    14    15   ar
    33    15    16    1
    34    16    17    1
    35    16    18    1
    36    16    19    1
    37     9     5   ar
    38    15    10   ar
    39    27    21    1
    40    26    24    1
    41    33    28   ar
@<TRIPOS>MOLECULE
*****
 37 41 0 0 0
SMALL
GASTEIGER

@<TRIPOS>ATOM
      1 C          -3.9201  -16.6493   23.9022 C.3     1  UNL1        0.0294
      2 C          -4.6347  -15.3315   23.8508 C.3     1  UNL1        0.0666
      3 S          -6.0171  -15.2053   24.4191 S.3     1  UNL1       -0.0756
      4 C          -9.0452  -15.5034   25.5985 C.3     1  UNL1        0.1340
      5 N          -8.5698  -15.9817   24.2586 N.ar    1  UNL1       -0.2884
      6 C          -7.1779  -15.8447   23.7165 C.ar    1  UNL1        0.1932
      7 N          -7.1507  -16.4593   22.3485 N.ar    1  UNL1       -0.1221
      8 N          -8.5257  -16.9762   22.0451 N.ar    1  UNL1       -0.1282
      9 C          -9.4029  -16.6811   23.2256 C.ar    1  UNL1        0.1682
     10 C         -10.8575  -17.0249   23.3511 C.ar    1  UNL1        0.0576
     11 C         -11.8905  -16.1737   22.6741 C.ar    1  UNL1        0.0061
     12 C         -13.3452  -16.5175   22.7996 C.ar    1  UNL1        0.0208
     13 C         -13.7668  -17.7126   23.6022 C.ar    1  UNL1        0.0988
     14 N         -12.7338  -18.5639   24.2792 N.ar    1  UNL1       -0.2398
     15 C         -11.2791  -18.2200   24.1536 C.ar    1  UNL1        0.1555
     16 C         -10.2461  -19.0712   24.8306 C.3     1  UNL1        0.4349
     17 F          -9.2132  -19.9224   25.5077 F       1  UNL1       -0.1644
     18 F         -10.4086  -20.1152   23.7659 F       1  UNL1       -0.1644
     19 F         -10.0837  -18.0272   25.8954 F       1  UNL1       -0.1644
     20 C          -2.8099  -16.9388   22.9359 C.3     1  UNL1        0.0730
     21 N          -2.9060  -18.1187   22.0147 N.3     1  UNL1       -0.2726
     22 C          -1.7525  -18.9054   21.4664 C.3     1  UNL1        0.0721
     23 C          -2.3061  -19.9919   20.5929 C.3     1  UNL1        0.0190
     24 C          -3.8017  -19.8767   20.6014 C.3     1  UNL1        0.0201
     25 C          -4.0536  -21.0381   19.6861 C.3     1  UNL1        0.0061
     26 C          -5.2071  -20.2513   20.2344 C.3     1  UNL1        0.0237
     27 C          -4.1724  -18.7190   21.4801 C.3     1  UNL1        0.0724
     28 C          -6.6843  -20.0134   20.3391 C.ar    1  UNL1       -0.0225
     29 C          -7.3800  -20.1845   21.6569 C.ar    1  UNL1       -0.0043
     30 C          -8.8573  -19.9465   21.7616 C.ar    1  UNL1        0.0035
     31 C          -9.6389  -19.5375   20.5484 C.ar    1  UNL1        0.0714
     32 C          -8.9432  -19.3664   19.2306 C.ar    1  UNL1        0.0035
     33 C          -7.4659  -19.6044   19.1259 C.ar    1  UNL1       -0.0043
     34 C         -11.1162  -19.2995   20.6531 C.3     1  UNL1        0.4186
     35 F         -12.5936  -19.0615   20.7578 F       1  UNL1       -0.1659
     36 F         -11.2796  -20.6194   21.3468 F       1  UNL1       -0.1659
     37 F         -10.9527  -17.9797   19.9594 F       1  UNL1       -0.1659
@<TRIPOS>BOND
     1     4     5    1
     2     5     6   ar
     3     6     3    1
     4     3     2    1
     5     2     1    1
     6     1    20    1
     7    20    21    1
     8    21    22    1
     9    22    23    1
    10    24    23    1
    11    24    25    1
    12    25    26    1
    13    26    28    1
    14    28    29   ar
    15    29    30   ar
    16    30    31   ar
    17    31    34    1
    18    34    35    1
    19    34    36    1
    20    34    37    1
    21    31    32   ar
    22    32    33   ar
    23    24    27    1
    24     6     7   ar
    25     7     8   ar
    26     8     9   ar
    27     9    10    1
    28    10    11   ar
    29    11    12   ar
    30    12    13   ar
    31    13    14   ar
    32    14    15   ar
    33    15    16    1
    34    16    17    1
    35    16    18    1
    36    16    19    1
    37     9     5   ar
    38    15    10   ar
    39    27    21    1
    40    26    24    1
    41    33    28   ar
@<TRIPOS>MOLECULE
*****
 37 41 0 0 0
SMALL
GASTEIGER

@<TRIPOS>ATOM
      1 C          -3.8600  -15.3547   22.7287 C.3     1  UNL1        0.0294
      2 C          -4.6263  -16.0536   23.8124 C.3     1  UNL1        0.0666
      3 S          -5.9855  -15.5584   24.2088 S.3     1  UNL1       -0.0756
      4 C          -8.8365  -16.2863   25.6199 C.3     1  UNL1        0.1340
      5 N          -8.5171  -16.4150   24.1600 N.ar    1  UNL1       -0.2884
      6 C          -7.2066  -16.0804   23.5113 C.ar    1  UNL1        0.1932
      7 N          -7.3316  -16.3594   22.0428 N.ar    1  UNL1       -0.1221
      8 N          -8.7194  -16.8665   21.7839 N.ar    1  UNL1       -0.1282
      9 C          -9.4521  -16.9009   23.0923 C.ar    1  UNL1        0.1682
     10 C         -10.8706  -17.3434   23.2971 C.ar    1  UNL1        0.0576
     11 C         -11.2400  -18.1380   24.5145 C.ar    1  UNL1        0.0061
     12 C         -12.6586  -18.5806   24.7193 C.ar    1  UNL1        0.0208
     13 C         -13.7077  -18.2283   23.7067 C.ar    1  UNL1        0.0988
     14 N         -13.3383  -17.4337   22.4893 N.ar    1  UNL1       -0.2398
     15 C         -11.9197  -16.9912   22.2845 C.ar    1  UNL1        0.1555
     16 C         -11.5503  -16.1965   21.0672 C.3     1  UNL1        0.4349
     17 F         -11.1809  -15.4018   19.8498 F       1  UNL1       -0.1644
     18 F         -11.8201  -17.3933   20.2041 F       1  UNL1       -0.1644
     19 F         -11.2805  -14.9997   21.9303 F       1  UNL1       -0.1644
     20 C          -2.5550  -15.9183   22.2498 C.3     1  UNL1        0.0730
     21 N          -2.5397  -17.1409   21.3809 N.3     1  UNL1       -0.2726
     22 C          -1.3502  -17.6871   20.6483 C.3     1  UNL1        0.0721
     23 C          -1.7867  -18.9157   19.9067 C.3     1  UNL1        0.0190
     24 C          -3.2459  -19.1288   20.1809 C.3     1  UNL1        0.0201
     25 C          -3.3833  -20.3670   19.3454 C.3     1  UNL1        0.0061
     26 C          -4.5728  -19.8207   20.0780 C.3     1  UNL1        0.0237
     27 C          -3.7113  -18.0319   21.0920 C.3     1  UNL1        0.0724
     28 C          -6.0257  -19.9048   20.4415 C.ar    1  UNL1       -0.0225
     29 C          -6.4295  -20.1558   21.8642 C.ar    1  UNL1       -0.0043
     30 C          -7.8823  -20.2399   22.2277 C.ar    1  UNL1        0.0035
     31 C          -8.9313  -20.0730   21.1686 C.ar    1  UNL1        0.0714
     32 C          -8.5275  -19.8221   19.7459 C.ar    1  UNL1        0.0035
     33 C          -7.0747  -19.7380   19.3824 C.ar    1  UNL1       -0.0043
     34 C         -10.3842  -20.1571   21.5322 C.3     1  UNL1        0.4186
     35 F         -11.8371  -20.2412   21.8957 F       1  UNL1       -0.1659
     36 F         -10.0110  -20.5050   22.9427 F       1  UNL1       -0.1659
     37 F         -10.7573  -19.8092   20.1216 F       1  UNL1       -0.1659
@<TRIPOS>BOND
     1     4     5    1
     2     5     6   ar
     3     6     3    1
     4     3     2    1
     5     2     1    1
     6     1    20    1
     7    20    21    1
     8    21    22    1
     9    22    23    1
    10    24    23    1
    11    24    25    1
    12    25    26    1
    13    26    28    1
    14    28    29   ar
    15    29    30   ar
    16    30    31   ar
    17    31    34    1
    18    34    35    1
    19    34    36    1
    20    34    37    1
    21    31    32   ar
    22    32    33   ar
    23    24    27    1
    24     6     7   ar
    25     7     8   ar
    26     8     9   ar
    27     9    10    1
    28    10    11   ar
    29    11    12   ar
    30    12    13   ar
    31    13    14   ar
    32    14    15   ar
    33    15    16    1
    34    16    17    1
    35    16    18    1
    36    16    19    1
    37     9     5   ar
    38    15    10   ar
    39    27    21    1
    40    26    24    1
    41    33    28   ar
@<TRIPOS>MOLECULE
*****
 37 41 0 0 0
SMALL
GASTEIGER

@<TRIPOS>ATOM
      1 C         -18.8720   -4.9273   19.3477 C.3     1  UNL1        0.0294
      2 C         -19.7407   -3.7052   19.3020 C.3     1  UNL1        0.0666
      3 S         -19.2128   -2.4315   18.7115 S.3     1  UNL1       -0.0756
      4 C         -16.3857   -2.9479   17.1655 C.3     1  UNL1        0.1340
      5 N         -16.5709   -2.1476   18.4205 N.ar    1  UNL1       -0.2884
      6 C         -17.8704   -1.9102   19.1312 C.ar    1  UNL1        0.1932
      7 N         -17.5918   -1.0600   20.3352 N.ar    1  UNL1       -0.1221
      8 N         -16.1201   -0.7719   20.3686 N.ar    1  UNL1       -0.1282
      9 C         -15.4891   -1.4441   19.1853 C.ar    1  UNL1        0.1682
     10 C         -14.0322   -1.4174   18.8293 C.ar    1  UNL1        0.0576
     11 C         -13.4606   -0.2400   18.0965 C.ar    1  UNL1        0.0061
     12 C         -12.0037   -0.2133   17.7405 C.ar    1  UNL1        0.0208
     13 C         -11.1184   -1.3642   18.1174 C.ar    1  UNL1        0.0988
     14 N         -11.6900   -2.5415   18.8503 N.ar    1  UNL1       -0.2398
     15 C         -13.1469   -2.5681   19.2063 C.ar    1  UNL1        0.1555
     16 C         -13.7185   -3.7455   19.9391 C.3     1  UNL1        0.4349
     17 F         -14.2900   -4.9228   20.6720 F       1  UNL1       -0.1644
     18 F         -13.3824   -3.0940   21.2478 F       1  UNL1       -0.1644
     19 F         -14.0546   -4.3969   18.6304 F       1  UNL1       -0.1644
     20 C         -18.6301   -5.7226   18.0991 C.3     1  UNL1        0.0730
     21 N         -17.8610   -7.0087   18.1664 N.3     1  UNL1       -0.2726
     22 C         -18.4400   -8.3704   18.4128 C.3     1  UNL1        0.0721
     23 C         -17.3147   -9.3621   18.3977 C.3     1  UNL1        0.0190
     24 C         -16.0403   -8.6134   18.1420 C.3     1  UNL1        0.0201
     25 C         -15.1422   -9.8141   18.1822 C.3     1  UNL1        0.0061
     26 C         -14.5633   -8.4525   17.9358 C.3     1  UNL1        0.0237
     27 C         -16.3780   -7.1589   17.9991 C.3     1  UNL1        0.0724
     28 C         -13.3763   -7.5734   17.6745 C.ar    1  UNL1       -0.0225
     29 C         -12.4951   -7.1457   18.8106 C.ar    1  UNL1       -0.0043
     30 C         -11.3081   -6.2667   18.5493 C.ar    1  UNL1        0.0035
     31 C         -11.0023   -5.8153   17.1519 C.ar    1  UNL1        0.0714
     32 C         -11.8835   -6.2430   16.0158 C.ar    1  UNL1        0.0035
     33 C         -13.0704   -7.1220   16.2771 C.ar    1  UNL1       -0.0043
     34 C          -9.8153   -4.9362   16.8906 C.3     1  UNL1        0.4186
     35 F          -8.6282   -4.0572   16.6293 F       1  UNL1       -0.1659
     36 F         -10.6489   -4.0802   15.9838 F       1  UNL1       -0.1659
     37 F          -8.9817   -5.7923   17.7974 F       1  UNL1       -0.1659
@<TRIPOS>BOND
     1     4     5    1
     2     5     6   ar
     3     6     3    1
     4     3     2    1
     5     2     1    1
     6     1    20    1
     7    20    21    1
     8    21    22    1
     9    22    23    1
    10    24    23    1
    11    24    25    1
    12    25    26    1
    13    26    28    1
    14    28    29   ar
    15    29    30   ar
    16    30    31   ar
    17    31    34    1
    18    34    35    1
    19    34    36    1
    20    34    37    1
    21    31    32   ar
    22    32    33   ar
    23    24    27    1
    24     6     7   ar
    25     7     8   ar
    26     8     9   ar
    27     9    10    1
    28    10    11   ar
    29    11    12   ar
    30    12    13   ar
    31    13    14   ar
    32    14    15   ar
    33    15    16    1
    34    16    17    1
    35    16    18    1
    36    16    19    1
    37     9     5   ar
    38    15    10   ar
    39    27    21    1
    40    26    24    1
    41    33    28   ar
@<TRIPOS>MOLECULE
*****
 37 41 0 0 0
SMALL
GASTEIGER

@<TRIPOS>ATOM
      1 C          -3.0067  -18.7938   22.7550 C.3     1  UNL1        0.0294
      2 C          -2.5635  -19.4653   21.4890 C.3     1  UNL1        0.0666
      3 S          -3.5790  -20.0711   20.5662 S.3     1  UNL1       -0.0756
      4 C          -5.9961  -21.2378   22.4225 C.3     1  UNL1        0.1340
      5 N          -6.1064  -20.1139   21.4353 N.ar    1  UNL1       -0.2884
      6 C          -4.9954  -19.5777   20.5820 C.ar    1  UNL1        0.1932
      7 N          -5.5494  -18.4613   19.7473 N.ar    1  UNL1       -0.1221
      8 N          -7.0029  -18.3076   20.0847 N.ar    1  UNL1       -0.1282
      9 C          -7.3472  -19.3290   21.1279 C.ar    1  UNL1        0.1682
     10 C          -8.6954  -19.5301   21.7539 C.ar    1  UNL1        0.0576
     11 C          -8.8397  -19.5106   23.2468 C.ar    1  UNL1        0.0061
     12 C         -10.1879  -19.7117   23.8727 C.ar    1  UNL1        0.0208
     13 C         -11.3919  -19.9323   23.0056 C.ar    1  UNL1        0.0988
     14 N         -11.2477  -19.9518   21.5127 N.ar    1  UNL1       -0.2398
     15 C          -9.8994  -19.7506   20.8868 C.ar    1  UNL1        0.1555
     16 C          -9.7552  -19.7702   19.3939 C.3     1  UNL1        0.4349
     17 F          -9.6109  -19.7897   17.9010 F       1  UNL1       -0.1644
     18 F         -10.3187  -18.3820   19.3213 F       1  UNL1       -0.1644
     19 F          -9.1916  -21.1583   19.4665 F       1  UNL1       -0.1644
     20 C          -3.4672  -17.3666   22.7255 C.3     1  UNL1        0.0730
     21 N          -4.3882  -16.8534   23.7925 N.3     1  UNL1       -0.2726
     22 C          -4.0168  -16.5761   25.2191 C.3     1  UNL1        0.0721
     23 C          -5.2414  -16.0788   25.9284 C.3     1  UNL1        0.0190
     24 C          -6.3695  -16.0488   24.9403 C.3     1  UNL1        0.0201
     25 C          -7.4034  -15.5354   25.8982 C.3     1  UNL1        0.0061
     26 C          -7.7747  -15.8128   24.4716 C.3     1  UNL1        0.0237
     27 C          -5.8422  -16.5276   23.6202 C.3     1  UNL1        0.0724
     28 C          -8.8004  -15.8366   23.3773 C.ar    1  UNL1       -0.0225
     29 C         -10.2042  -16.2736   23.6746 C.ar    1  UNL1       -0.0043
     30 C         -11.2299  -16.2974   22.5804 C.ar    1  UNL1        0.0035
     31 C         -10.8517  -15.8844   21.1888 C.ar    1  UNL1        0.0714
     32 C          -9.4479  -15.4474   20.8916 C.ar    1  UNL1        0.0035
     33 C          -8.4222  -15.4236   21.9858 C.ar    1  UNL1       -0.0043
     34 C         -11.8774  -15.9082   20.0946 C.3     1  UNL1        0.4186
     35 F         -12.9031  -15.9321   19.0003 F       1  UNL1       -0.1659
     36 F         -10.9359  -15.1627   19.1958 F       1  UNL1       -0.1659
     37 F         -12.8189  -16.6537   20.9933 F       1  UNL1       -0.1659
@<TRIPOS>BOND
     1     4     5    1
     2     5     6   ar
     3     6     3    1
     4     3     2    1
     5     2     1    1
     6     1    20    1
     7    20    21    1
     8    21    22    1
     9    22    23    1
    10    24    23    1
    11    24    25    1
    12    25    26    1
    13    26    28    1
    14    28    29   ar
    15    29    30   ar
    16    30    31   ar
    17    31    34    1
    18    34    35    1
    19    34    36    1
    20    34    37    1
    21    31    32   ar
    22    32    33   ar
    23    24    27    1
    24     6     7   ar
    25     7     8   ar
    26     8     9   ar
    27     9    10    1
    28    10    11   ar
    29    11    12   ar
    30    12    13   ar
    31    13    14   ar
    32    14    15   ar
    33    15    16    1
    34    16    17    1
    35    16    18    1
    36    16    19    1
    37     9     5   ar
    38    15    10   ar
    39    27    21    1
    40    26    24    1
    41    33    28   ar
@<TRIPOS>MOLECULE
*****
 37 41 0 0 0
SMALL
GASTEIGER

@<TRIPOS>ATOM
      1 C          -5.4322  -16.0736   25.1179 C.3     1  UNL1        0.0294
      2 C          -5.8741  -15.6056   26.4728 C.3     1  UNL1        0.0666
      3 S          -7.3098  -15.7468   26.8836 S.3     1  UNL1       -0.0756
      4 C          -8.4744  -14.5438   24.0825 C.3     1  UNL1        0.1340
      5 N          -8.8228  -15.8732   24.6837 N.ar    1  UNL1       -0.2884
      6 C          -8.2875  -16.4261   25.9712 C.ar    1  UNL1        0.1932
      7 N          -8.9016  -17.7777   26.1861 N.ar    1  UNL1       -0.1221
      8 N          -9.8165  -18.0600   25.0314 N.ar    1  UNL1       -0.1282
      9 C          -9.7678  -16.8830   24.1028 C.ar    1  UNL1        0.1682
     10 C         -10.5302  -16.7408   22.8189 C.ar    1  UNL1        0.0576
     11 C          -9.8948  -16.0648   21.6402 C.ar    1  UNL1        0.0061
     12 C         -10.6572  -15.9225   20.3563 C.ar    1  UNL1        0.0208
     13 C         -12.0551  -16.4564   20.2511 C.ar    1  UNL1        0.0988
     14 N         -12.6905  -17.1325   21.4297 N.ar    1  UNL1       -0.2398
     15 C         -11.9280  -17.2746   22.7136 C.ar    1  UNL1        0.1555
     16 C         -12.5635  -17.9507   23.8923 C.3     1  UNL1        0.4349
     17 F         -13.1989  -18.6267   25.0709 F       1  UNL1       -0.1644
     18 F         -13.4391  -16.7520   24.1077 F       1  UNL1       -0.1644
     19 F         -11.6878  -19.1493   23.6769 F       1  UNL1       -0.1644
     20 C          -4.0058  -16.4795   24.8929 C.3     1  UNL1        0.0730
     21 N          -3.6562  -17.3915   23.7545 N.3     1  UNL1       -0.2726
     22 C          -2.2707  -17.7671   23.3192 C.3     1  UNL1        0.0721
     23 C          -2.3890  -18.6958   22.1472 C.3     1  UNL1        0.0190
     24 C          -3.8475  -18.8942   21.8582 C.3     1  UNL1        0.0201
     25 C          -3.6522  -19.8219   20.6959 C.3     1  UNL1        0.0061
     26 C          -5.0377  -19.4464   21.1312 C.3     1  UNL1        0.0237
     27 C          -4.6306  -18.0881   22.8516 C.3     1  UNL1        0.0724
     28 C          -6.5247  -19.5483   20.9628 C.ar    1  UNL1       -0.0225
     29 C          -7.4024  -19.7596   22.1608 C.ar    1  UNL1       -0.0043
     30 C          -8.8894  -19.8616   21.9924 C.ar    1  UNL1        0.0035
     31 C          -9.4987  -19.7522   20.6261 C.ar    1  UNL1        0.0714
     32 C          -8.6210  -19.5409   19.4282 C.ar    1  UNL1        0.0035
     33 C          -7.1340  -19.4389   19.5965 C.ar    1  UNL1       -0.0043
     34 C         -10.9857  -19.8541   20.4577 C.3     1  UNL1        0.4186
     35 F         -12.4728  -19.9561   20.2894 F       1  UNL1       -0.1659
     36 F         -10.8868  -19.1319   19.1468 F       1  UNL1       -0.1659
     37 F         -11.0846  -20.5764   21.7686 F       1  UNL1       -0.1659
@<TRIPOS>BOND
     1     4     5    1
     2     5     6   ar
     3     6     3    1
     4     3     2    1
     5     2     1    1
     6     1    20    1
     7    20    21    1
     8    21    22    1
     9    22    23    1
    10    24    23    1
    11    24    25    1
    12    25    26    1
    13    26    28    1
    14    28    29   ar
    15    29    30   ar
    16    30    31   ar
    17    31    34    1
    18    34    35    1
    19    34    36    1
    20    34    37    1
    21    31    32   ar
    22    32    33   ar
    23    24    27    1
    24     6     7   ar
    25     7     8   ar
    26     8     9   ar
    27     9    10    1
    28    10    11   ar
    29    11    12   ar
    30    12    13   ar
    31    13    14   ar
    32    14    15   ar
    33    15    16    1
    34    16    17    1
    35    16    18    1
    36    16    19    1
    37     9     5   ar
    38    15    10   ar
    39    27    21    1
    40    26    24    1
    41    33    28   ar
@<TRIPOS>MOLECULE
*****
 37 41 0 0 0
SMALL
GASTEIGER

@<TRIPOS>ATOM
      1 C           0.5976    2.8402   19.0051 C.3     1  UNL1        0.0294
      2 C           1.8028    2.0312   18.6268 C.3     1  UNL1        0.0666
      3 S           1.6815    0.5481   18.4382 S.3     1  UNL1       -0.0756
      4 C           3.4634   -0.8179   20.8064 C.3     1  UNL1        0.1340
      5 N           3.7318   -0.9144   19.3338 N.ar    1  UNL1       -0.2884
      6 C           2.9128   -0.2865   18.2452 C.ar    1  UNL1        0.1932
      7 N           3.5412   -0.6398   16.9298 N.ar    1  UNL1       -0.1221
      8 N           4.7487   -1.4860   17.2054 N.ar    1  UNL1       -0.1282
      9 C           4.8665   -1.6558   18.6911 C.ar    1  UNL1        0.1682
     10 C           5.9320   -2.4308   19.4083 C.ar    1  UNL1        0.0576
     11 C           7.2720   -1.8061   19.6612 C.ar    1  UNL1        0.0061
     12 C           8.3375   -2.5811   20.3783 C.ar    1  UNL1        0.0208
     13 C           8.0627   -3.9809   20.8425 C.ar    1  UNL1        0.0988
     14 N           6.7226   -4.6055   20.5896 N.ar    1  UNL1       -0.2398
     15 C           5.6572   -3.8304   19.8724 C.ar    1  UNL1        0.1555
     16 C           4.3171   -4.4551   19.6195 C.3     1  UNL1        0.4349
     17 F           2.9771   -5.0797   19.3666 F       1  UNL1       -0.1644
     18 F           3.8670   -4.0443   20.9901 F       1  UNL1       -0.1644
     19 F           4.7673   -4.8659   18.2489 F       1  UNL1       -0.1644
     20 C           0.0173    3.8221   18.0309 C.3     1  UNL1        0.0730
     21 N          -1.4673    3.8880   17.8269 N.3     1  UNL1       -0.2726
     22 C          -2.1766    3.8841   16.5052 C.3     1  UNL1        0.0721
     23 C          -3.6509    3.9630   16.7702 C.3     1  UNL1        0.0190
     24 C          -3.8527    4.0157   18.2557 C.3     1  UNL1        0.0201
     25 C          -5.3503    4.0867   18.2080 C.3     1  UNL1        0.0061
     26 C          -4.6410    4.0906   19.5297 C.3     1  UNL1        0.0237
     27 C          -2.5032    3.9693   18.9087 C.3     1  UNL1        0.0724
     28 C          -4.6865    4.1361   21.0283 C.ar    1  UNL1       -0.0225
     29 C          -4.6367    5.4554   21.7404 C.ar    1  UNL1       -0.0043
     30 C          -4.6823    5.5009   23.2390 C.ar    1  UNL1        0.0035
     31 C          -4.7775    4.2271   24.0255 C.ar    1  UNL1        0.0714
     32 C          -4.8272    2.9079   23.3133 C.ar    1  UNL1        0.0035
     33 C          -4.7817    2.8624   21.8147 C.ar    1  UNL1       -0.0043
     34 C          -4.8230    4.2726   25.5241 C.3     1  UNL1        0.4186
     35 F          -4.8686    4.3182   27.0228 F       1  UNL1       -0.1659
     36 F          -3.3934    3.8222   25.5812 F       1  UNL1       -0.1659
     37 F          -6.2526    4.7230   25.4670 F       1  UNL1       -0.1659
@<TRIPOS>BOND
     1     4     5    1
     2     5     6   ar
     3     6     3    1
     4     3     2    1
     5     2     1    1
     6     1    20    1
     7    20    21    1
     8    21    22    1
     9    22    23    1
    10    24    23    1
    11    24    25    1
    12    25    26    1
    13    26    28    1
    14    28    29   ar
    15    29    30   ar
    16    30    31   ar
    17    31    34    1
    18    34    35    1
    19    34    36    1
    20    34    37    1
    21    31    32   ar
    22    32    33   ar
    23    24    27    1
    24     6     7   ar
    25     7     8   ar
    26     8     9   ar
    27     9    10    1
    28    10    11   ar
    29    11    12   ar
    30    12    13   ar
    31    13    14   ar
    32    14    15   ar
    33    15    16    1
    34    16    17    1
    35    16    18    1
    36    16    19    1
    37     9     5   ar
    38    15    10   ar
    39    27    21    1
    40    26    24    1
    41    33    28   ar
