@<TRIPOS>MOLECULE
*****
 17 18 0 0 0
SMALL
GASTEIGER

@<TRIPOS>ATOM
      1 C         -10.2105  -18.5578   23.8788 C.ar    1  UNL1        0.1386
      2 C          -9.7510  -19.9083   23.4151 C.ar    1  UNL1        0.0384
      3 C          -8.4475  -20.0476   22.6862 C.ar    1  UNL1        0.0207
      4 C          -7.6034  -18.8364   22.4208 C.ar    1  UNL1        0.0657
      5 C          -8.0629  -17.4859   22.8844 C.ar    1  UNL1        0.0207
      6 C          -9.3664  -17.3466   23.6134 C.ar    1  UNL1        0.0384
      7 N          -6.2999  -18.9757   21.6918 N.ar    1  UNL1       -0.2868
      8 C          -6.1100  -18.9127   20.2052 C.ar    1  UNL1        0.1825
      9 N          -4.6501  -19.1005   19.9160 N.ar    1  UNL1       -0.2280
     10 C          -3.9378  -19.2796   21.2239 C.ar    1  UNL1        0.0786
     11 C          -2.4646  -19.4976   21.4029 C.3     1  UNL1        0.0538
     12 C          -4.9575  -19.2025   22.3214 C.ar    1  UNL1        0.0962
     13 O         -11.5140  -18.4185   24.6078 O.3     1  UNL1       -0.4755
     14 C         -12.7794  -18.1713   23.8412 C.3     1  UNL1        0.2054
     15 C         -12.7741  -17.2402   22.6652 C.3     1  UNL1        0.0473
     16 C         -11.4503  -17.2118   20.4298 C.3     1  UNL1        0.0001
     17 C         -12.5458  -17.7782   21.2836 C.3     1  UNL1        0.0038
@<TRIPOS>BOND
     1    16    17    1
     2    17    15    1
     3    15    14    1
     4    14    13    1
     5    13     1    1
     6     1     2   ar
     7     2     3   ar
     8     3     4   ar
     9     4     7    1
    10     7     8   ar
    11     8     9   ar
    12     9    10   ar
    13    10    11    1
    14    10    12   ar
    15     4     5   ar
    16     5     6   ar
    17     6     1   ar
    18    12     7   ar
@<TRIPOS>MOLECULE
*****
 17 18 0 0 0
SMALL
GASTEIGER

@<TRIPOS>ATOM
      1 C          -6.5565  -20.0276   20.5909 C.ar    1  UNL1        0.1386
      2 C          -6.9257  -19.7069   22.0089 C.ar    1  UNL1        0.0384
      3 C          -8.3067  -19.2191   22.3324 C.ar    1  UNL1        0.0207
      4 C          -9.3187  -19.0520   21.2379 C.ar    1  UNL1        0.0657
      5 C          -8.9496  -19.3726   19.8199 C.ar    1  UNL1        0.0207
      6 C          -7.5685  -19.8605   19.4964 C.ar    1  UNL1        0.0384
      7 N         -10.6998  -18.5641   21.5615 N.ar    1  UNL1       -0.2868
      8 C         -11.6513  -17.9113   20.6032 C.ar    1  UNL1        0.1825
      9 N         -12.9114  -17.5872   21.3495 N.ar    1  UNL1       -0.2280
     10 C         -12.7387  -18.0397   22.7692 C.ar    1  UNL1        0.0786
     11 C         -13.7545  -17.9111   23.8654 C.3     1  UNL1        0.0538
     12 C         -11.3718  -18.6435   22.9001 C.ar    1  UNL1        0.0962
     13 O          -5.1755  -20.5154   20.2673 O.3     1  UNL1       -0.4755
     14 C          -4.0207  -19.5581   20.2761 C.3     1  UNL1        0.2054
     15 C          -2.8159  -19.8440   21.1226 C.3     1  UNL1        0.0473
     16 C          -3.1341  -17.9657   22.8892 C.3     1  UNL1        0.0001
     17 C          -2.2378  -18.7673   21.9924 C.3     1  UNL1        0.0038
@<TRIPOS>BOND
     1    16    17    1
     2    17    15    1
     3    15    14    1
     4    14    13    1
     5    13     1    1
     6     1     2   ar
     7     2     3   ar
     8     3     4   ar
     9     4     7    1
    10     7     8   ar
    11     8     9   ar
    12     9    10   ar
    13    10    11    1
    14    10    12   ar
    15     4     5   ar
    16     5     6   ar
    17     6     1   ar
    18    12     7   ar
@<TRIPOS>MOLECULE
*****
 17 18 0 0 0
SMALL
GASTEIGER

@<TRIPOS>ATOM
      1 C          -8.5285  -19.2180   20.9820 C.ar    1  UNL1        0.1386
      2 C          -7.7589  -19.5695   19.7434 C.ar    1  UNL1        0.0384
      3 C          -6.2602  -19.5077   19.7487 C.ar    1  UNL1        0.0207
      4 C          -5.5311  -19.0944   20.9927 C.ar    1  UNL1        0.0657
      5 C          -6.3006  -18.7429   22.2313 C.ar    1  UNL1        0.0207
      6 C          -7.7994  -18.8047   22.2260 C.ar    1  UNL1        0.0384
      7 N          -4.0324  -19.0325   20.9981 N.ar    1  UNL1       -0.2868
      8 C          -3.1291  -19.6272   22.0375 C.ar    1  UNL1        0.1825
      9 N          -1.7122  -19.3274   21.6468 N.ar    1  UNL1       -0.2280
     10 C          -1.7398  -18.5474   20.3658 C.ar    1  UNL1        0.0786
     11 C          -0.5436  -18.0389   19.6172 C.3     1  UNL1        0.0538
     12 C          -3.1738  -18.3652   19.9649 C.ar    1  UNL1        0.0962
     13 O         -10.0272  -19.2799   20.9766 O.3     1  UNL1       -0.4755
     14 C         -10.7791  -19.3627   22.2719 C.3     1  UNL1        0.2054
     15 C         -11.7926  -18.3128   22.6193 C.3     1  UNL1        0.0473
     16 C         -13.9183  -18.0300   24.0861 C.3     1  UNL1        0.0001
     17 C         -12.4522  -18.3238   23.9665 C.3     1  UNL1        0.0038
@<TRIPOS>BOND
     1    16    17    1
     2    17    15    1
     3    15    14    1
     4    14    13    1
     5    13     1    1
     6     1     2   ar
     7     2     3   ar
     8     3     4   ar
     9     4     7    1
    10     7     8   ar
    11     8     9   ar
    12     9    10   ar
    13    10    11    1
    14    10    12   ar
    15     4     5   ar
    16     5     6   ar
    17     6     1   ar
    18    12     7   ar
@<TRIPOS>MOLECULE
*****
 17 18 0 0 0
SMALL
GASTEIGER

@<TRIPOS>ATOM
      1 C          -4.6364  -19.8109   21.1832 C.ar    1  UNL1        0.1386
      2 C          -5.0763  -18.8313   22.2305 C.ar    1  UNL1        0.0384
      3 C          -6.5061  -18.3807   22.2826 C.ar    1  UNL1        0.0207
      4 C          -7.4959  -18.9098   21.2876 C.ar    1  UNL1        0.0657
      5 C          -7.0560  -19.8894   20.2403 C.ar    1  UNL1        0.0207
      6 C          -5.6262  -20.3400   20.1882 C.ar    1  UNL1        0.0384
      7 N          -8.9257  -18.4592   21.3398 N.ar    1  UNL1       -0.2868
      8 C         -10.0897  -19.1417   20.6846 C.ar    1  UNL1        0.1825
      9 N         -11.3259  -18.3514   20.9962 N.ar    1  UNL1       -0.2280
     10 C         -10.9260  -17.1804   21.8439 C.ar    1  UNL1        0.0786
     11 C         -11.8476  -16.1275   22.3845 C.3     1  UNL1        0.0538
     12 C          -9.4426  -17.2470   22.0563 C.ar    1  UNL1        0.0962
     13 O          -3.2066  -20.2615   21.1311 O.3     1  UNL1       -0.4755
     14 C          -2.1015  -19.2821   21.3947 C.3     1  UNL1        0.2054
     15 C          -1.7439  -18.2580   20.3587 C.3     1  UNL1        0.0473
     16 C          -2.2254  -16.1946   21.8622 C.3     1  UNL1        0.0001
     17 C          -1.4306  -16.8505   20.7722 C.3     1  UNL1        0.0038
@<TRIPOS>BOND
     1    16    17    1
     2    17    15    1
     3    15    14    1
     4    14    13    1
     5    13     1    1
     6     1     2   ar
     7     2     3   ar
     8     3     4   ar
     9     4     7    1
    10     7     8   ar
    11     8     9   ar
    12     9    10   ar
    13    10    11    1
    14    10    12   ar
    15     4     5   ar
    16     5     6   ar
    17     6     1   ar
    18    12     7   ar
@<TRIPOS>MOLECULE
*****
 17 18 0 0 0
SMALL
GASTEIGER

@<TRIPOS>ATOM
      1 C          -5.2972  -19.1959   22.3156 C.ar    1  UNL1        0.1386
      2 C          -5.5765  -17.7911   22.7611 C.ar    1  UNL1        0.0384
      3 C          -6.9899  -17.2939   22.8326 C.ar    1  UNL1        0.0207
      4 C          -8.1240  -18.2016   22.4587 C.ar    1  UNL1        0.0657
      5 C          -7.8447  -19.6064   22.0132 C.ar    1  UNL1        0.0207
      6 C          -6.4313  -20.1035   21.9416 C.ar    1  UNL1        0.0384
      7 N          -9.5375  -17.7045   22.5303 N.ar    1  UNL1       -0.2868
      8 C         -10.0433  -16.4033   21.9816 C.ar    1  UNL1        0.1825
      9 N         -11.5117  -16.3159   22.2753 N.ar    1  UNL1       -0.2280
     10 C         -11.9134  -17.5631   23.0055 C.ar    1  UNL1        0.0786
     11 C         -13.2929  -17.8940   23.4926 C.3     1  UNL1        0.0538
     12 C         -10.6932  -18.4212   23.1631 C.ar    1  UNL1        0.0962
     13 O          -3.8838  -19.6930   22.2440 O.3     1  UNL1       -0.4755
     14 C          -3.2111  -19.8516   20.9128 C.3     1  UNL1        0.2054
     15 C          -3.6763  -19.0454   19.7365 C.3     1  UNL1        0.0473
     16 C          -1.3042  -18.0255   19.4485 C.3     1  UNL1        0.0001
     17 C          -2.7686  -18.0206   19.1234 C.3     1  UNL1        0.0038
@<TRIPOS>BOND
     1    16    17    1
     2    17    15    1
     3    15    14    1
     4    14    13    1
     5    13     1    1
     6     1     2   ar
     7     2     3   ar
     8     3     4   ar
     9     4     7    1
    10     7     8   ar
    11     8     9   ar
    12     9    10   ar
    13    10    11    1
    14    10    12   ar
    15     4     5   ar
    16     5     6   ar
    17     6     1   ar
    18    12     7   ar
@<TRIPOS>MOLECULE
*****
 17 18 0 0 0
SMALL
GASTEIGER

@<TRIPOS>ATOM
      1 C          -3.0967  -19.2218   21.6067 C.ar    1  UNL1        0.1386
      2 C          -3.6106  -18.3080   22.6795 C.ar    1  UNL1        0.0384
      3 C          -5.0870  -18.1795   22.9114 C.ar    1  UNL1        0.0207
      4 C          -6.0494  -18.9647   22.0706 C.ar    1  UNL1        0.0657
      5 C          -5.5355  -19.8785   20.9978 C.ar    1  UNL1        0.0207
      6 C          -4.0591  -20.0070   20.7659 C.ar    1  UNL1        0.0384
      7 N          -7.5258  -18.8362   22.3025 N.ar    1  UNL1       -0.2868
      8 C          -8.4332  -19.9106   22.8245 C.ar    1  UNL1        0.1825
      9 N          -9.8222  -19.3491   22.8977 N.ar    1  UNL1       -0.2280
     10 C          -9.7733  -17.9277   22.4210 C.ar    1  UNL1        0.0786
     11 C         -10.9390  -16.9882   22.3284 C.3     1  UNL1        0.0538
     12 C          -8.3541  -17.6107   22.0531 C.ar    1  UNL1        0.0962
     13 O          -1.6203  -19.3503   21.3748 O.3     1  UNL1       -0.4755
     14 C          -0.8477  -18.1984   20.8037 C.3     1  UNL1        0.2054
     15 C          -0.5087  -18.1735   19.3428 C.3     1  UNL1        0.0473
     16 C          -2.8001  -17.0952   18.7626 C.3     1  UNL1        0.0001
     17 C          -1.5636  -17.8281   18.3338 C.3     1  UNL1        0.0038
@<TRIPOS>BOND
     1    16    17    1
     2    17    15    1
     3    15    14    1
     4    14    13    1
     5    13     1    1
     6     1     2   ar
     7     2     3   ar
     8     3     4   ar
     9     4     7    1
    10     7     8   ar
    11     8     9   ar
    12     9    10   ar
    13    10    11    1
    14    10    12   ar
    15     4     5   ar
    16     5     6   ar
    17     6     1   ar
    18    12     7   ar
@<TRIPOS>MOLECULE
*****
 17 18 0 0 0
SMALL
GASTEIGER

@<TRIPOS>ATOM
      1 C         -12.6134   -4.4032   18.1277 C.ar    1  UNL1        0.1386
      2 C         -13.1502   -5.2239   16.9927 C.ar    1  UNL1        0.0384
      3 C         -14.1537   -6.3065   17.2590 C.ar    1  UNL1        0.0207
      4 C         -14.6205   -6.5684   18.6602 C.ar    1  UNL1        0.0657
      5 C         -14.0837   -5.7476   19.7952 C.ar    1  UNL1        0.0207
      6 C         -13.0801   -4.6650   19.5289 C.ar    1  UNL1        0.0384
      7 N         -15.6240   -7.6509   18.9265 N.ar    1  UNL1       -0.2868
      8 C         -16.9161   -7.4916   19.6716 C.ar    1  UNL1        0.1825
      9 N         -17.6023   -8.8251   19.7001 N.ar    1  UNL1       -0.2280
     10 C         -16.7344   -9.8087   18.9725 C.ar    1  UNL1        0.0786
     11 C         -17.0361  -11.2626   18.7603 C.3     1  UNL1        0.0538
     12 C         -15.5117   -9.0830   18.4945 C.ar    1  UNL1        0.0962
     13 O         -11.6098   -3.3206   17.8614 O.3     1  UNL1       -0.4755
     14 C         -10.1628   -3.5424   18.1882 C.3     1  UNL1        0.2054
     15 C          -9.5367   -4.8842   17.9478 C.3     1  UNL1        0.0473
     16 C         -10.0807   -7.2859   18.7760 C.3     1  UNL1        0.0001
     17 C          -9.5306   -5.9151   19.0374 C.3     1  UNL1        0.0038
@<TRIPOS>BOND
     1    16    17    1
     2    17    15    1
     3    15    14    1
     4    14    13    1
     5    13     1    1
     6     1     2   ar
     7     2     3   ar
     8     3     4   ar
     9     4     7    1
    10     7     8   ar
    11     8     9   ar
    12     9    10   ar
    13    10    11    1
    14    10    12   ar
    15     4     5   ar
    16     5     6   ar
    17     6     1   ar
    18    12     7   ar
@<TRIPOS>MOLECULE
*****
 17 18 0 0 0
SMALL
GASTEIGER

@<TRIPOS>ATOM
      1 C         -12.4252   -5.0975   18.0456 C.ar    1  UNL1        0.1386
      2 C         -12.9721   -4.9433   19.4338 C.ar    1  UNL1        0.0384
      3 C         -14.1738   -5.7342   19.8586 C.ar    1  UNL1        0.0207
      4 C         -14.8286   -6.6793   18.8953 C.ar    1  UNL1        0.0657
      5 C         -14.2817   -6.8334   17.5071 C.ar    1  UNL1        0.0207
      6 C         -13.0800   -6.0425   17.0822 C.ar    1  UNL1        0.0384
      7 N         -16.0302   -7.4702   19.3201 N.ar    1  UNL1       -0.2868
      8 C         -16.1051   -8.9634   19.4414 C.ar    1  UNL1        0.1825
      9 N         -17.4892   -9.3228   19.8945 N.ar    1  UNL1       -0.2280
     10 C         -18.2696   -8.0517   20.0532 C.ar    1  UNL1        0.0786
     11 C         -19.7005   -7.9444   20.4902 C.3     1  UNL1        0.0538
     12 C         -17.3679   -6.9068   19.6982 C.ar    1  UNL1        0.0962
     13 O         -11.2236   -4.3065   17.6207 O.3     1  UNL1       -0.4755
     14 C          -9.8492   -4.8849   17.7835 C.3     1  UNL1        0.2054
     15 C          -9.4777   -5.5894   19.0546 C.3     1  UNL1        0.0473
     16 C          -9.9860   -7.8802   17.9391 C.3     1  UNL1        0.0001
     17 C          -9.4886   -7.0884   19.1120 C.3     1  UNL1        0.0038
@<TRIPOS>BOND
     1    16    17    1
     2    17    15    1
     3    15    14    1
     4    14    13    1
     5    13     1    1
     6     1     2   ar
     7     2     3   ar
     8     3     4   ar
     9     4     7    1
    10     7     8   ar
    11     8     9   ar
    12     9    10   ar
    13    10    11    1
    14    10    12   ar
    15     4     5   ar
    16     5     6   ar
    17     6     1   ar
    18    12     7   ar
@<TRIPOS>MOLECULE
*****
 17 18 0 0 0
SMALL
GASTEIGER

@<TRIPOS>ATOM
      1 C         -10.5881   -5.7330   17.7830 C.ar    1  UNL1        0.1386
      2 C         -11.3339   -5.4615   19.0558 C.ar    1  UNL1        0.0384
      3 C         -12.6315   -6.1626   19.3289 C.ar    1  UNL1        0.0207
      4 C         -13.1834   -7.1352   18.3292 C.ar    1  UNL1        0.0657
      5 C         -12.4377   -7.4067   17.0564 C.ar    1  UNL1        0.0207
      6 C         -11.1400   -6.7056   16.7833 C.ar    1  UNL1        0.0384
      7 N         -14.4811   -7.8362   18.6023 N.ar    1  UNL1       -0.2868
      8 C         -15.6623   -7.2560   19.3221 C.ar    1  UNL1        0.1825
      9 N         -16.7366   -8.3018   19.3682 N.ar    1  UNL1       -0.2280
     10 C         -16.2194   -9.5284   18.6768 C.ar    1  UNL1        0.0786
     11 C         -16.9653  -10.8165   18.4913 C.3     1  UNL1        0.0538
     12 C         -14.8255   -9.2406   18.2035 C.ar    1  UNL1        0.0962
     13 O          -9.2905   -5.0320   17.5099 O.3     1  UNL1       -0.4755
     14 C          -9.2419   -3.9002   16.5268 C.3     1  UNL1        0.2054
     15 C         -10.4618   -3.0604   16.2890 C.3     1  UNL1        0.0473
     16 C         -11.1489   -1.8035   18.4566 C.3     1  UNL1        0.0001
     17 C         -10.6475   -1.7770   17.0431 C.3     1  UNL1        0.0038
@<TRIPOS>BOND
     1    16    17    1
     2    17    15    1
     3    15    14    1
     4    14    13    1
     5    13     1    1
     6     1     2   ar
     7     2     3   ar
     8     3     4   ar
     9     4     7    1
    10     7     8   ar
    11     8     9   ar
    12     9    10   ar
    13    10    11    1
    14    10    12   ar
    15     4     5   ar
    16     5     6   ar
    17     6     1   ar
    18    12     7   ar
