@<TRIPOS>MOLECULE
*****
 30 34 0 0 0
SMALL
GASTEIGER

@<TRIPOS>ATOM
      1 N          -5.2171  -19.1154   22.4218 N.3     1  UNL1       -0.2659
      2 C          -5.7808  -17.7564   22.7138 C.3     1  UNL1        0.0941
      3 C          -7.2649  -17.5674   22.8214 C.3     1  UNL1        0.1096
      4 N          -8.1853  -18.7374   22.6371 N.pl3   1  UNL1       -0.2882
      5 C          -7.6216  -20.0964   22.3451 C.3     1  UNL1        0.1096
      6 C          -6.1375  -20.2854   22.2374 C.3     1  UNL1        0.0941
      7 C          -9.6695  -18.5483   22.7447 C.ar    1  UNL1        0.1635
      8 N         -10.3612  -18.7746   24.0563 N.ar    1  UNL1       -0.2247
      9 C         -11.8454  -18.5855   24.1640 C.ar    1  UNL1        0.1195
     10 C         -12.5371  -18.8118   25.4756 C.ar    1  UNL1        0.1195
     11 N         -14.0212  -18.6227   25.5832 N.ar    1  UNL1       -0.2406
     12 C         -14.8136  -18.2074   24.3792 C.ar    1  UNL1        0.1005
     13 C         -14.1219  -17.9811   23.0676 C.ar    1  UNL1        0.0414
     14 C         -12.6378  -18.1702   22.9600 C.ar    1  UNL1        0.1035
     15 N         -11.9460  -17.9439   21.6484 N.ar    1  UNL1       -0.2264
     16 C         -10.4619  -18.1330   21.5408 C.ar    1  UNL1        0.1603
     17 N          -9.7701  -17.9067   20.2291 N.pl3   1  UNL1       -0.3175
     18 H          -9.6164  -16.9897   19.9054 H       1  UNL1        0.1482
     19 C          -9.3126  -19.0775   19.4108 C.3     1  UNL1        0.0706
     20 C          -8.2025  -19.8900   18.8130 C.3     1  UNL1        0.0212
     21 C          -9.6302  -20.2930   18.5911 C.3     1  UNL1        0.0212
     22 C          -3.7329  -19.3044   22.3141 C.3     1  UNL1        0.1015
     23 F          -0.2266  -15.9832   20.3973 F       1  UNL1       -0.2042
     24 C          -1.2340  -17.0741   20.1855 C.ar    1  UNL1        0.1400
     25 C          -1.4957  -17.5953   18.8036 C.ar    1  UNL1        0.0319
     26 C          -2.5032  -18.6863   18.5918 C.ar    1  UNL1        0.0317
     27 C          -3.2489  -19.2560   19.7620 C.ar    1  UNL1        0.1376
     28 F          -4.2564  -20.3469   19.5502 F       1  UNL1       -0.2045
     29 C          -2.9872  -18.7348   21.1439 C.ar    1  UNL1        0.0236
     30 C          -1.9798  -17.6438   21.3557 C.ar    1  UNL1        0.0289
@<TRIPOS>BOND
     1    23    24    1
     2    24    25   ar
     3    25    26   ar
     4    26    27   ar
     5    27    28    1
     6    27    29   ar
     7    29    22    1
     8    22     1    1
     9     1     2    1
    10     2     3    1
    11     3     4    1
    12     4     7    1
    13     7     8   ar
    14     8     9   ar
    15     9    10   ar
    16    10    11   ar
    17    11    12   ar
    18    12    13   ar
    19    13    14   ar
    20    14    15   ar
    21    15    16   ar
    22    16    17    1
    23    17    19    1
    24    19    20    1
    25    20    21    1
    26     4     5    1
    27     5     6    1
    28    29    30   ar
    29    30    24   ar
    30     6     1    1
    31    16     7   ar
    32    21    19    1
    33    14     9   ar
    34    17    18    1
@<TRIPOS>MOLECULE
*****
 30 34 0 0 0
SMALL
GASTEIGER

@<TRIPOS>ATOM
      1 N           7.1751   -3.5024   22.6564 N.3     1  UNL1       -0.2659
      2 C           8.3698   -4.0051   23.4113 C.3     1  UNL1        0.0941
      3 C           8.3297   -4.0904   24.9083 C.3     1  UNL1        0.1096
      4 N           7.0948   -3.6729   25.6504 N.pl3   1  UNL1       -0.2882
      5 C           5.9001   -3.1702   24.8956 C.3     1  UNL1        0.1096
      6 C           5.9402   -3.0849   23.3986 C.3     1  UNL1        0.0941
      7 C           7.0547   -3.7583   27.1475 C.ar    1  UNL1        0.1635
      8 N           7.4975   -2.5899   27.9774 N.ar    1  UNL1       -0.2247
      9 C           7.4574   -2.6752   29.4745 C.ar    1  UNL1        0.1195
     10 C           7.9003   -1.5069   30.3045 C.ar    1  UNL1        0.1195
     11 N           7.8602   -1.5923   31.8015 N.ar    1  UNL1       -0.2406
     12 C           7.3771   -2.8460   32.4685 C.ar    1  UNL1        0.1005
     13 C           6.9343   -4.0143   31.6386 C.ar    1  UNL1        0.0414
     14 C           6.9744   -3.9289   30.1416 C.ar    1  UNL1        0.1035
     15 N           6.5315   -5.0973   29.3116 N.ar    1  UNL1       -0.2264
     16 C           6.5716   -5.0119   27.8146 C.ar    1  UNL1        0.1603
     17 N           6.1287   -6.1803   26.9846 N.pl3   1  UNL1       -0.3175
     18 H           5.1805   -6.2782   26.7388 H       1  UNL1        0.1482
     19 C           7.1307   -7.1994   26.5291 C.3     1  UNL1        0.0706
     20 C           7.9458   -8.4297   26.7970 C.3     1  UNL1        0.0212
     21 C           8.0510   -7.7342   25.4722 C.3     1  UNL1        0.0212
     22 C           7.2152   -3.4170   21.1593 C.3     1  UNL1        0.1015
     23 F           2.7420   -4.6197   18.8049 F       1  UNL1       -0.2042
     24 C           3.7563   -3.5963   19.2219 C.ar    1  UNL1        0.1400
     25 C           3.5484   -2.1510   18.8787 C.ar    1  UNL1        0.0319
     26 C           4.5628   -1.1277   19.2958 C.ar    1  UNL1        0.0317
     27 C           5.7850   -1.5497   20.0559 C.ar    1  UNL1        0.1376
     28 F           6.7994   -0.5264   20.4729 F       1  UNL1       -0.2045
     29 C           5.9930   -2.9950   20.3991 C.ar    1  UNL1        0.0236
     30 C           4.9787   -4.0183   19.9822 C.ar    1  UNL1        0.0289
@<TRIPOS>BOND
     1    23    24    1
     2    24    25   ar
     3    25    26   ar
     4    26    27   ar
     5    27    28    1
     6    27    29   ar
     7    29    22    1
     8    22     1    1
     9     1     2    1
    10     2     3    1
    11     3     4    1
    12     4     7    1
    13     7     8   ar
    14     8     9   ar
    15     9    10   ar
    16    10    11   ar
    17    11    12   ar
    18    12    13   ar
    19    13    14   ar
    20    14    15   ar
    21    15    16   ar
    22    16    17    1
    23    17    19    1
    24    19    20    1
    25    20    21    1
    26     4     5    1
    27     5     6    1
    28    29    30   ar
    29    30    24   ar
    30     6     1    1
    31    16     7   ar
    32    21    19    1
    33    14     9   ar
    34    17    18    1
@<TRIPOS>MOLECULE
*****
 30 34 0 0 0
SMALL
GASTEIGER

@<TRIPOS>ATOM
      1 N           7.1811   -3.4602   22.7563 N.3     1  UNL1       -0.2659
      2 C           7.5687   -2.2503   21.9590 C.3     1  UNL1        0.0941
      3 C           6.5106   -1.4158   21.3002 C.3     1  UNL1        0.1096
      4 N           5.0650   -1.7912   21.4387 N.pl3   1  UNL1       -0.2882
      5 C           4.6774   -3.0011   22.2360 C.3     1  UNL1        0.1096
      6 C           5.7354   -3.8356   22.8948 C.3     1  UNL1        0.0941
      7 C           4.0069   -0.9566   20.7799 C.ar    1  UNL1        0.1635
      8 N           3.2591    0.0717   21.5757 N.ar    1  UNL1       -0.2247
      9 C           2.2011    0.9063   20.9169 C.ar    1  UNL1        0.1195
     10 C           1.4533    1.9345   21.7128 C.ar    1  UNL1        0.1195
     11 N           0.3953    2.7691   21.0540 N.ar    1  UNL1       -0.2406
     12 C           0.0850    2.5754   19.5992 C.ar    1  UNL1        0.1005
     13 C           0.8328    1.5471   18.8033 C.ar    1  UNL1        0.0414
     14 C           1.8908    0.7126   19.4622 C.ar    1  UNL1        0.1035
     15 N           2.6387   -0.3157   18.6663 N.ar    1  UNL1       -0.2264
     16 C           3.6967   -1.1503   19.3251 C.ar    1  UNL1        0.1603
     17 N           4.4446   -2.1786   18.5292 N.pl3   1  UNL1       -0.3175
     18 H           5.1031   -1.8954   17.8544 H       1  UNL1        0.1482
     19 C           4.1890   -3.6383   18.7616 C.3     1  UNL1        0.0706
     20 C           3.2781   -4.7422   19.2103 C.3     1  UNL1        0.0212
     21 C           4.6574   -5.0625   18.7153 C.3     1  UNL1        0.0212
     22 C           8.2392   -4.2948   23.4151 C.3     1  UNL1        0.1015
     23 F           5.9387   -5.5869   27.8915 F       1  UNL1       -0.2042
     24 C           6.7031   -5.9812   26.6626 C.ar    1  UNL1        0.1400
     25 C           7.0816   -7.4160   26.4431 C.ar    1  UNL1        0.0319
     26 C           7.8460   -7.8103   25.2141 C.ar    1  UNL1        0.0317
     27 C           8.2319   -6.7700   24.2048 C.ar    1  UNL1        0.1376
     28 F           8.9962   -7.1643   22.9759 F       1  UNL1       -0.2045
     29 C           7.8533   -5.3352   24.4244 C.ar    1  UNL1        0.0236
     30 C           7.0890   -4.9408   25.6533 C.ar    1  UNL1        0.0289
@<TRIPOS>BOND
     1    23    24    1
     2    24    25   ar
     3    25    26   ar
     4    26    27   ar
     5    27    28    1
     6    27    29   ar
     7    29    22    1
     8    22     1    1
     9     1     2    1
    10     2     3    1
    11     3     4    1
    12     4     7    1
    13     7     8   ar
    14     8     9   ar
    15     9    10   ar
    16    10    11   ar
    17    11    12   ar
    18    12    13   ar
    19    13    14   ar
    20    14    15   ar
    21    15    16   ar
    22    16    17    1
    23    17    19    1
    24    19    20    1
    25    20    21    1
    26     4     5    1
    27     5     6    1
    28    29    30   ar
    29    30    24   ar
    30     6     1    1
    31    16     7   ar
    32    21    19    1
    33    14     9   ar
    34    17    18    1
@<TRIPOS>MOLECULE
*****
 30 34 0 0 0
SMALL
GASTEIGER

@<TRIPOS>ATOM
      1 N           6.6091   -2.5316   24.1496 N.3     1  UNL1       -0.2659
      2 C           5.3114   -3.1876   23.7814 C.3     1  UNL1        0.0941
      3 C           4.3814   -2.5191   22.8127 C.3     1  UNL1        0.1096
      4 N           4.7492   -1.1947   22.2123 N.pl3   1  UNL1       -0.2882
      5 C           6.0469   -0.5387   22.5804 C.3     1  UNL1        0.1096
      6 C           6.9768   -1.2071   23.5491 C.3     1  UNL1        0.0941
      7 C           3.8191   -0.5262   21.2436 C.ar    1  UNL1        0.1635
      8 N           2.8677    0.5292   21.7239 N.ar    1  UNL1       -0.2247
      9 C           1.9377    1.1976   20.7552 C.ar    1  UNL1        0.1195
     10 C           0.9862    2.2530   21.2356 C.ar    1  UNL1        0.1195
     11 N           0.0563    2.9214   20.2669 N.ar    1  UNL1       -0.2406
     12 C           0.0778    2.5344   18.8179 C.ar    1  UNL1        0.1005
     13 C           1.0292    1.4790   18.3375 C.ar    1  UNL1        0.0414
     14 C           1.9592    0.8106   19.3062 C.ar    1  UNL1        0.1035
     15 N           2.9107   -0.2449   18.8258 N.ar    1  UNL1       -0.2264
     16 C           3.8406   -0.9133   19.7945 C.ar    1  UNL1        0.1603
     17 N           4.7922   -1.9688   19.3142 N.pl3   1  UNL1       -0.3175
     18 H           5.7241   -1.7320   19.1030 H       1  UNL1        0.1482
     19 C           4.3236   -3.3849   19.1556 C.3     1  UNL1        0.0706
     20 C           4.6302   -4.8423   18.9778 C.3     1  UNL1        0.0212
     21 C           3.2055   -4.3800   19.0588 C.3     1  UNL1        0.0212
     22 C           7.5391   -3.2000   25.1183 C.3     1  UNL1        0.1015
     23 F           9.0050   -7.7467   23.0741 F       1  UNL1       -0.2042
     24 C           8.3319   -6.9705   24.1670 C.ar    1  UNL1        0.1400
     25 C           7.7188   -7.6914   25.3307 C.ar    1  UNL1        0.0319
     26 C           7.0456   -6.9152   26.4236 C.ar    1  UNL1        0.0317
     27 C           6.9858   -5.4181   26.3528 C.ar    1  UNL1        0.1376
     28 F           6.3127   -4.6419   27.4457 F       1  UNL1       -0.2045
     29 C           7.5990   -4.6971   25.1891 C.ar    1  UNL1        0.0236
     30 C           8.2720   -5.4733   24.0962 C.ar    1  UNL1        0.0289
@<TRIPOS>BOND
     1    23    24    1
     2    24    25   ar
     3    25    26   ar
     4    26    27   ar
     5    27    28    1
     6    27    29   ar
     7    29    22    1
     8    22     1    1
     9     1     2    1
    10     2     3    1
    11     3     4    1
    12     4     7    1
    13     7     8   ar
    14     8     9   ar
    15     9    10   ar
    16    10    11   ar
    17    11    12   ar
    18    12    13   ar
    19    13    14   ar
    20    14    15   ar
    21    15    16   ar
    22    16    17    1
    23    17    19    1
    24    19    20    1
    25    20    21    1
    26     4     5    1
    27     5     6    1
    28    29    30   ar
    29    30    24   ar
    30     6     1    1
    31    16     7   ar
    32    21    19    1
    33    14     9   ar
    34    17    18    1
@<TRIPOS>MOLECULE
*****
 30 34 0 0 0
SMALL
GASTEIGER

@<TRIPOS>ATOM
      1 N           2.1478    0.6604   18.7874 N.3     1  UNL1       -0.2659
      2 C           1.2900   -0.1416   19.7207 C.3     1  UNL1        0.0941
      3 C           0.1660    0.5200   20.4614 C.3     1  UNL1        0.1096
      4 N          -0.1003    1.9836   20.2689 N.pl3   1  UNL1       -0.2882
      5 C           0.7575    2.7856   19.3357 C.3     1  UNL1        0.1096
      6 C           1.8816    2.1239   18.5949 C.3     1  UNL1        0.0941
      7 C          -1.2244    2.6452   21.0097 C.ar    1  UNL1        0.1635
      8 N          -2.5737    2.7725   20.3671 N.ar    1  UNL1       -0.2247
      9 C          -3.6979    3.4341   21.1079 C.ar    1  UNL1        0.1195
     10 C          -5.0472    3.5614   20.4653 C.ar    1  UNL1        0.1195
     11 N          -6.1713    4.2230   21.2061 N.ar    1  UNL1       -0.2406
     12 C          -5.9459    4.7573   22.5895 C.ar    1  UNL1        0.1005
     13 C          -4.5965    4.6300   23.2321 C.ar    1  UNL1        0.0414
     14 C          -3.4725    3.9685   22.4913 C.ar    1  UNL1        0.1035
     15 N          -2.1231    3.8411   23.1339 N.ar    1  UNL1       -0.2264
     16 C          -0.9990    3.1796   22.3931 C.ar    1  UNL1        0.1603
     17 N           0.3504    3.0523   23.0356 N.pl3   1  UNL1       -0.3175
     18 H           1.0850    3.6469   22.7599 H       1  UNL1        0.1482
     19 C           0.5806    2.0189   24.0983 C.3     1  UNL1        0.0706
     20 C           0.1186    1.2950   25.3281 C.3     1  UNL1        0.0212
     21 C           1.4413    0.9530   24.7089 C.3     1  UNL1        0.0212
     22 C           3.2719   -0.0013   18.0466 C.3     1  UNL1        0.1015
     23 F           4.7980   -4.9550   18.4088 F       1  UNL1       -0.2042
     24 C           4.8547   -3.5390   18.9004 C.ar    1  UNL1        0.1400
     25 C           5.7312   -3.1839   20.0648 C.ar    1  UNL1        0.0319
     26 C           5.7879   -1.7678   20.5564 C.ar    1  UNL1        0.0317
     27 C           4.9682   -0.7070   19.8837 C.ar    1  UNL1        0.1376
     28 F           5.0249    0.7090   20.3753 F       1  UNL1       -0.2045
     29 C           4.0917   -1.0621   18.7193 C.ar    1  UNL1        0.0236
     30 C           4.0350   -2.4781   18.2277 C.ar    1  UNL1        0.0289
@<TRIPOS>BOND
     1    23    24    1
     2    24    25   ar
     3    25    26   ar
     4    26    27   ar
     5    27    28    1
     6    27    29   ar
     7    29    22    1
     8    22     1    1
     9     1     2    1
    10     2     3    1
    11     3     4    1
    12     4     7    1
    13     7     8   ar
    14     8     9   ar
    15     9    10   ar
    16    10    11   ar
    17    11    12   ar
    18    12    13   ar
    19    13    14   ar
    20    14    15   ar
    21    15    16   ar
    22    16    17    1
    23    17    19    1
    24    19    20    1
    25    20    21    1
    26     4     5    1
    27     5     6    1
    28    29    30   ar
    29    30    24   ar
    30     6     1    1
    31    16     7   ar
    32    21    19    1
    33    14     9   ar
    34    17    18    1
@<TRIPOS>MOLECULE
*****
 30 34 0 0 0
SMALL
GASTEIGER

@<TRIPOS>ATOM
      1 N           5.5549    0.3767   36.1254 N.3     1  UNL1       -0.2659
      2 C           6.8592    0.4463   35.3879 C.3     1  UNL1        0.0941
      3 C           7.0490   -0.3391   34.1242 C.3     1  UNL1        0.1096
      4 N           5.9345   -1.1941   33.5979 N.pl3   1  UNL1       -0.2882
      5 C           4.6302   -1.2636   34.3354 C.3     1  UNL1        0.1096
      6 C           4.4404   -0.4782   35.5991 C.3     1  UNL1        0.0941
      7 C           6.1243   -1.9795   32.3341 C.ar    1  UNL1        0.1635
      8 N           6.7534   -3.3402   32.3841 N.ar    1  UNL1       -0.2247
      9 C           6.9433   -4.1256   31.1203 C.ar    1  UNL1        0.1195
     10 C           7.5724   -5.4864   31.1702 C.ar    1  UNL1        0.1195
     11 N           7.7622   -6.2717   29.9065 N.ar    1  UNL1       -0.2406
     12 C           7.3229   -5.6963   28.5927 C.ar    1  UNL1        0.1005
     13 C           6.6938   -4.3356   28.5427 C.ar    1  UNL1        0.0414
     14 C           6.5040   -3.5502   29.8065 C.ar    1  UNL1        0.1035
     15 N           5.8749   -2.1894   29.7566 N.ar    1  UNL1       -0.2264
     16 C           5.6851   -1.4040   31.0204 C.ar    1  UNL1        0.1603
     17 N           5.0559   -0.0432   30.9704 N.pl3   1  UNL1       -0.3175
     18 H           5.6117    0.7607   31.0894 H       1  UNL1        0.1482
     19 C           3.5801    0.0927   30.7392 C.3     1  UNL1        0.0706
     20 C           2.2968   -0.4502   30.1841 C.3     1  UNL1        0.0212
     21 C           2.3073    0.8711   30.8939 C.3     1  UNL1        0.0212
     22 C           5.3650    1.1621   37.3892 C.3     1  UNL1        0.1015
     23 F           0.8952    0.7217   40.0018 F       1  UNL1       -0.2042
     24 C           1.7742    1.4769   39.0496 C.ar    1  UNL1        0.1400
     25 C           1.2974    2.7672   38.4513 C.ar    1  UNL1        0.0319
     26 C           2.1765    3.5224   37.4990 C.ar    1  UNL1        0.0317
     27 C           3.5323    2.9874   37.1450 C.ar    1  UNL1        0.1376
     28 F           4.4114    3.7426   36.1927 F       1  UNL1       -0.2045
     29 C           4.0092    1.6971   37.7432 C.ar    1  UNL1        0.0236
     30 C           3.1301    0.9419   38.6955 C.ar    1  UNL1        0.0289
@<TRIPOS>BOND
     1    23    24    1
     2    24    25   ar
     3    25    26   ar
     4    26    27   ar
     5    27    28    1
     6    27    29   ar
     7    29    22    1
     8    22     1    1
     9     1     2    1
    10     2     3    1
    11     3     4    1
    12     4     7    1
    13     7     8   ar
    14     8     9   ar
    15     9    10   ar
    16    10    11   ar
    17    11    12   ar
    18    12    13   ar
    19    13    14   ar
    20    14    15   ar
    21    15    16   ar
    22    16    17    1
    23    17    19    1
    24    19    20    1
    25    20    21    1
    26     4     5    1
    27     5     6    1
    28    29    30   ar
    29    30    24   ar
    30     6     1    1
    31    16     7   ar
    32    21    19    1
    33    14     9   ar
    34    17    18    1
@<TRIPOS>MOLECULE
*****
 30 34 0 0 0
SMALL
GASTEIGER

@<TRIPOS>ATOM
      1 N          -5.2590  -18.2214   22.8225 N.3     1  UNL1       -0.2659
      2 C          -6.0229  -19.4520   22.4325 C.3     1  UNL1        0.0941
      3 C          -7.5225  -19.4458   22.4658 C.3     1  UNL1        0.1096
      4 N          -8.2582  -18.2090   22.8891 N.pl3   1  UNL1       -0.2882
      5 C          -7.4943  -16.9784   23.2791 C.3     1  UNL1        0.1096
      6 C          -5.9947  -16.9847   23.2458 C.3     1  UNL1        0.0941
      7 C          -9.7579  -18.2028   22.9224 C.ar    1  UNL1        0.1635
      8 N         -10.4802  -18.4250   24.2181 N.ar    1  UNL1       -0.2247
      9 C         -11.9799  -18.4188   24.2514 C.ar    1  UNL1        0.1195
     10 C         -12.7022  -18.6410   25.5470 C.ar    1  UNL1        0.1195
     11 N         -14.2018  -18.6348   25.5803 N.ar    1  UNL1       -0.2406
     12 C         -14.9790  -18.4065   24.3178 C.ar    1  UNL1        0.1005
     13 C         -14.2567  -18.1844   23.0221 C.ar    1  UNL1        0.0414
     14 C         -12.7571  -18.1905   22.9889 C.ar    1  UNL1        0.1035
     15 N         -12.0347  -17.9684   21.6932 N.ar    1  UNL1       -0.2264
     16 C         -10.5351  -17.9745   21.6600 C.ar    1  UNL1        0.1603
     17 N          -9.8127  -17.7524   20.3642 N.pl3   1  UNL1       -0.3175
     18 H          -9.6410  -16.8363   20.0471 H       1  UNL1        0.1482
     19 C          -9.3518  -18.9260   19.5517 C.3     1  UNL1        0.0706
     20 C          -8.2393  -19.7656   18.9973 C.3     1  UNL1        0.0212
     21 C          -9.6661  -20.1192   18.6988 C.3     1  UNL1        0.0212
     22 C          -3.7593  -18.2276   22.7892 C.3     1  UNL1        0.1015
     23 F          -2.7861  -19.9330   17.9784 F       1  UNL1       -0.2042
     24 C          -2.5510  -18.9386   19.0765 C.ar    1  UNL1        0.1400
     25 C          -1.5941  -17.8025   18.8674 C.ar    1  UNL1        0.0319
     26 C          -1.3589  -16.8081   19.9656 C.ar    1  UNL1        0.0317
     27 C          -2.0807  -16.9498   21.2728 C.ar    1  UNL1        0.1376
     28 F          -1.8455  -15.9555   22.3710 F       1  UNL1       -0.2045
     29 C          -3.0376  -18.0859   21.4820 C.ar    1  UNL1        0.0236
     30 C          -3.2727  -19.0802   20.3839 C.ar    1  UNL1        0.0289
@<TRIPOS>BOND
     1    23    24    1
     2    24    25   ar
     3    25    26   ar
     4    26    27   ar
     5    27    28    1
     6    27    29   ar
     7    29    22    1
     8    22     1    1
     9     1     2    1
    10     2     3    1
    11     3     4    1
    12     4     7    1
    13     7     8   ar
    14     8     9   ar
    15     9    10   ar
    16    10    11   ar
    17    11    12   ar
    18    12    13   ar
    19    13    14   ar
    20    14    15   ar
    21    15    16   ar
    22    16    17    1
    23    17    19    1
    24    19    20    1
    25    20    21    1
    26     4     5    1
    27     5     6    1
    28    29    30   ar
    29    30    24   ar
    30     6     1    1
    31    16     7   ar
    32    21    19    1
    33    14     9   ar
    34    17    18    1
@<TRIPOS>MOLECULE
*****
 30 34 0 0 0
SMALL
GASTEIGER

@<TRIPOS>ATOM
      1 N           6.8105   -2.6593   23.6974 N.3     1  UNL1       -0.2659
      2 C           5.4126   -3.1835   23.5522 C.3     1  UNL1        0.0941
      3 C           4.4367   -2.4789   22.6572 C.3     1  UNL1        0.1096
      4 N           4.8586   -1.2501   21.9075 N.pl3   1  UNL1       -0.2882
      5 C           6.2564   -0.7259   22.0527 C.3     1  UNL1        0.1096
      6 C           7.2324   -1.4305   22.9476 C.3     1  UNL1        0.0941
      7 C           3.8825   -0.5455   21.0125 C.ar    1  UNL1        0.1635
      8 N           2.9725    0.5057   21.5755 N.ar    1  UNL1       -0.2247
      9 C           1.9964    1.2103   20.6805 C.ar    1  UNL1        0.1195
     10 C           1.0865    2.2614   21.2435 C.ar    1  UNL1        0.1195
     11 N           0.1105    2.9660   20.3485 N.ar    1  UNL1       -0.2406
     12 C           0.0444    2.6194   18.8906 C.ar    1  UNL1        0.1005
     13 C           0.9544    1.5682   18.3277 C.ar    1  UNL1        0.0414
     14 C           1.9304    0.8637   19.2226 C.ar    1  UNL1        0.1035
     15 N           2.8405   -0.1875   18.6597 N.ar    1  UNL1       -0.2264
     16 C           3.8165   -0.8921   19.5546 C.ar    1  UNL1        0.1603
     17 N           4.7265   -1.9433   18.9917 N.pl3   1  UNL1       -0.3175
     18 H           5.6065   -1.6903   18.6300 H       1  UNL1        0.1482
     19 C           4.2957   -3.3801   18.9798 C.3     1  UNL1        0.0706
     20 C           3.2363   -4.4204   19.1928 C.3     1  UNL1        0.0212
     21 C           4.6090   -4.8282   18.7462 C.3     1  UNL1        0.0212
     22 C           7.7866   -3.3639   24.5923 C.3     1  UNL1        0.1015
     23 F           6.1497   -3.0631   29.5147 F       1  UNL1       -0.2042
     24 C           6.4878   -3.8846   28.3061 C.ar    1  UNL1        0.1400
     25 C           6.3456   -5.3772   28.3500 C.ar    1  UNL1        0.0319
     26 C           6.6838   -6.1987   27.1413 C.ar    1  UNL1        0.0317
     27 C           7.1641   -5.5276   25.8888 C.ar    1  UNL1        0.1376
     28 F           7.5022   -6.3491   24.6802 F       1  UNL1       -0.2045
     29 C           7.3063   -4.0350   25.8449 C.ar    1  UNL1        0.0236
     30 C           6.9682   -3.2135   27.0535 C.ar    1  UNL1        0.0289
@<TRIPOS>BOND
     1    23    24    1
     2    24    25   ar
     3    25    26   ar
     4    26    27   ar
     5    27    28    1
     6    27    29   ar
     7    29    22    1
     8    22     1    1
     9     1     2    1
    10     2     3    1
    11     3     4    1
    12     4     7    1
    13     7     8   ar
    14     8     9   ar
    15     9    10   ar
    16    10    11   ar
    17    11    12   ar
    18    12    13   ar
    19    13    14   ar
    20    14    15   ar
    21    15    16   ar
    22    16    17    1
    23    17    19    1
    24    19    20    1
    25    20    21    1
    26     4     5    1
    27     5     6    1
    28    29    30   ar
    29    30    24   ar
    30     6     1    1
    31    16     7   ar
    32    21    19    1
    33    14     9   ar
    34    17    18    1
@<TRIPOS>MOLECULE
*****
 30 34 0 0 0
SMALL
GASTEIGER

@<TRIPOS>ATOM
      1 N           5.1259   -2.6045   19.9824 N.3     1  UNL1       -0.2659
      2 C           6.6007   -2.4774   20.2242 C.3     1  UNL1        0.0941
      3 C           7.2060   -3.0357   21.4780 C.3     1  UNL1        0.1096
      4 N           6.3363   -3.7212   22.4898 N.pl3   1  UNL1       -0.2882
      5 C           4.8614   -3.8483   22.2480 C.3     1  UNL1        0.1096
      6 C           4.2562   -3.2899   20.9942 C.3     1  UNL1        0.0941
      7 C           6.9416   -4.2795   23.7436 C.ar    1  UNL1        0.1635
      8 N           7.3859   -5.7115   23.7887 N.ar    1  UNL1       -0.2247
      9 C           7.9912   -6.2698   25.0425 C.ar    1  UNL1        0.1195
     10 C           8.4355   -7.7018   25.0876 C.ar    1  UNL1        0.1195
     11 N           9.0408   -8.2601   26.3414 N.ar    1  UNL1       -0.2406
     12 C           9.2018   -7.3864   27.5500 C.ar    1  UNL1        0.1005
     13 C           8.7575   -5.9544   27.5049 C.ar    1  UNL1        0.0414
     14 C           8.1522   -5.3962   26.2512 C.ar    1  UNL1        0.1035
     15 N           7.7079   -3.9641   26.2060 N.ar    1  UNL1       -0.2264
     16 C           7.1026   -3.4059   24.9523 C.ar    1  UNL1        0.1603
     17 N           6.6583   -1.9738   24.9071 N.pl3   1  UNL1       -0.3175
     18 H           7.3014   -1.2660   24.6735 H       1  UNL1        0.1482
     19 C           5.2340   -1.6204   25.2178 C.3     1  UNL1        0.0706
     20 C           3.8600   -1.2367   24.7543 C.3     1  UNL1        0.0212
     21 C           4.1412   -1.3918   26.2196 C.3     1  UNL1        0.0212
     22 C           4.5205   -2.0461   18.7286 C.3     1  UNL1        0.1015
     23 F           5.0004    3.0024   17.5966 F       1  UNL1       -0.2042
     24 C           4.1953    1.8676   18.1569 C.ar    1  UNL1        0.1400
     25 C           2.8250    2.1222   18.7115 C.ar    1  UNL1        0.0319
     26 C           2.0199    0.9872   19.2718 C.ar    1  UNL1        0.0317
     27 C           2.5851   -0.4022   19.2775 C.ar    1  UNL1        0.1376
     28 F           1.7800   -1.5370   19.8378 F       1  UNL1       -0.2045
     29 C           3.9554   -0.6567   18.7229 C.ar    1  UNL1        0.0236
     30 C           4.7604    0.4781   18.1626 C.ar    1  UNL1        0.0289
@<TRIPOS>BOND
     1    23    24    1
     2    24    25   ar
     3    25    26   ar
     4    26    27   ar
     5    27    28    1
     6    27    29   ar
     7    29    22    1
     8    22     1    1
     9     1     2    1
    10     2     3    1
    11     3     4    1
    12     4     7    1
    13     7     8   ar
    14     8     9   ar
    15     9    10   ar
    16    10    11   ar
    17    11    12   ar
    18    12    13   ar
    19    13    14   ar
    20    14    15   ar
    21    15    16   ar
    22    16    17    1
    23    17    19    1
    24    19    20    1
    25    20    21    1
    26     4     5    1
    27     5     6    1
    28    29    30   ar
    29    30    24   ar
    30     6     1    1
    31    16     7   ar
    32    21    19    1
    33    14     9   ar
    34    17    18    1
