@<TRIPOS>MOLECULE
*****
 34 38 0 0 0
SMALL
GASTEIGER

@<TRIPOS>ATOM
      1 C          -7.0757  -15.3308   26.7581 C.3     1  UNL1        0.0744
      2 C          -6.0916  -14.3167   27.2613 C.3     1  UNL1        0.0113
      3 C          -7.0835  -13.8657   28.2921 C.3     1  UNL1        0.0015
      4 C          -8.0676  -14.8798   27.7889 C.3     1  UNL1        0.0113
      5 C          -6.0838  -15.7819   25.7272 C.ar    1  UNL1       -0.0159
      6 C          -6.1187  -15.1971   24.3463 C.ar    1  UNL1       -0.0039
      7 C          -5.1269  -15.6483   23.3155 C.ar    1  UNL1       -0.0002
      8 C          -4.1000  -16.6841   23.6655 C.ar    1  UNL1        0.0030
      9 C          -4.0650  -17.2689   25.0464 C.ar    1  UNL1       -0.0002
     10 C          -5.0569  -16.8178   26.0772 C.ar    1  UNL1       -0.0039
     11 C          -3.1081  -17.1352   22.6346 C.ar    1  UNL1        0.0384
     12 C          -2.2951  -16.1234   21.8828 C.ar    1  UNL1        0.1033
     13 N          -1.3032  -16.5745   20.8519 N.ar    1  UNL1       -0.2125
     14 C          -1.1243  -18.0375   20.5729 C.ar    1  UNL1        0.2137
     15 N          -0.1325  -18.4886   19.5421 N.pl3   1  UNL1       -0.3274
     16 N          -1.9373  -19.0493   21.3248 N.ar    1  UNL1       -0.2125
     17 C          -2.9292  -18.5982   22.3556 C.ar    1  UNL1        0.1033
     18 H           0.4011  -17.8245   19.0486 H       1  UNL1        0.1452
     19 H          -0.0151  -19.4488   19.3590 H       1  UNL1        0.1452
     20 C          -9.5997  -17.5524   24.8192 C.ar    1  UNL1        0.2628
     21 N          -8.6796  -16.3699   24.8891 N.ar    1  UNL1       -0.1907
     22 C          -8.0597  -16.3449   26.2549 C.ar    1  UNL1        0.1837
     23 N          -8.5968  -17.5120   27.0291 N.ar    1  UNL1       -0.0599
     24 O          -9.5486  -18.2584   26.1418 O.2     1  UNL1       -0.3326
     25 N         -11.1089  -18.9501   21.5277 N.ar    1  UNL1       -0.2478
     26 C          -9.9595  -18.7920   22.4785 C.ar    1  UNL1        0.1014
     27 C         -10.4259  -17.9579   23.6348 C.ar    1  UNL1        0.0956
     28 C         -11.8633  -17.6005   23.3985 C.ar    1  UNL1        0.1264
     29 N         -12.2855  -18.2137   22.0963 N.ar    1  UNL1       -0.1675
     30 C         -11.0857  -19.7110   20.2352 C.3     1  UNL1        0.1448
     31 C         -10.1750  -19.2766   19.1253 C.3     1  UNL1        0.0988
     32 C          -7.6570  -19.6608   19.6372 C.3     1  UNL1        0.0897
     33 N          -8.8960  -20.0179   18.8709 N.3     1  UNL1       -0.2686
     34 C          -8.8562  -21.1163   17.8502 C.3     1  UNL1        0.0897
@<TRIPOS>BOND
     1    32    33    1
     2    33    34    1
     3    33    31    1
     4    31    30    1
     5    30    25    1
     6    25    26   ar
     7    26    27   ar
     8    27    20    1
     9    20    21   ar
    10    21    22   ar
    11    22     1    1
    12     1     5    1
    13     5     6   ar
    14     6     7   ar
    15     7     8   ar
    16     8    11    1
    17    11    12   ar
    18    12    13   ar
    19    13    14   ar
    20    14    15    1
    21    14    16   ar
    22    16    17   ar
    23     8     9   ar
    24     9    10   ar
    25     1     2    1
    26     2     3    1
    27     3     4    1
    28    22    23   ar
    29    23    24   ar
    30    27    28   ar
    31    28    29   ar
    32    29    25   ar
    33    24    20   ar
    34     4     1    1
    35    10     5   ar
    36    17    11   ar
    37    15    18    1
    38    15    19    1
@<TRIPOS>MOLECULE
*****
 34 38 0 0 0
SMALL
GASTEIGER

@<TRIPOS>ATOM
      1 C          -5.0117    3.9878   19.9409 C.3     1  UNL1        0.0744
      2 C          -6.4630    4.0235   19.5636 C.3     1  UNL1        0.0113
      3 C          -6.1093    3.6167   18.1639 C.3     1  UNL1        0.0015
      4 C          -4.6579    3.5809   18.5411 C.3     1  UNL1        0.0113
      5 C          -5.3655    4.3947   21.3407 C.ar    1  UNL1       -0.0159
      6 C          -5.1699    3.4315   22.4738 C.ar    1  UNL1       -0.0039
      7 C          -5.5236    3.8384   23.8735 C.ar    1  UNL1       -0.0002
      8 C          -6.0730    5.2085   24.1401 C.ar    1  UNL1        0.0030
      9 C          -6.2686    6.1717   23.0070 C.ar    1  UNL1       -0.0002
     10 C          -5.9148    5.7648   21.6073 C.ar    1  UNL1       -0.0039
     11 C          -6.4267    5.6154   25.5399 C.ar    1  UNL1        0.0384
     12 C          -7.7807    6.1897   25.8345 C.ar    1  UNL1        0.1033
     13 N          -8.1345    6.5966   27.2343 N.ar    1  UNL1       -0.2125
     14 C          -7.1342    6.4291   28.3394 C.ar    1  UNL1        0.2137
     15 N          -7.4879    6.8359   29.7392 N.pl3   1  UNL1       -0.3274
     16 N          -5.7801    5.8547   28.0448 N.ar    1  UNL1       -0.2125
     17 C          -5.4265    5.4479   26.6450 C.ar    1  UNL1        0.1033
     18 H          -8.3766    7.2129   29.9326 H       1  UNL1        0.1452
     19 H          -6.8314    6.7260   30.4645 H       1  UNL1        0.1452
     20 C          -1.3375    3.1476   20.8683 C.ar    1  UNL1        0.2628
     21 N          -2.7244    2.7186   20.4908 N.ar    1  UNL1       -0.1907
     22 C          -3.5604    3.9521   20.3181 C.ar    1  UNL1        0.1837
     23 N          -2.6902    5.1435   20.5888 N.ar    1  UNL1       -0.0599
     24 O          -1.3163    4.6463   20.9289 O.2     1  UNL1       -0.3326
     25 N           1.3852    0.3846   20.9996 N.ar    1  UNL1       -0.2478
     26 C           0.1403    0.9698   20.4014 C.ar    1  UNL1        0.1014
     27 C          -0.1759    2.2379   21.1378 C.ar    1  UNL1        0.0956
     28 C           0.8736    2.4363   22.1910 C.ar    1  UNL1        0.1264
     29 N           1.8384    1.2909   22.1056 N.ar    1  UNL1       -0.1675
     30 C           2.0587   -0.8842   20.5675 C.3     1  UNL1        0.1448
     31 C           2.9117   -0.8980   19.3338 C.3     1  UNL1        0.0988
     32 C           3.5226   -3.4232   19.3207 C.3     1  UNL1        0.0897
     33 N           3.9207   -1.9895   19.1318 N.3     1  UNL1       -0.2686
     34 C           5.3277   -1.6471   18.7407 C.3     1  UNL1        0.0897
@<TRIPOS>BOND
     1    32    33    1
     2    33    34    1
     3    33    31    1
     4    31    30    1
     5    30    25    1
     6    25    26   ar
     7    26    27   ar
     8    27    20    1
     9    20    21   ar
    10    21    22   ar
    11    22     1    1
    12     1     5    1
    13     5     6   ar
    14     6     7   ar
    15     7     8   ar
    16     8    11    1
    17    11    12   ar
    18    12    13   ar
    19    13    14   ar
    20    14    15    1
    21    14    16   ar
    22    16    17   ar
    23     8     9   ar
    24     9    10   ar
    25     1     2    1
    26     2     3    1
    27     3     4    1
    28    22    23   ar
    29    23    24   ar
    30    27    28   ar
    31    28    29   ar
    32    29    25   ar
    33    24    20   ar
    34     4     1    1
    35    10     5   ar
    36    17    11   ar
    37    15    18    1
    38    15    19    1
@<TRIPOS>MOLECULE
*****
 34 38 0 0 0
SMALL
GASTEIGER

@<TRIPOS>ATOM
      1 C           3.8566   -1.0404   18.8010 C.3     1  UNL1        0.0744
      2 C           3.5033    0.0772   17.8650 C.3     1  UNL1        0.0113
      3 C           4.3296   -0.5627   16.7891 C.3     1  UNL1        0.0015
      4 C           4.6829   -1.6803   17.7250 C.3     1  UNL1        0.0113
      5 C           3.0303   -0.4005   19.8771 C.ar    1  UNL1       -0.0159
      6 C           3.6648    0.5600   20.8387 C.ar    1  UNL1       -0.0039
      7 C           2.8384    1.1998   21.9147 C.ar    1  UNL1       -0.0002
      8 C           1.3776    0.8791   22.0290 C.ar    1  UNL1        0.0030
      9 C           0.7431   -0.0814   21.0674 C.ar    1  UNL1       -0.0002
     10 C           1.5694   -0.7212   19.9914 C.ar    1  UNL1       -0.0039
     11 C           0.5512    1.5189   23.1051 C.ar    1  UNL1        0.0384
     12 C          -0.3163    2.6992   22.7825 C.ar    1  UNL1        0.1033
     13 N          -1.1427    3.3391   23.8585 N.ar    1  UNL1       -0.2125
     14 C          -1.1014    2.7986   25.2572 C.ar    1  UNL1        0.2137
     15 N          -1.9277    3.4384   26.3332 N.pl3   1  UNL1       -0.3274
     16 N          -0.2337    1.6182   25.5797 N.ar    1  UNL1       -0.2125
     17 C           0.5925    0.9784   24.5037 C.ar    1  UNL1        0.1033
     18 H          -2.4971    4.2131   26.1215 H       1  UNL1        0.1452
     19 H          -1.9005    3.0836   27.2511 H       1  UNL1        0.1452
     20 C           5.2561   -3.4356   21.5158 C.ar    1  UNL1        0.2628
     21 N           5.2306   -2.0993   20.8347 N.ar    1  UNL1       -0.1907
     22 C           4.2099   -2.1580   19.7370 C.ar    1  UNL1        0.1837
     23 N           3.6048   -3.5305   19.7396 N.ar    1  UNL1       -0.0599
     24 O           4.2513   -4.3201   20.8390 O.2     1  UNL1       -0.3326
     25 N           6.9660   -4.1493   24.9263 N.ar    1  UNL1       -0.2478
     26 C           5.8140   -3.6221   24.1232 C.ar    1  UNL1        0.1014
     27 C           6.1326   -3.8198   22.6708 C.ar    1  UNL1        0.0956
     28 C           7.4814   -4.4691   22.5763 C.ar    1  UNL1        0.1264
     29 N           7.9966   -4.6728   23.9703 N.ar    1  UNL1       -0.1675
     30 C           7.0694   -4.1525   26.4228 C.3     1  UNL1        0.1448
     31 C           6.6027   -5.3447   27.2043 C.3     1  UNL1        0.0988
     32 C           7.3356   -7.6070   26.1580 C.3     1  UNL1        0.0897
     33 N           7.4431   -6.5863   27.2518 N.3     1  UNL1       -0.2686
     34 C           8.3911   -6.8070   28.3931 C.3     1  UNL1        0.0897
@<TRIPOS>BOND
     1    32    33    1
     2    33    34    1
     3    33    31    1
     4    31    30    1
     5    30    25    1
     6    25    26   ar
     7    26    27   ar
     8    27    20    1
     9    20    21   ar
    10    21    22   ar
    11    22     1    1
    12     1     5    1
    13     5     6   ar
    14     6     7   ar
    15     7     8   ar
    16     8    11    1
    17    11    12   ar
    18    12    13   ar
    19    13    14   ar
    20    14    15    1
    21    14    16   ar
    22    16    17   ar
    23     8     9   ar
    24     9    10   ar
    25     1     2    1
    26     2     3    1
    27     3     4    1
    28    22    23   ar
    29    23    24   ar
    30    27    28   ar
    31    28    29   ar
    32    29    25   ar
    33    24    20   ar
    34     4     1    1
    35    10     5   ar
    36    17    11   ar
    37    15    18    1
    38    15    19    1
@<TRIPOS>MOLECULE
*****
 34 38 0 0 0
SMALL
GASTEIGER

@<TRIPOS>ATOM
      1 C           3.8889   -3.0096   20.2006 C.3     1  UNL1        0.0744
      2 C           3.2392   -3.6585   19.0146 C.3     1  UNL1        0.0113
      3 C           3.7844   -4.9884   19.4435 C.3     1  UNL1        0.0015
      4 C           4.4342   -4.3395   20.6295 C.3     1  UNL1        0.0113
      5 C           3.3437   -1.6796   19.7717 C.ar    1  UNL1       -0.0159
      6 C           3.8748   -1.0142   18.5367 C.ar    1  UNL1       -0.0039
      7 C           3.3296    0.3157   18.1079 C.ar    1  UNL1       -0.0002
      8 C           2.2532    0.9803   18.9139 C.ar    1  UNL1        0.0030
      9 C           1.7220    0.3149   20.1489 C.ar    1  UNL1       -0.0002
     10 C           2.2673   -1.0150   20.5777 C.ar    1  UNL1       -0.0039
     11 C           1.7079    2.3103   18.4850 C.ar    1  UNL1        0.0384
     12 C           0.2418    2.4661   18.2090 C.ar    1  UNL1        0.1033
     13 N          -0.3034    3.7961   17.7800 N.ar    1  UNL1       -0.2125
     14 C           0.6175    4.9702   17.6272 C.ar    1  UNL1        0.2137
     15 N           0.0723    6.3001   17.1983 N.pl3   1  UNL1       -0.3274
     16 N           2.0837    4.8143   17.9033 N.ar    1  UNL1       -0.2125
     17 C           2.6289    3.4844   18.3322 C.ar    1  UNL1        0.1033
     18 H          -0.8899    6.4024   17.0171 H       1  UNL1        0.1452
     19 H           0.6768    7.0707   17.0980 H       1  UNL1        0.1452
     20 C           5.1429   -1.8042   23.6705 C.ar    1  UNL1        0.2628
     21 N           4.2804   -2.6946   22.8260 N.ar    1  UNL1       -0.1907
     22 C           4.5387   -2.3606   21.3866 C.ar    1  UNL1        0.1837
     23 N           5.5610   -1.2638   21.3415 N.ar    1  UNL1       -0.0599
     24 O           5.9344   -0.9199   22.7530 O.2     1  UNL1       -0.3326
     25 N           6.0019   -2.0446   27.4479 N.ar    1  UNL1       -0.2478
     26 C           6.3803   -2.2062   26.0055 C.ar    1  UNL1        0.1014
     27 C           5.2034   -1.7990   25.1692 C.ar    1  UNL1        0.0956
     28 C           4.0979   -1.3856   26.0948 C.ar    1  UNL1        0.1264
     29 N           4.5913   -1.5374   27.5032 N.ar    1  UNL1       -0.1675
     30 C           6.8800   -2.3384   28.6281 C.3     1  UNL1        0.1448
     31 C           6.2672   -2.6054   29.9709 C.3     1  UNL1        0.0988
     32 C           6.6198   -3.9070   32.1916 C.3     1  UNL1        0.0897
     33 N           6.5702   -3.8850   30.6926 N.3     1  UNL1       -0.2686
     34 C           6.8237   -5.1426   29.9153 C.3     1  UNL1        0.0897
@<TRIPOS>BOND
     1    32    33    1
     2    33    34    1
     3    33    31    1
     4    31    30    1
     5    30    25    1
     6    25    26   ar
     7    26    27   ar
     8    27    20    1
     9    20    21   ar
    10    21    22   ar
    11    22     1    1
    12     1     5    1
    13     5     6   ar
    14     6     7   ar
    15     7     8   ar
    16     8    11    1
    17    11    12   ar
    18    12    13   ar
    19    13    14   ar
    20    14    15    1
    21    14    16   ar
    22    16    17   ar
    23     8     9   ar
    24     9    10   ar
    25     1     2    1
    26     2     3    1
    27     3     4    1
    28    22    23   ar
    29    23    24   ar
    30    27    28   ar
    31    28    29   ar
    32    29    25   ar
    33    24    20   ar
    34     4     1    1
    35    10     5   ar
    36    17    11   ar
    37    15    18    1
    38    15    19    1
@<TRIPOS>MOLECULE
*****
 34 38 0 0 0
SMALL
GASTEIGER

@<TRIPOS>ATOM
      1 C          -5.1970    4.6291   19.3724 C.3     1  UNL1        0.0744
      2 C          -6.4883    5.2816   18.9765 C.3     1  UNL1        0.0113
      3 C          -6.1769    5.0216   17.5324 C.3     1  UNL1        0.0015
      4 C          -4.8856    4.3691   17.9283 C.3     1  UNL1        0.0113
      5 C          -5.5084    4.8891   20.8166 C.ar    1  UNL1       -0.0159
      6 C          -6.6463    4.1710   21.4795 C.ar    1  UNL1       -0.0039
      7 C          -6.9576    4.4311   22.9236 C.ar    1  UNL1       -0.0002
      8 C          -6.1310    5.4091   23.7047 C.ar    1  UNL1        0.0030
      9 C          -4.9931    6.1272   23.0418 C.ar    1  UNL1       -0.0002
     10 C          -4.6818    5.8672   21.5977 C.ar    1  UNL1       -0.0039
     11 C          -6.4424    5.6692   25.1489 C.ar    1  UNL1        0.0384
     12 C          -7.7759    6.2346   25.5386 C.ar    1  UNL1        0.1033
     13 N          -8.0873    6.4946   26.9828 N.ar    1  UNL1       -0.2125
     14 C          -7.0650    6.1891   28.0372 C.ar    1  UNL1        0.2137
     15 N          -7.3763    6.4491   29.4813 N.pl3   1  UNL1       -0.3274
     16 N          -5.7315    5.6236   27.6474 N.ar    1  UNL1       -0.2125
     17 C          -5.4202    5.3636   26.2033 C.ar    1  UNL1        0.1033
     18 H          -8.2516    6.8203   29.7371 H       1  UNL1        0.1452
     19 H          -6.7054    6.2486   30.1733 H       1  UNL1        0.1452
     20 C          -1.5590    3.3621   19.8472 C.ar    1  UNL1        0.2628
     21 N          -2.5649    4.2236   19.1429 N.ar    1  UNL1       -0.1907
     22 C          -3.9058    3.9766   19.7683 C.ar    1  UNL1        0.1837
     23 N          -3.7286    2.9624   20.8593 N.ar    1  UNL1       -0.0599
     24 O          -2.2782    2.5826   20.9080 O.2     1  UNL1       -0.3326
     25 N           2.0926    2.4633   18.8870 N.ar    1  UNL1       -0.2478
     26 C           0.6516    2.0836   19.0576 C.ar    1  UNL1        0.1014
     27 C          -0.0917    3.2924   19.5440 C.ar    1  UNL1        0.0956
     28 C           0.8900    4.4190   19.6739 C.ar    1  UNL1        0.1264
     29 N           2.2401    3.9066   19.2678 N.ar    1  UNL1       -0.1675
     30 C           3.1932    1.5585   18.4177 C.3     1  UNL1        0.1448
     31 C           2.8785    0.1580   17.9824 C.3     1  UNL1        0.0988
     32 C           4.3082   -1.9240   18.5915 C.3     1  UNL1        0.0897
     33 N           3.1706   -0.9951   18.8962 N.3     1  UNL1       -0.2686
     34 C           2.3251   -1.2192   20.1148 C.3     1  UNL1        0.0897
@<TRIPOS>BOND
     1    32    33    1
     2    33    34    1
     3    33    31    1
     4    31    30    1
     5    30    25    1
     6    25    26   ar
     7    26    27   ar
     8    27    20    1
     9    20    21   ar
    10    21    22   ar
    11    22     1    1
    12     1     5    1
    13     5     6   ar
    14     6     7   ar
    15     7     8   ar
    16     8    11    1
    17    11    12   ar
    18    12    13   ar
    19    13    14   ar
    20    14    15    1
    21    14    16   ar
    22    16    17   ar
    23     8     9   ar
    24     9    10   ar
    25     1     2    1
    26     2     3    1
    27     3     4    1
    28    22    23   ar
    29    23    24   ar
    30    27    28   ar
    31    28    29   ar
    32    29    25   ar
    33    24    20   ar
    34     4     1    1
    35    10     5   ar
    36    17    11   ar
    37    15    18    1
    38    15    19    1
@<TRIPOS>MOLECULE
*****
 34 38 0 0 0
SMALL
GASTEIGER

@<TRIPOS>ATOM
      1 C          -0.9966    2.7937   25.7877 C.3     1  UNL1        0.0744
      2 C          -2.1316    3.1890   26.6851 C.3     1  UNL1        0.0113
      3 C          -2.8900    3.7055   25.4985 C.3     1  UNL1        0.0015
      4 C          -1.7550    3.3102   24.6011 C.3     1  UNL1        0.0113
      5 C          -0.2381    2.2772   26.9743 C.ar    1  UNL1       -0.0159
      6 C          -0.7277    1.0633   27.7069 C.ar    1  UNL1       -0.0039
      7 C           0.0308    0.5469   28.8935 C.ar    1  UNL1       -0.0002
      8 C           1.2788    1.2443   29.3474 C.ar    1  UNL1        0.0030
      9 C           1.7684    2.4582   28.6148 C.ar    1  UNL1       -0.0002
     10 C           1.0099    2.9746   27.4282 C.ar    1  UNL1       -0.0039
     11 C           2.0373    0.7278   30.5340 C.ar    1  UNL1        0.0384
     12 C           2.1635    1.5707   31.7683 C.ar    1  UNL1        0.1033
     13 N           2.9220    1.0542   32.9550 N.ar    1  UNL1       -0.2125
     14 C           3.5542   -0.3052   32.9072 C.ar    1  UNL1        0.2137
     15 N           4.3126   -0.8217   34.0938 N.pl3   1  UNL1       -0.3274
     16 N           3.4279   -1.1481   31.6728 N.ar    1  UNL1       -0.2125
     17 C           2.6695   -0.6316   30.4863 C.ar    1  UNL1        0.1033
     18 H           4.3955   -0.2685   34.9039 H       1  UNL1        0.1452
     19 H           4.7276   -1.7140   34.0624 H       1  UNL1        0.1452
     20 C           1.8110    1.0769   23.7295 C.ar    1  UNL1        0.2628
     21 N           0.6858    1.0122   24.7193 N.ar    1  UNL1       -0.1907
     22 C           0.1384    2.3984   24.8902 C.ar    1  UNL1        0.1837
     23 N           0.9254    3.3197   24.0060 N.ar    1  UNL1       -0.0599
     24 O           1.9591    2.5030   23.2886 O.2     1  UNL1       -0.3326
     25 N           3.6708   -1.7608   21.8445 N.ar    1  UNL1       -0.2478
     26 C           2.7255   -0.5962   21.8563 C.ar    1  UNL1        0.1014
     27 C           2.6421   -0.0811   23.2627 C.ar    1  UNL1        0.0956
     28 C           3.5357   -0.9274   24.1200 C.ar    1  UNL1        0.1264
     29 N           4.1715   -1.9656   23.2436 N.ar    1  UNL1       -0.1675
     30 C           4.0489   -2.5774   20.6444 C.3     1  UNL1        0.1448
     31 C           3.5427   -2.1929   19.2858 C.3     1  UNL1        0.0988
     32 C           5.6154   -0.6642   18.9444 C.3     1  UNL1        0.0897
     33 N           4.3090   -1.2108   18.4501 N.3     1  UNL1       -0.2686
     34 C           3.7688   -0.7755   17.1202 C.3     1  UNL1        0.0897
@<TRIPOS>BOND
     1    32    33    1
     2    33    34    1
     3    33    31    1
     4    31    30    1
     5    30    25    1
     6    25    26   ar
     7    26    27   ar
     8    27    20    1
     9    20    21   ar
    10    21    22   ar
    11    22     1    1
    12     1     5    1
    13     5     6   ar
    14     6     7   ar
    15     7     8   ar
    16     8    11    1
    17    11    12   ar
    18    12    13   ar
    19    13    14   ar
    20    14    15    1
    21    14    16   ar
    22    16    17   ar
    23     8     9   ar
    24     9    10   ar
    25     1     2    1
    26     2     3    1
    27     3     4    1
    28    22    23   ar
    29    23    24   ar
    30    27    28   ar
    31    28    29   ar
    32    29    25   ar
    33    24    20   ar
    34     4     1    1
    35    10     5   ar
    36    17    11   ar
    37    15    18    1
    38    15    19    1
@<TRIPOS>MOLECULE
*****
 34 38 0 0 0
SMALL
GASTEIGER

@<TRIPOS>ATOM
      1 C           3.9129   -2.8713   20.2397 C.3     1  UNL1        0.0744
      2 C           3.4872   -3.4817   18.9374 C.3     1  UNL1        0.0113
      3 C           4.0318   -4.8072   19.3807 C.3     1  UNL1        0.0015
      4 C           4.4575   -4.1968   20.6830 C.3     1  UNL1        0.0113
      5 C           3.3683   -1.5458   19.7965 C.ar    1  UNL1       -0.0159
      6 C           1.9069   -1.2456   19.9515 C.ar    1  UNL1       -0.0039
      7 C           1.3624    0.0799   19.5082 C.ar    1  UNL1       -0.0002
      8 C           2.2793    1.1052   18.9101 C.ar    1  UNL1        0.0030
      9 C           3.7407    0.8051   18.7551 C.ar    1  UNL1       -0.0002
     10 C           4.2853   -0.5204   19.1983 C.ar    1  UNL1       -0.0039
     11 C           1.7347    2.4308   18.4668 C.ar    1  UNL1        0.0384
     12 C           2.6568    3.6016   18.2970 C.ar    1  UNL1        0.1033
     13 N           2.1122    4.9272   17.8538 N.ar    1  UNL1       -0.2125
     14 C           0.6455    5.0818   17.5804 C.ar    1  UNL1        0.2137
     15 N           0.1009    6.4073   17.1372 N.pl3   1  UNL1       -0.3274
     16 N          -0.2766    3.9109   17.7502 N.ar    1  UNL1       -0.2125
     17 C           0.2680    2.5855   18.1934 C.ar    1  UNL1        0.1033
     18 H           0.7061    7.1758   17.0257 H       1  UNL1        0.1452
     19 H          -0.8618    6.5088   16.9577 H       1  UNL1        0.1452
     20 C           4.2750   -1.2068   23.7274 C.ar    1  UNL1        0.2628
     21 N           3.4260   -1.7165   22.6008 N.ar    1  UNL1       -0.1907
     22 C           4.3386   -2.2609   21.5421 C.ar    1  UNL1        0.1837
     23 N           5.7518   -2.0876   22.0145 N.ar    1  UNL1       -0.0599
     24 O           5.7124   -1.4362   23.3651 O.2     1  UNL1       -0.3326
     25 N           2.4695    0.7445   26.5553 N.ar    1  UNL1       -0.2478
     26 C           2.6150    0.3662   25.1112 C.ar    1  UNL1        0.1014
     27 C           3.7745   -0.5782   24.9940 C.ar    1  UNL1        0.0956
     28 C           4.3456   -0.7836   26.3657 C.ar    1  UNL1        0.1264
     29 N           3.5390    0.0340   27.3308 N.ar    1  UNL1       -0.1675
     30 C           1.4358    1.6708   27.1244 C.3     1  UNL1        0.1448
     31 C           0.0358    1.1831   27.3524 C.3     1  UNL1        0.0988
     32 C          -1.3495   -0.3926   28.8848 C.3     1  UNL1        0.0897
     33 N          -0.3945    0.7527   28.7234 N.3     1  UNL1       -0.2686
     34 C           0.1301    1.4679   29.9331 C.3     1  UNL1        0.0897
@<TRIPOS>BOND
     1    32    33    1
     2    33    34    1
     3    33    31    1
     4    31    30    1
     5    30    25    1
     6    25    26   ar
     7    26    27   ar
     8    27    20    1
     9    20    21   ar
    10    21    22   ar
    11    22     1    1
    12     1     5    1
    13     5     6   ar
    14     6     7   ar
    15     7     8   ar
    16     8    11    1
    17    11    12   ar
    18    12    13   ar
    19    13    14   ar
    20    14    15    1
    21    14    16   ar
    22    16    17   ar
    23     8     9   ar
    24     9    10   ar
    25     1     2    1
    26     2     3    1
    27     3     4    1
    28    22    23   ar
    29    23    24   ar
    30    27    28   ar
    31    28    29   ar
    32    29    25   ar
    33    24    20   ar
    34     4     1    1
    35    10     5   ar
    36    17    11   ar
    37    15    18    1
    38    15    19    1
@<TRIPOS>MOLECULE
*****
 34 38 0 0 0
SMALL
GASTEIGER

@<TRIPOS>ATOM
      1 C           8.3632   -5.7792   24.7048 C.3     1  UNL1        0.0744
      2 C           8.5376   -7.0114   23.8674 C.3     1  UNL1        0.0113
      3 C           9.2043   -7.7008   25.0207 C.3     1  UNL1        0.0015
      4 C           9.0298   -6.4687   25.8581 C.3     1  UNL1        0.0113
      5 C           7.6965   -5.0897   23.5514 C.ar    1  UNL1       -0.0159
      6 C           6.3281   -4.4990   23.7201 C.ar    1  UNL1       -0.0039
      7 C           5.6615   -3.8095   22.5668 C.ar    1  UNL1       -0.0002
      8 C           6.3633   -3.7108   21.2448 C.ar    1  UNL1        0.0030
      9 C           7.7316   -4.3016   21.0761 C.ar    1  UNL1       -0.0002
     10 C           8.3982   -4.9910   22.2294 C.ar    1  UNL1       -0.0039
     11 C           5.6966   -3.0213   20.0914 C.ar    1  UNL1        0.0384
     12 C           6.4511   -2.7953   18.8149 C.ar    1  UNL1        0.1033
     13 N           5.7844   -2.1058   17.6615 N.ar    1  UNL1       -0.2125
     14 C           4.3632   -1.6423   17.7848 C.ar    1  UNL1        0.2137
     15 N           3.6965   -0.9528   16.6315 N.pl3   1  UNL1       -0.3274
     16 N           3.6086   -1.8683   19.0614 N.ar    1  UNL1       -0.2125
     17 C           4.2753   -2.5578   20.2146 C.ar    1  UNL1        0.1033
     18 H           4.1917   -0.8045   15.7936 H       1  UNL1        0.1452
     19 H           2.7637   -0.6486   16.7124 H       1  UNL1        0.1452
     20 C           7.5590   -3.0546   27.3497 C.ar    1  UNL1        0.2628
     21 N           7.5017   -4.4760   26.8738 N.ar    1  UNL1       -0.1907
     22 C           8.1887   -4.5471   25.5422 C.ar    1  UNL1        0.1837
     23 N           8.6706   -3.1696   25.1951 N.ar    1  UNL1       -0.0599
     24 O           8.2814   -2.2472   26.3122 O.2     1  UNL1       -0.3326
     25 N           6.1595   -2.4171   30.9133 N.ar    1  UNL1       -0.2478
     26 C           6.7204   -3.3392   29.8717 C.ar    1  UNL1        0.1014
     27 C           6.9932   -2.5324   28.6369 C.ar    1  UNL1        0.0956
     28 C           6.6010   -1.1116   28.9154 C.ar    1  UNL1        0.1264
     29 N           6.0857   -1.0404   30.3224 N.ar    1  UNL1       -0.1675
     30 C           5.7451   -2.8038   32.3022 C.3     1  UNL1        0.1448
     31 C           4.4228   -2.3485   32.8445 C.3     1  UNL1        0.0988
     32 C           4.9819   -0.8046   34.8579 C.3     1  UNL1        0.0897
     33 N           4.3117   -1.0207   33.5335 N.3     1  UNL1       -0.2686
     34 C           3.5304    0.0910   32.8980 C.3     1  UNL1        0.0897
@<TRIPOS>BOND
     1    32    33    1
     2    33    34    1
     3    33    31    1
     4    31    30    1
     5    30    25    1
     6    25    26   ar
     7    26    27   ar
     8    27    20    1
     9    20    21   ar
    10    21    22   ar
    11    22     1    1
    12     1     5    1
    13     5     6   ar
    14     6     7   ar
    15     7     8   ar
    16     8    11    1
    17    11    12   ar
    18    12    13   ar
    19    13    14   ar
    20    14    15    1
    21    14    16   ar
    22    16    17   ar
    23     8     9   ar
    24     9    10   ar
    25     1     2    1
    26     2     3    1
    27     3     4    1
    28    22    23   ar
    29    23    24   ar
    30    27    28   ar
    31    28    29   ar
    32    29    25   ar
    33    24    20   ar
    34     4     1    1
    35    10     5   ar
    36    17    11   ar
    37    15    18    1
    38    15    19    1
@<TRIPOS>MOLECULE
*****
 34 38 0 0 0
SMALL
GASTEIGER

@<TRIPOS>ATOM
      1 C           4.1013   -2.7019   20.0502 C.3     1  UNL1        0.0744
      2 C           3.5948   -3.3255   18.7835 C.3     1  UNL1        0.0113
      3 C           4.5268   -4.4840   18.9812 C.3     1  UNL1        0.0015
      4 C           5.0333   -3.8604   20.2479 C.3     1  UNL1        0.0113
      5 C           3.1693   -1.5432   19.8525 C.ar    1  UNL1       -0.0159
      6 C           3.3076   -0.6674   18.6427 C.ar    1  UNL1       -0.0039
      7 C           2.3757    0.4912   18.4451 C.ar    1  UNL1       -0.0002
      8 C           1.3054    0.7739   19.4573 C.ar    1  UNL1        0.0030
      9 C           1.1671   -0.1020   20.6672 C.ar    1  UNL1       -0.0002
     10 C           2.0991   -1.2605   20.8648 C.ar    1  UNL1       -0.0039
     11 C           0.3734    1.9325   19.2597 C.ar    1  UNL1        0.0384
     12 C          -0.5497    2.3497   20.3659 C.ar    1  UNL1        0.1033
     13 N          -1.4817    3.5083   20.1683 N.ar    1  UNL1       -0.2125
     14 C          -1.4906    4.2498   18.8643 C.ar    1  UNL1        0.2137
     15 N          -2.4225    5.4084   18.6667 N.pl3   1  UNL1       -0.3274
     16 N          -0.5674    3.8326   17.7581 N.ar    1  UNL1       -0.2125
     17 C           0.3645    2.6740   17.9558 C.ar    1  UNL1        0.1033
     18 H          -3.0284    5.6822   19.3927 H       1  UNL1        0.1452
     19 H          -2.4283    5.8950   17.8108 H       1  UNL1        0.1452
     20 C           4.9510   -1.5786   23.6671 C.ar    1  UNL1        0.2628
     21 N           4.1996   -2.4559   22.7101 N.ar    1  UNL1       -0.1907
     22 C           4.6078   -2.0783   21.3169 C.ar    1  UNL1        0.1837
     23 N           5.6115   -0.9677   21.4129 N.ar    1  UNL1       -0.0599
     24 O           5.8236   -0.6588   22.8654 O.2     1  UNL1       -0.3326
     25 N           4.0554   -1.2706   27.4311 N.ar    1  UNL1       -0.2478
     26 C           3.7618   -0.9892   25.9873 C.ar    1  UNL1        0.1014
     27 C           4.8479   -1.6147   25.1630 C.ar    1  UNL1        0.0956
     28 C           5.8126   -2.2826   26.0974 C.ar    1  UNL1        0.1264
     29 N           5.3228   -2.0700   27.4993 N.ar    1  UNL1       -0.1675
     30 C           3.2270   -0.8299   28.6014 C.3     1  UNL1        0.1448
     31 C           1.9926   -0.0072   28.3792 C.3     1  UNL1        0.0988
     32 C           2.0628    0.9143   30.8074 C.3     1  UNL1        0.0897
     33 N           1.3029    0.6399   29.5436 N.3     1  UNL1       -0.2686
     34 C          -0.1466    1.0126   29.4440 C.3     1  UNL1        0.0897
@<TRIPOS>BOND
     1    32    33    1
     2    33    34    1
     3    33    31    1
     4    31    30    1
     5    30    25    1
     6    25    26   ar
     7    26    27   ar
     8    27    20    1
     9    20    21   ar
    10    21    22   ar
    11    22     1    1
    12     1     5    1
    13     5     6   ar
    14     6     7   ar
    15     7     8   ar
    16     8    11    1
    17    11    12   ar
    18    12    13   ar
    19    13    14   ar
    20    14    15    1
    21    14    16   ar
    22    16    17   ar
    23     8     9   ar
    24     9    10   ar
    25     1     2    1
    26     2     3    1
    27     3     4    1
    28    22    23   ar
    29    23    24   ar
    30    27    28   ar
    31    28    29   ar
    32    29    25   ar
    33    24    20   ar
    34     4     1    1
    35    10     5   ar
    36    17    11   ar
    37    15    18    1
    38    15    19    1
