@<TRIPOS>MOLECULE
*****
 31 34 0 0 0
SMALL
GASTEIGER

@<TRIPOS>ATOM
      1 C           7.4613   -4.7419   23.2721 C.ar    1  UNL1        0.0644
      2 C           8.1786   -6.0584   23.3190 C.ar    1  UNL1        0.0155
      3 C           8.3836   -6.7545   24.6318 C.ar    1  UNL1       -0.0032
      4 C           7.8712   -6.1339   25.8978 C.ar    1  UNL1       -0.0246
      5 C           7.1539   -4.8175   25.8508 C.ar    1  UNL1       -0.0234
      6 C           6.9489   -4.1214   24.5380 C.ar    1  UNL1        0.0113
      7 C           6.5679   -4.0307   26.9856 C.3     1  UNL1        0.0434
      8 C           6.5545   -4.3662   28.4476 C.3     1  UNL1        0.0771
      9 N           7.1238   -5.5712   29.1357 N.3     1  UNL1       -0.2671
     10 C           7.8471   -6.7385   28.5321 C.3     1  UNL1        0.0771
     11 C           8.1798   -6.9889   27.0910 C.3     1  UNL1        0.0434
     12 N           7.2563   -4.0459   21.9592 N.pl3   1  UNL1       -0.2150
     13 H           7.9400   -4.1137   21.2541 H       1  UNL1        0.1737
     14 S           6.0096   -3.2465   21.7208 S.O2    1  UNL1        0.0736
     15 O           6.8032   -1.9779   21.8246 O.2     1  UNL1       -0.1499
     16 O           5.2161   -4.5152   21.6169 O.2     1  UNL1       -0.1499
     17 C           2.2696   -0.8485   21.0054 C.ar    1  UNL1        0.0685
     18 C           2.9279   -0.8272   22.3530 C.ar    1  UNL1        0.0117
     19 C           4.1746   -1.6265   22.5916 C.ar    1  UNL1        0.0209
     20 C           4.7629   -2.4472   21.4823 C.ar    1  UNL1        0.1252
     21 C           4.1046   -2.4685   20.1346 C.ar    1  UNL1        0.0209
     22 C           2.8579   -1.6692   19.8962 C.ar    1  UNL1        0.0117
     23 N          -0.2237    0.7502   20.5283 N.1     1  UNL1       -0.1908
     24 C           1.0229   -0.0492   20.7669 C.1     1  UNL1        0.1004
     25 C           6.9464   -5.6149   30.6246 C.3     1  UNL1        0.1180
     26 C           7.0307   -4.3505   31.4274 C.ar    1  UNL1        0.0693
     27 C           8.2758   -3.5586   31.6969 C.ar    1  UNL1        0.0379
     28 C           7.8992   -2.3749   32.5377 C.ar    1  UNL1        0.1211
     29 N           6.4215   -2.4351   32.7878 N.ar    1  UNL1       -0.1713
     30 N           5.8846   -3.6562   32.1016 N.ar    1  UNL1       -0.2784
     31 H           4.9451   -3.9503   32.0949 H       1  UNL1        0.1886
@<TRIPOS>BOND
     1    23    24    3
     2    24    17    1
     3    17    18   ar
     4    18    19   ar
     5    19    20   ar
     6    20    14    1
     7    14    15    2
     8    14    16    2
     9    14    12    1
    10    12     1    1
    11     1     2   ar
    12     2     3   ar
    13     3     4   ar
    14     4     5   ar
    15     5     6   ar
    16     5     7    1
    17     7     8    1
    18     8     9    1
    19     9    25    1
    20    25    26    1
    21    26    27   ar
    22    27    28   ar
    23    28    29   ar
    24    29    30   ar
    25     9    10    1
    26    10    11    1
    27    20    21   ar
    28    21    22   ar
    29    22    17   ar
    30     6     1   ar
    31    30    26   ar
    32    11     4    1
    33    12    13    1
    34    30    31    1
@<TRIPOS>MOLECULE
*****
 31 34 0 0 0
SMALL
GASTEIGER

@<TRIPOS>ATOM
      1 C           3.7532   -2.0770   19.0431 C.ar    1  UNL1        0.0644
      2 C           3.9046   -1.2694   17.7882 C.ar    1  UNL1        0.0155
      3 C           3.1248    0.0002   17.6147 C.ar    1  UNL1       -0.0032
      4 C           2.1936    0.4621   18.6962 C.ar    1  UNL1       -0.0246
      5 C           2.0423   -0.3455   19.9510 C.ar    1  UNL1       -0.0234
      6 C           2.8220   -1.6150   20.1246 C.ar    1  UNL1        0.0113
      7 C           1.1756   -0.0674   21.1433 C.3     1  UNL1        0.0434
      8 C           0.2462    1.0870   21.3751 C.3     1  UNL1        0.0771
      9 N          -0.0460    2.2483   20.4719 N.3     1  UNL1       -0.2671
     10 C           0.5190    2.5422   19.1138 C.3     1  UNL1        0.0771
     11 C           1.5157    1.7473   18.3235 C.3     1  UNL1        0.0434
     12 N           4.5330   -3.3466   19.2165 N.pl3   1  UNL1       -0.2150
     13 H           4.5279   -4.0284   18.5064 H       1  UNL1        0.1737
     14 S           5.3207   -3.5773   20.4721 S.O2    1  UNL1        0.0736
     15 O           4.3623   -4.6588   20.8746 O.2     1  UNL1       -0.1499
     16 O           6.2790   -2.4958   20.0696 O.2     1  UNL1       -0.1499
     17 C           7.6837   -4.2695   24.2387 C.ar    1  UNL1        0.0685
     18 C           8.3387   -4.4406   22.9003 C.ar    1  UNL1        0.0117
     19 C           7.5512   -4.2099   21.6447 C.ar    1  UNL1        0.0209
     20 C           6.1083   -3.8081   21.7276 C.ar    1  UNL1        0.1252
     21 C           5.4532   -3.6370   23.0662 C.ar    1  UNL1        0.0209
     22 C           6.2408   -3.8677   24.3217 C.ar    1  UNL1        0.0117
     23 N           9.2588   -4.7310   26.7499 N.1     1  UNL1       -0.1908
     24 C           8.4712   -4.5002   25.4943 C.1     1  UNL1        0.1004
     25 C          -1.0338    3.2480   20.9961 C.3     1  UNL1        0.1180
     26 C          -2.3869    3.3700   20.3601 C.ar    1  UNL1        0.0693
     27 C          -2.6972    4.0833   19.0775 C.ar    1  UNL1        0.0379
     28 C          -4.1692    3.9542   18.8199 C.ar    1  UNL1        0.1211
     29 N          -4.7687    3.1612   19.9431 N.ar    1  UNL1       -0.1713
     30 N          -3.6671    2.8001   20.8951 N.ar    1  UNL1       -0.2784
     31 H          -3.7669    2.2803   21.7252 H       1  UNL1        0.1886
@<TRIPOS>BOND
     1    23    24    3
     2    24    17    1
     3    17    18   ar
     4    18    19   ar
     5    19    20   ar
     6    20    14    1
     7    14    15    2
     8    14    16    2
     9    14    12    1
    10    12     1    1
    11     1     2   ar
    12     2     3   ar
    13     3     4   ar
    14     4     5   ar
    15     5     6   ar
    16     5     7    1
    17     7     8    1
    18     8     9    1
    19     9    25    1
    20    25    26    1
    21    26    27   ar
    22    27    28   ar
    23    28    29   ar
    24    29    30   ar
    25     9    10    1
    26    10    11    1
    27    20    21   ar
    28    21    22   ar
    29    22    17   ar
    30     6     1   ar
    31    30    26   ar
    32    11     4    1
    33    12    13    1
    34    30    31    1
@<TRIPOS>MOLECULE
*****
 31 34 0 0 0
SMALL
GASTEIGER

@<TRIPOS>ATOM
      1 C           7.0711   -4.1404   31.8298 C.ar    1  UNL1        0.0644
      2 C           8.3674   -3.3918   31.7338 C.ar    1  UNL1        0.0155
      3 C           8.4644   -1.9896   32.2580 C.ar    1  UNL1       -0.0032
      4 C           7.2650   -1.3362   32.8781 C.ar    1  UNL1       -0.0246
      5 C           5.9688   -2.0848   32.9741 C.ar    1  UNL1       -0.0234
      6 C           5.8718   -3.4869   32.4499 C.ar    1  UNL1        0.0113
      7 C           4.6629   -1.6237   33.5505 C.3     1  UNL1        0.0434
      8 C           4.3309   -0.3000   34.1732 C.3     1  UNL1        0.0771
      9 N           5.2226    0.8893   34.3734 N.3     1  UNL1       -0.2671
     10 C           6.6667    1.0489   34.0003 C.3     1  UNL1        0.0771
     11 C           7.5757    0.0584   33.3348 C.3     1  UNL1        0.0434
     12 N           6.9742   -5.5424   31.3056 N.pl3   1  UNL1       -0.2150
     13 H           6.7237   -6.2778   31.9103 H       1  UNL1        0.1737
     14 S           7.2591   -5.8240   29.8600 S.O2    1  UNL1        0.0736
     15 O           6.1502   -4.8961   29.4608 O.2     1  UNL1       -0.1499
     16 O           8.3679   -6.7520   30.2593 O.2     1  UNL1       -0.1499
     17 C           8.1136   -6.6687   25.5234 C.ar    1  UNL1        0.0685
     18 C           8.9213   -7.3433   26.5922 C.ar    1  UNL1        0.0117
     19 C           8.6365   -7.0618   28.0378 C.ar    1  UNL1        0.0209
     20 C           7.5439   -6.1056   28.4145 C.ar    1  UNL1        0.1252
     21 C           6.7362   -5.4309   27.3456 C.ar    1  UNL1        0.0209
     22 C           7.0210   -5.7124   25.9001 C.ar    1  UNL1        0.0117
     23 N           8.6832   -7.2317   22.6323 N.1     1  UNL1       -0.1908
     24 C           8.3984   -6.9502   24.0778 C.1     1  UNL1        0.1004
     25 C           4.5862    2.0761   35.0340 C.3     1  UNL1        0.1180
     26 C           3.7357    1.8881   36.2553 C.ar    1  UNL1        0.0693
     27 C           4.1545    1.2088   37.5254 C.ar    1  UNL1        0.0379
     28 C           2.9947    1.2474   38.4758 C.ar    1  UNL1        0.1211
     29 N           1.8591    1.9506   37.7932 N.ar    1  UNL1       -0.1713
     30 N           2.3171    2.3466   36.4208 N.ar    1  UNL1       -0.2784
     31 H           1.7807    2.8237   35.7470 H       1  UNL1        0.1886
@<TRIPOS>BOND
     1    23    24    3
     2    24    17    1
     3    17    18   ar
     4    18    19   ar
     5    19    20   ar
     6    20    14    1
     7    14    15    2
     8    14    16    2
     9    14    12    1
    10    12     1    1
    11     1     2   ar
    12     2     3   ar
    13     3     4   ar
    14     4     5   ar
    15     5     6   ar
    16     5     7    1
    17     7     8    1
    18     8     9    1
    19     9    25    1
    20    25    26    1
    21    26    27   ar
    22    27    28   ar
    23    28    29   ar
    24    29    30   ar
    25     9    10    1
    26    10    11    1
    27    20    21   ar
    28    21    22   ar
    29    22    17   ar
    30     6     1   ar
    31    30    26   ar
    32    11     4    1
    33    12    13    1
    34    30    31    1
@<TRIPOS>MOLECULE
*****
 31 34 0 0 0
SMALL
GASTEIGER

@<TRIPOS>ATOM
      1 C          -0.2245    3.4074   19.0967 C.ar    1  UNL1        0.0644
      2 C          -1.3695    3.7772   18.2010 C.ar    1  UNL1        0.0155
      3 C          -2.7250    4.0414   18.7868 C.ar    1  UNL1       -0.0032
      4 C          -2.9353    3.9357   20.2683 C.ar    1  UNL1       -0.0246
      5 C          -1.7903    3.5659   21.1638 C.ar    1  UNL1       -0.0234
      6 C          -0.4350    3.3017   20.5781 C.ar    1  UNL1        0.0113
      7 C          -1.7832    3.4068   22.6554 C.3     1  UNL1        0.0434
      8 C          -2.9194    3.5783   23.6197 C.3     1  UNL1        0.0771
      9 N          -4.3431    3.9512   23.3305 N.3     1  UNL1       -0.2671
     10 C          -4.9826    4.2447   22.0058 C.3     1  UNL1        0.0771
     11 C          -4.3560    4.2378   20.6429 C.3     1  UNL1        0.0434
     12 N           1.1308    3.1432   18.5108 N.pl3   1  UNL1       -0.2150
     13 H           1.6018    3.8545   18.0193 H       1  UNL1        0.1737
     14 S           1.7686    1.7954   18.6740 S.O2    1  UNL1        0.0736
     15 O           0.5870    1.1556   18.0073 O.2     1  UNL1       -0.1499
     16 O           2.9502    2.4353   19.3407 O.2     1  UNL1       -0.1499
     17 C           3.6820   -2.2480   19.1634 C.ar    1  UNL1        0.0685
     18 C           2.7708   -1.7155   20.2292 C.ar    1  UNL1        0.0117
     19 C           2.1330   -0.3677   20.0662 C.ar    1  UNL1        0.0209
     20 C           2.4064    0.4476   18.8371 C.ar    1  UNL1        0.1252
     21 C           3.3177   -0.0849   17.7712 C.ar    1  UNL1        0.0209
     22 C           3.9555   -1.4327   17.9344 C.ar    1  UNL1        0.0117
     23 N           4.9578   -4.9436   19.4894 N.1     1  UNL1       -0.1908
     24 C           4.3199   -3.5958   19.3265 C.1     1  UNL1        0.1004
     25 C          -5.2471    4.0427   24.5240 C.3     1  UNL1        0.1180
     26 C          -6.6176    4.6360   24.3832 C.ar    1  UNL1        0.0693
     27 C          -7.0417    5.9967   24.8511 C.ar    1  UNL1        0.0379
     28 C          -8.4908    6.1743   24.5067 C.ar    1  UNL1        0.1211
     29 N          -8.9623    4.9237   23.8260 N.ar    1  UNL1       -0.1713
     30 N          -7.8046    3.9728   23.7496 N.ar    1  UNL1       -0.2784
     31 H          -7.8210    3.0718   23.3533 H       1  UNL1        0.1886
@<TRIPOS>BOND
     1    23    24    3
     2    24    17    1
     3    17    18   ar
     4    18    19   ar
     5    19    20   ar
     6    20    14    1
     7    14    15    2
     8    14    16    2
     9    14    12    1
    10    12     1    1
    11     1     2   ar
    12     2     3   ar
    13     3     4   ar
    14     4     5   ar
    15     5     6   ar
    16     5     7    1
    17     7     8    1
    18     8     9    1
    19     9    25    1
    20    25    26    1
    21    26    27   ar
    22    27    28   ar
    23    28    29   ar
    24    29    30   ar
    25     9    10    1
    26    10    11    1
    27    20    21   ar
    28    21    22   ar
    29    22    17   ar
    30     6     1   ar
    31    30    26   ar
    32    11     4    1
    33    12    13    1
    34    30    31    1
@<TRIPOS>MOLECULE
*****
 31 34 0 0 0
SMALL
GASTEIGER

@<TRIPOS>ATOM
      1 C          -0.5407    2.8305   21.0014 C.ar    1  UNL1        0.0644
      2 C          -0.2515    2.7382   22.4703 C.ar    1  UNL1        0.0155
      3 C           0.7286    1.7231   22.9794 C.ar    1  UNL1       -0.0032
      4 C           1.4194    0.8004   22.0195 C.ar    1  UNL1       -0.0246
      5 C           1.1301    0.8928   20.5507 C.ar    1  UNL1       -0.0234
      6 C           0.1501    1.9078   20.0415 C.ar    1  UNL1        0.0113
      7 C           1.7040    0.0756   19.4312 C.3     1  UNL1        0.0434
      8 C           2.7089   -1.0357   19.5044 C.3     1  UNL1        0.0771
      9 N           3.3880   -1.6042   20.7149 N.3     1  UNL1       -0.2671
     10 C           3.2301   -1.2020   22.1513 C.3     1  UNL1        0.0771
     11 C           2.3539   -0.1319   22.7319 C.3     1  UNL1        0.0434
     12 N          -1.5208    3.8456   20.4923 N.pl3   1  UNL1       -0.2150
     13 H          -1.2817    4.4219   19.7308 H       1  UNL1        0.1737
     14 S          -2.8651    3.9825   21.1436 S.O2    1  UNL1        0.0736
     15 O          -2.4685    5.3261   21.6798 O.2     1  UNL1       -0.1499
     16 O          -3.2617    2.6389   20.6074 O.2     1  UNL1       -0.1499
     17 C          -6.8979    4.3932   23.0975 C.ar    1  UNL1        0.0685
     18 C          -5.7156    3.9455   23.9046 C.ar    1  UNL1        0.0117
     19 C          -4.3712    3.8085   23.2534 C.ar    1  UNL1        0.0209
     20 C          -4.2094    4.1194   21.7949 C.ar    1  UNL1        0.1252
     21 C          -5.3918    4.5671   20.9877 C.ar    1  UNL1        0.0209
     22 C          -6.7360    4.7040   21.6390 C.ar    1  UNL1        0.0117
     23 N          -9.5865    4.6670   24.4000 N.1     1  UNL1       -0.1908
     24 C          -8.2422    4.5301   23.7487 C.1     1  UNL1        0.1004
     25 C           4.3527   -2.7230   20.4546 C.3     1  UNL1        0.1180
     26 C           5.5402   -2.4981   19.5662 C.ar    1  UNL1        0.0693
     27 C           6.9046   -2.0620   20.0116 C.ar    1  UNL1        0.0379
     28 C           7.7793   -1.9642   18.7970 C.ar    1  UNL1        0.1211
     29 N           6.9556   -2.3397   17.6010 N.ar    1  UNL1       -0.1713
     30 N           5.5717   -2.6697   18.0763 N.ar    1  UNL1       -0.2784
     31 H           4.8167   -2.9498   17.5100 H       1  UNL1        0.1886
@<TRIPOS>BOND
     1    23    24    3
     2    24    17    1
     3    17    18   ar
     4    18    19   ar
     5    19    20   ar
     6    20    14    1
     7    14    15    2
     8    14    16    2
     9    14    12    1
    10    12     1    1
    11     1     2   ar
    12     2     3   ar
    13     3     4   ar
    14     4     5   ar
    15     5     6   ar
    16     5     7    1
    17     7     8    1
    18     8     9    1
    19     9    25    1
    20    25    26    1
    21    26    27   ar
    22    27    28   ar
    23    28    29   ar
    24    29    30   ar
    25     9    10    1
    26    10    11    1
    27    20    21   ar
    28    21    22   ar
    29    22    17   ar
    30     6     1   ar
    31    30    26   ar
    32    11     4    1
    33    12    13    1
    34    30    31    1
@<TRIPOS>MOLECULE
*****
 31 34 0 0 0
SMALL
GASTEIGER

@<TRIPOS>ATOM
      1 C           1.0264    2.2249   25.1549 C.ar    1  UNL1        0.0644
      2 C           2.0448    1.4554   25.9427 C.ar    1  UNL1        0.0155
      3 C           2.8365    0.3655   25.2828 C.ar    1  UNL1       -0.0032
      4 C           2.6096    0.0451   23.8350 C.ar    1  UNL1       -0.0246
      5 C           1.5912    0.8146   23.0473 C.ar    1  UNL1       -0.0234
      6 C           0.7995    1.9045   23.7072 C.ar    1  UNL1        0.0113
      7 C           1.2110    0.6578   21.6047 C.3     1  UNL1        0.0434
      8 C           1.7556   -0.3074   20.5937 C.3     1  UNL1        0.0771
      9 N           2.8146   -1.3538   20.7755 N.3     1  UNL1       -0.2671
     10 C           3.5908   -1.6939   22.0133 C.3     1  UNL1        0.0771
     11 C           3.4995   -1.0713   23.3749 C.3     1  UNL1        0.0434
     12 N           0.2348    3.3148   25.8149 N.pl3   1  UNL1       -0.2150
     13 H           0.6599    3.8929   26.4889 H       1  UNL1        0.1737
     14 S          -1.2045    3.5239   25.4477 S.O2    1  UNL1        0.0736
     15 O          -1.5879    2.3299   26.2709 O.2     1  UNL1       -0.1499
     16 O          -0.8211    4.7178   24.6246 O.2     1  UNL1       -0.1499
     17 C          -5.5223    4.1511   24.3464 C.ar    1  UNL1        0.0685
     18 C          -4.5097    3.8645   23.2776 C.ar    1  UNL1        0.0117
     19 C          -3.0704    3.6554   23.6447 C.ar    1  UNL1        0.0209
     20 C          -2.6438    3.7330   25.0806 C.ar    1  UNL1        0.1252
     21 C          -3.6564    4.0196   26.1495 C.ar    1  UNL1        0.0209
     22 C          -5.0957    4.2287   25.7824 C.ar    1  UNL1        0.0117
     23 N          -8.4010    4.5693   23.6125 N.1     1  UNL1       -0.1908
     24 C          -6.9616    4.3602   23.9794 C.1     1  UNL1        0.1004
     25 C           3.1407   -2.1681   19.5587 C.3     1  UNL1        0.1180
     26 C           4.4334   -1.9450   18.8311 C.ar    1  UNL1        0.0693
     27 C           5.1873   -0.6507   18.7496 C.ar    1  UNL1        0.0379
     28 C           6.4189   -0.8829   17.9255 C.ar    1  UNL1        0.1211
     29 N           6.4262   -2.3206   17.4977 N.ar    1  UNL1       -0.1713
     30 N           5.1991   -2.9770   18.0574 N.ar    1  UNL1       -0.2784
     31 H           4.9415   -3.9197   17.9379 H       1  UNL1        0.1886
@<TRIPOS>BOND
     1    23    24    3
     2    24    17    1
     3    17    18   ar
     4    18    19   ar
     5    19    20   ar
     6    20    14    1
     7    14    15    2
     8    14    16    2
     9    14    12    1
    10    12     1    1
    11     1     2   ar
    12     2     3   ar
    13     3     4   ar
    14     4     5   ar
    15     5     6   ar
    16     5     7    1
    17     7     8    1
    18     8     9    1
    19     9    25    1
    20    25    26    1
    21    26    27   ar
    22    27    28   ar
    23    28    29   ar
    24    29    30   ar
    25     9    10    1
    26    10    11    1
    27    20    21   ar
    28    21    22   ar
    29    22    17   ar
    30     6     1   ar
    31    30    26   ar
    32    11     4    1
    33    12    13    1
    34    30    31    1
@<TRIPOS>MOLECULE
*****
 31 34 0 0 0
SMALL
GASTEIGER

@<TRIPOS>ATOM
      1 C           3.8251   -0.6839   31.0769 C.ar    1  UNL1        0.0644
      2 C           4.6888   -1.7155   31.7400 C.ar    1  UNL1        0.0155
      3 C           4.9966   -1.6072   33.2042 C.ar    1  UNL1       -0.0032
      4 C           4.4406   -0.4672   34.0051 C.ar    1  UNL1       -0.0246
      5 C           3.5770    0.5643   33.3419 C.ar    1  UNL1       -0.0234
      6 C           3.2692    0.4561   31.8779 C.ar    1  UNL1        0.0113
      7 C           2.9264    1.7710   33.9508 C.3     1  UNL1        0.0434
      8 C           2.9789    2.2441   35.3734 C.3     1  UNL1        0.0771
      9 N           3.6949    1.6273   36.5382 N.3     1  UNL1       -0.2671
     10 C           4.5352    0.3851   36.5683 C.3     1  UNL1        0.0771
     11 C           4.8671   -0.5470   35.4410 C.3     1  UNL1        0.0434
     12 N           3.5174   -0.7922   29.6128 N.pl3   1  UNL1       -0.2150
     13 H           4.0408   -1.4016   29.0436 H       1  UNL1        0.1737
     14 S           2.4124    0.0280   29.0160 S.O2    1  UNL1        0.0736
     15 O           1.4078   -0.7346   29.8281 O.2     1  UNL1       -0.1499
     16 O           3.4169    0.7905   28.2040 O.2     1  UNL1       -0.1499
     17 C          -0.9029    2.4886   27.2257 C.ar    1  UNL1        0.0685
     18 C           0.5238    2.9242   27.0680 C.ar    1  UNL1        0.0117
     19 C           1.6289    2.1041   27.6648 C.ar    1  UNL1        0.0209
     20 C           1.3073    0.8482   28.4193 C.ar    1  UNL1        0.1252
     21 C          -0.1194    0.4124   28.5770 C.ar    1  UNL1        0.0209
     22 C          -1.2244    1.2326   27.9802 C.ar    1  UNL1        0.0117
     23 N          -3.1131    4.1288   26.0323 N.1     1  UNL1       -0.1908
     24 C          -2.0080    3.3087   26.6290 C.1     1  UNL1        0.1004
     25 C           3.5516    2.3479   37.8459 C.3     1  UNL1        0.1180
     26 C           2.4528    1.9696   38.7944 C.ar    1  UNL1        0.0693
     27 C           1.8178    0.6158   38.9133 C.ar    1  UNL1        0.0379
     28 C           0.7687    0.6883   39.9828 C.ar    1  UNL1        0.1211
     29 N           0.7551    2.0868   40.5250 N.ar    1  UNL1       -0.1713
     30 N           1.7960    2.8788   39.7905 N.ar    1  UNL1       -0.2784
     31 H           2.0104    3.8285   39.9365 H       1  UNL1        0.1886
@<TRIPOS>BOND
     1    23    24    3
     2    24    17    1
     3    17    18   ar
     4    18    19   ar
     5    19    20   ar
     6    20    14    1
     7    14    15    2
     8    14    16    2
     9    14    12    1
    10    12     1    1
    11     1     2   ar
    12     2     3   ar
    13     3     4   ar
    14     4     5   ar
    15     5     6   ar
    16     5     7    1
    17     7     8    1
    18     8     9    1
    19     9    25    1
    20    25    26    1
    21    26    27   ar
    22    27    28   ar
    23    28    29   ar
    24    29    30   ar
    25     9    10    1
    26    10    11    1
    27    20    21   ar
    28    21    22   ar
    29    22    17   ar
    30     6     1   ar
    31    30    26   ar
    32    11     4    1
    33    12    13    1
    34    30    31    1
@<TRIPOS>MOLECULE
*****
 31 34 0 0 0
SMALL
GASTEIGER

@<TRIPOS>ATOM
      1 C           4.2603   -0.8068   31.8002 C.ar    1  UNL1        0.0644
      2 C           4.4730   -1.7174   32.9730 C.ar    1  UNL1        0.0155
      3 C           5.3853   -2.9015   32.8475 C.ar    1  UNL1       -0.0032
      4 C           6.0849   -3.1749   31.5491 C.ar    1  UNL1       -0.0246
      5 C           5.8722   -2.2644   30.3763 C.ar    1  UNL1       -0.0234
      6 C           4.9599   -1.0804   30.5018 C.ar    1  UNL1        0.0113
      7 C           6.4672   -2.3546   29.0023 C.3     1  UNL1        0.0434
      8 C           7.4218   -3.3777   28.4618 C.3     1  UNL1        0.0771
      9 N           8.0172   -4.5631   29.1618 N.3     1  UNL1       -0.2671
     10 C           7.8051   -5.0184   30.5752 C.3     1  UNL1        0.0771
     11 C           6.9451   -4.4006   31.6377 C.3     1  UNL1        0.0434
     12 N           3.3480    0.3772   31.9257 N.pl3   1  UNL1       -0.2150
     13 H           3.3140    0.8852   32.7683 H       1  UNL1        0.1737
     14 S           2.4876    0.7871   30.7674 S.O2    1  UNL1        0.0736
     15 O           3.0894    2.1606   30.8064 O.2     1  UNL1       -0.1499
     16 O           1.8858   -0.5863   30.7284 O.2     1  UNL1       -0.1499
     17 C          -0.0936    2.0170   27.2925 C.ar    1  UNL1        0.0685
     18 C           1.0195    2.9106   27.7532 C.ar    1  UNL1        0.0117
     19 C           1.8799    2.5007   28.9115 C.ar    1  UNL1        0.0209
     20 C           1.6272    1.1971   29.6091 C.ar    1  UNL1        0.1252
     21 C           0.5140    0.3034   29.1484 C.ar    1  UNL1        0.0209
     22 C          -0.3464    0.7133   27.9901 C.ar    1  UNL1        0.0117
     23 N          -1.8146    2.8366   24.9760 N.1     1  UNL1       -0.1908
     24 C          -0.9541    2.4268   26.1342 C.1     1  UNL1        0.1004
     25 C           8.9478   -5.4046   28.3397 C.3     1  UNL1        0.1180
     26 C           8.3947   -6.4268   27.3914 C.ar    1  UNL1        0.0693
     27 C           8.4786   -6.3775   25.8946 C.ar    1  UNL1        0.0379
     28 C           7.7964   -7.5980   25.3517 C.ar    1  UNL1        0.1211
     29 N           7.2909   -8.4018   26.5128 N.ar    1  UNL1       -0.1713
     30 N           7.6607   -7.6779   27.7736 N.ar    1  UNL1       -0.2784
     31 H           7.4573   -7.9723   28.6908 H       1  UNL1        0.1886
@<TRIPOS>BOND
     1    23    24    3
     2    24    17    1
     3    17    18   ar
     4    18    19   ar
     5    19    20   ar
     6    20    14    1
     7    14    15    2
     8    14    16    2
     9    14    12    1
    10    12     1    1
    11     1     2   ar
    12     2     3   ar
    13     3     4   ar
    14     4     5   ar
    15     5     6   ar
    16     5     7    1
    17     7     8    1
    18     8     9    1
    19     9    25    1
    20    25    26    1
    21    26    27   ar
    22    27    28   ar
    23    28    29   ar
    24    29    30   ar
    25     9    10    1
    26    10    11    1
    27    20    21   ar
    28    21    22   ar
    29    22    17   ar
    30     6     1   ar
    31    30    26   ar
    32    11     4    1
    33    12    13    1
    34    30    31    1
@<TRIPOS>MOLECULE
*****
 31 34 0 0 0
SMALL
GASTEIGER

@<TRIPOS>ATOM
      1 C           1.0964    2.2332   24.9326 C.ar    1  UNL1        0.0644
      2 C           0.0792    2.6832   23.9262 C.ar    1  UNL1        0.0155
      3 C           0.0425    2.0548   22.5646 C.ar    1  UNL1       -0.0032
      4 C           1.0229    0.9765   22.2095 C.ar    1  UNL1       -0.0246
      5 C           2.0399    0.5266   23.2159 C.ar    1  UNL1       -0.0234
      6 C           2.0768    1.1548   24.5775 C.ar    1  UNL1        0.0113
      7 C           3.1001   -0.5244   23.0686 C.3     1  UNL1        0.0434
      8 C           3.4049   -1.3849   21.8783 C.3     1  UNL1        0.0771
      9 N           2.7249   -1.4070   20.5416 N.3     1  UNL1       -0.2671
     10 C           1.5721   -0.5741   20.0648 C.3     1  UNL1        0.0771
     11 C           0.8146    0.4867   20.8071 C.3     1  UNL1        0.0434
     12 N           1.1331    2.8616   26.2941 N.pl3   1  UNL1       -0.2150
     13 H           0.8308    3.7906   26.4159 H       1  UNL1        0.1737
     14 S           1.6305    2.0744   27.4702 S.O2    1  UNL1        0.0736
     15 O           2.9305    2.8211   27.4202 O.2     1  UNL1       -0.1499
     16 O           0.3305    1.3277   27.5202 O.2     1  UNL1       -0.1499
     17 C           3.1224   -0.2870   30.9984 C.ar    1  UNL1        0.0685
     18 C           3.4068   -0.7612   29.6041 C.ar    1  UNL1        0.0117
     19 C           2.9095    0.0258   28.4280 C.ar    1  UNL1        0.0209
     20 C           2.1278    1.2873   28.6463 C.ar    1  UNL1        0.1252
     21 C           1.8434    1.7617   30.0406 C.ar    1  UNL1        0.0209
     22 C           2.3407    0.9745   31.2167 C.ar    1  UNL1        0.0117
     23 N           4.1170   -1.8610   33.3507 N.1     1  UNL1       -0.1908
     24 C           3.6197   -1.0740   32.1745 C.1     1  UNL1        0.1004
     25 C           3.2696   -2.3923   19.5504 C.3     1  UNL1        0.1180
     26 C           4.5177   -2.0717   18.7825 C.ar    1  UNL1        0.0693
     27 C           5.1387   -0.7142   18.6362 C.ar    1  UNL1        0.0379
     28 C           6.3686   -0.8559   17.7894 C.ar    1  UNL1        0.1211
     29 N           6.5078   -2.3010   17.4122 N.ar    1  UNL1       -0.1713
     30 N           5.3638   -3.0525   18.0260 N.ar    1  UNL1       -0.2784
     31 H           5.1975   -4.0196   17.9463 H       1  UNL1        0.1886
@<TRIPOS>BOND
     1    23    24    3
     2    24    17    1
     3    17    18   ar
     4    18    19   ar
     5    19    20   ar
     6    20    14    1
     7    14    15    2
     8    14    16    2
     9    14    12    1
    10    12     1    1
    11     1     2   ar
    12     2     3   ar
    13     3     4   ar
    14     4     5   ar
    15     5     6   ar
    16     5     7    1
    17     7     8    1
    18     8     9    1
    19     9    25    1
    20    25    26    1
    21    26    27   ar
    22    27    28   ar
    23    28    29   ar
    24    29    30   ar
    25     9    10    1
    26    10    11    1
    27    20    21   ar
    28    21    22   ar
    29    22    17   ar
    30     6     1   ar
    31    30    26   ar
    32    11     4    1
    33    12    13    1
    34    30    31    1
