@<TRIPOS>MOLECULE
*****
 16 17 0 0 0
SMALL
GASTEIGER

@<TRIPOS>ATOM
      1 O          -7.8664  -18.4997   20.2203 O.3     1  UNL1       -0.4689
      2 C          -9.0191  -18.7318   21.1517 C.ar    1  UNL1        0.1408
      3 C          -8.8277  -19.5539   22.3916 C.ar    1  UNL1        0.0483
      4 C          -9.9803  -19.7860   23.3229 C.ar    1  UNL1        0.0615
      5 CL         -9.7889  -20.6081   24.5629 Cl      1  UNL1       -0.0821
      6 C         -11.3245  -19.1961   23.0143 C.ar    1  UNL1        0.0230
      7 C         -11.5159  -18.3740   21.7744 C.ar    1  UNL1        0.0615
      8 CL        -12.8601  -17.7841   21.4657 Cl      1  UNL1       -0.0821
      9 C         -10.3633  -18.1419   20.8430 C.ar    1  UNL1        0.0483
     10 C          -6.8132  -19.5545   20.0528 C.3     1  UNL1        0.2526
     11 O          -1.7535  -20.2064   21.4149 O.2     1  UNL1       -0.2665
     12 C          -3.1721  -19.7199   21.3873 C.2     1  UNL1        0.2875
     13 C          -4.2368  -20.1606   20.4268 C.2     1  UNL1        0.0813
     14 C          -5.4978  -19.4202   20.7612 C.2     1  UNL1        0.1265
     15 N          -5.2125  -18.5220   21.9281 N.2     1  UNL1       -0.1564
     16 N          -3.7752  -18.7072   22.3151 N.am    1  UNL1       -0.0755
@<TRIPOS>BOND
     1    11    12    2
     2    12    13    1
     3    13    14    2
     4    14    10    1
     5    10     1    1
     6     1     2    1
     7     2     3   ar
     8     3     4   ar
     9     4     5    1
    10     4     6   ar
    11     6     7   ar
    12     7     8    1
    13     7     9   ar
    14    14    15    1
    15    15    16    2
    16    16    12    1
    17     9     2   ar
@<TRIPOS>MOLECULE
*****
 16 17 0 0 0
SMALL
GASTEIGER

@<TRIPOS>ATOM
      1 O          -7.8884  -18.5617   20.2051 O.3     1  UNL1       -0.4689
      2 C          -9.0417  -18.7684   21.1418 C.ar    1  UNL1        0.1408
      3 C         -10.3823  -18.1760   20.8230 C.ar    1  UNL1        0.0483
      4 C         -11.5355  -18.3827   21.7598 C.ar    1  UNL1        0.0615
      5 CL        -12.8762  -17.7903   21.4410 Cl      1  UNL1       -0.0821
      6 C         -11.3480  -19.1818   23.0153 C.ar    1  UNL1        0.0230
      7 C         -10.0073  -19.7742   23.3341 C.ar    1  UNL1        0.0615
      8 CL         -9.8198  -20.5733   24.5896 Cl      1  UNL1       -0.0821
      9 C          -8.8542  -19.5675   22.3973 C.ar    1  UNL1        0.0483
     10 C          -6.8347  -19.6203   20.0678 C.3     1  UNL1        0.2526
     11 O          -1.7614  -20.1971   21.4136 O.2     1  UNL1       -0.2665
     12 C          -3.1861  -19.7286   21.3879 C.2     1  UNL1        0.2875
     13 C          -4.2493  -20.1909   20.4359 C.2     1  UNL1        0.0813
     14 C          -5.5180  -19.4634   20.7693 C.2     1  UNL1        0.1265
     15 N          -5.2391  -18.5516   21.9272 N.2     1  UNL1       -0.1564
     16 N          -3.7979  -18.7154   22.3095 N.am    1  UNL1       -0.0755
@<TRIPOS>BOND
     1    11    12    2
     2    12    13    1
     3    13    14    2
     4    14    10    1
     5    10     1    1
     6     1     2    1
     7     2     3   ar
     8     3     4   ar
     9     4     5    1
    10     4     6   ar
    11     6     7   ar
    12     7     8    1
    13     7     9   ar
    14    14    15    1
    15    15    16    2
    16    16    12    1
    17     9     2   ar
@<TRIPOS>MOLECULE
*****
 16 17 0 0 0
SMALL
GASTEIGER

@<TRIPOS>ATOM
      1 O          -8.6950  -18.3382   22.9528 O.3     1  UNL1       -0.4689
      2 C         -10.0540  -17.8619   22.5329 C.ar    1  UNL1        0.1408
      3 C         -10.2174  -17.0914   21.2564 C.ar    1  UNL1        0.0483
      4 C         -11.5764  -16.6151   20.8365 C.ar    1  UNL1        0.0615
      5 CL        -11.7398  -15.8446   19.5600 Cl      1  UNL1       -0.0821
      6 C         -12.7720  -16.9094   21.6933 C.ar    1  UNL1        0.0230
      7 C         -12.6086  -17.6799   22.9698 C.ar    1  UNL1        0.0615
      8 CL        -13.8042  -17.9742   23.8265 Cl      1  UNL1       -0.0821
      9 C         -11.2496  -18.1562   23.3896 C.ar    1  UNL1        0.0483
     10 C          -8.0506  -19.4899   22.2399 C.3     1  UNL1        0.2526
     11 O          -2.8803  -19.5916   21.1724 O.2     1  UNL1       -0.2665
     12 C          -4.3561  -19.3484   21.0582 C.2     1  UNL1        0.2875
     13 C          -5.3943  -19.7354   22.0694 C.2     1  UNL1        0.0813
     14 C          -6.7326  -19.3016   21.5489 C.2     1  UNL1        0.1265
     15 N          -6.5215  -18.6465   20.2161 N.2     1  UNL1       -0.1564
     16 N          -5.0527  -18.6754   19.9129 N.am    1  UNL1       -0.0755
@<TRIPOS>BOND
     1    11    12    2
     2    12    13    1
     3    13    14    2
     4    14    10    1
     5    10     1    1
     6     1     2    1
     7     2     3   ar
     8     3     4   ar
     9     4     5    1
    10     4     6   ar
    11     6     7   ar
    12     7     8    1
    13     7     9   ar
    14    14    15    1
    15    15    16    2
    16    16    12    1
    17     9     2   ar
@<TRIPOS>MOLECULE
*****
 16 17 0 0 0
SMALL
GASTEIGER

@<TRIPOS>ATOM
      1 O          -6.1044  -18.2751   21.7499 O.3     1  UNL1       -0.4689
      2 C          -7.4409  -18.6029   21.1526 C.ar    1  UNL1        0.1408
      3 C          -7.5266  -19.4971   19.9514 C.ar    1  UNL1        0.0483
      4 C          -8.8629  -19.8249   19.3543 C.ar    1  UNL1        0.0615
      5 CL         -8.9487  -20.7191   18.1530 Cl      1  UNL1       -0.0821
      6 C         -10.1136  -19.2583   19.9583 C.ar    1  UNL1        0.0230
      7 C         -10.0279  -18.3641   21.1595 C.ar    1  UNL1        0.0615
      8 CL        -11.2786  -17.7975   21.7635 Cl      1  UNL1       -0.0821
      9 C          -8.6915  -18.0364   21.7567 C.ar    1  UNL1        0.0483
     10 C          -4.9674  -19.2450   21.6216 C.3     1  UNL1        0.2526
     11 O          -0.0094  -18.8042   19.8595 O.2     1  UNL1       -0.2665
     12 C          -1.5024  -18.6992   19.9599 C.2     1  UNL1        0.2875
     13 C          -2.3500  -19.2267   21.0795 C.2     1  UNL1        0.0813
     14 C          -3.7813  -18.9019   20.7698 C.2     1  UNL1        0.1265
     15 N          -3.8183  -18.1736   19.4590 N.2     1  UNL1       -0.1564
     16 N          -2.4099  -18.0484   18.9584 N.am    1  UNL1       -0.0755
@<TRIPOS>BOND
     1    11    12    2
     2    12    13    1
     3    13    14    2
     4    14    10    1
     5    10     1    1
     6     1     2    1
     7     2     3   ar
     8     3     4   ar
     9     4     5    1
    10     4     6   ar
    11     6     7   ar
    12     7     8    1
    13     7     9   ar
    14    14    15    1
    15    15    16    2
    16    16    12    1
    17     9     2   ar
@<TRIPOS>MOLECULE
*****
 16 17 0 0 0
SMALL
GASTEIGER

@<TRIPOS>ATOM
      1 O          -5.7862  -18.4190   22.0352 O.3     1  UNL1       -0.4689
      2 C          -7.1525  -18.5720   21.4353 C.ar    1  UNL1        0.1408
      3 C          -8.3214  -17.8504   22.0378 C.ar    1  UNL1        0.0483
      4 C          -9.6876  -18.0035   21.4378 C.ar    1  UNL1        0.0615
      5 CL        -10.8565  -17.2819   22.0404 Cl      1  UNL1       -0.0821
      6 C          -9.8849  -18.8782   20.2353 C.ar    1  UNL1        0.0230
      7 C          -8.7161  -19.5998   19.6328 C.ar    1  UNL1        0.0615
      8 CL         -8.9135  -20.4744   18.4303 Cl      1  UNL1       -0.0821
      9 C          -7.3499  -19.4467   20.2327 C.ar    1  UNL1        0.0483
     10 C          -4.7643  -19.5028   21.8596 C.3     1  UNL1        0.2526
     11 O          -1.3586  -18.0061   18.1123 O.2     1  UNL1       -0.2665
     12 C          -1.9246  -18.5316   19.3981 C.2     1  UNL1        0.2875
     13 C          -3.3810  -18.6452   19.7392 C.2     1  UNL1        0.0813
     14 C          -3.4900  -19.2196   21.1206 C.2     1  UNL1        0.1265
     15 N          -2.1011  -19.4609   21.6333 N.2     1  UNL1       -0.1564
     16 N          -1.1337  -19.0357   20.5688 N.am    1  UNL1       -0.0755
@<TRIPOS>BOND
     1    11    12    2
     2    12    13    1
     3    13    14    2
     4    14    10    1
     5    10     1    1
     6     1     2    1
     7     2     3   ar
     8     3     4   ar
     9     4     5    1
    10     4     6   ar
    11     6     7   ar
    12     7     8    1
    13     7     9   ar
    14    14    15    1
    15    15    16    2
    16    16    12    1
    17     9     2   ar
@<TRIPOS>MOLECULE
*****
 16 17 0 0 0
SMALL
GASTEIGER

@<TRIPOS>ATOM
      1 O          -4.4282  -16.4979   23.1948 O.3     1  UNL1       -0.4689
      2 C          -5.6728  -16.2124   23.9821 C.ar    1  UNL1        0.1408
      3 C          -5.5699  -15.7198   25.3951 C.ar    1  UNL1        0.0483
      4 C          -6.8144  -15.4343   26.1822 C.ar    1  UNL1        0.0615
      5 CL         -6.7117  -14.9417   27.5953 Cl      1  UNL1       -0.0821
      6 C          -8.1618  -15.6415   25.5563 C.ar    1  UNL1        0.0230
      7 C          -8.2646  -16.1341   24.1433 C.ar    1  UNL1        0.0615
      8 CL         -9.6120  -16.3412   23.5174 Cl      1  UNL1       -0.0821
      9 C          -7.0201  -16.4196   23.3562 C.ar    1  UNL1        0.0483
     10 C          -3.6881  -17.7859   23.4029 C.3     1  UNL1        0.2526
     11 O          -0.5954  -18.2538   19.1488 O.2     1  UNL1       -0.2665
     12 C          -1.4560  -18.5891   20.3307 C.2     1  UNL1        0.2875
     13 C          -2.1191  -17.6033   21.2465 C.2     1  UNL1        0.0813
     14 C          -2.8776  -18.3740   22.2861 C.2     1  UNL1        0.1265
     15 N          -2.6832  -19.8361   22.0128 N.2     1  UNL1       -0.1564
     16 N          -1.8047  -19.9690   20.8044 N.am    1  UNL1       -0.0755
@<TRIPOS>BOND
     1    11    12    2
     2    12    13    1
     3    13    14    2
     4    14    10    1
     5    10     1    1
     6     1     2    1
     7     2     3   ar
     8     3     4   ar
     9     4     5    1
    10     4     6   ar
    11     6     7   ar
    12     7     8    1
    13     7     9   ar
    14    14    15    1
    15    15    16    2
    16    16    12    1
    17     9     2   ar
@<TRIPOS>MOLECULE
*****
 16 17 0 0 0
SMALL
GASTEIGER

@<TRIPOS>ATOM
      1 O          -6.6882  -18.1117   20.8486 O.3     1  UNL1       -0.4689
      2 C          -7.6200  -18.0481   22.0225 C.ar    1  UNL1        0.1408
      3 C          -7.7041  -16.7976   22.8465 C.ar    1  UNL1        0.0483
      4 C          -8.6358  -16.7341   24.0202 C.ar    1  UNL1        0.0615
      5 CL         -8.7199  -15.4835   24.8443 Cl      1  UNL1       -0.0821
      6 C          -9.4836  -17.9212   24.3699 C.ar    1  UNL1        0.0230
      7 C          -9.3995  -19.1717   23.5459 C.ar    1  UNL1        0.0615
      8 CL        -10.2472  -20.3587   23.8956 Cl      1  UNL1       -0.0821
      9 C          -8.4677  -19.2352   22.3721 C.ar    1  UNL1        0.0483
     10 C          -5.8578  -19.3389   20.6158 C.3     1  UNL1        0.2526
     11 O          -0.8428  -18.4027   19.2537 O.2     1  UNL1       -0.2665
     12 C          -2.0558  -18.8202   20.0311 C.2     1  UNL1        0.2875
     13 C          -3.4784  -18.7223   19.5654 C.2     1  UNL1        0.0813
     14 C          -4.3609  -19.2506   20.6573 C.2     1  UNL1        0.1265
     15 N          -3.4838  -19.6751   21.7977 N.2     1  UNL1       -0.1564
     16 N          -2.0592  -19.4091   21.4107 N.am    1  UNL1       -0.0755
@<TRIPOS>BOND
     1    11    12    2
     2    12    13    1
     3    13    14    2
     4    14    10    1
     5    10     1    1
     6     1     2    1
     7     2     3   ar
     8     3     4   ar
     9     4     5    1
    10     4     6   ar
    11     6     7   ar
    12     7     8    1
    13     7     9   ar
    14    14    15    1
    15    15    16    2
    16    16    12    1
    17     9     2   ar
@<TRIPOS>MOLECULE
*****
 16 17 0 0 0
SMALL
GASTEIGER

@<TRIPOS>ATOM
      1 O          -8.6423  -18.3734   23.1856 O.3     1  UNL1       -0.4689
      2 C          -9.9845  -17.9144   22.6977 C.ar    1  UNL1        0.1408
      3 C         -11.2129  -18.1882   23.5137 C.ar    1  UNL1        0.0483
      4 C         -12.5550  -17.7292   23.0258 C.ar    1  UNL1        0.0615
      5 CL        -13.7835  -18.0029   23.8418 Cl      1  UNL1       -0.0821
      6 C         -12.6686  -16.9965   21.7219 C.ar    1  UNL1        0.0230
      7 C         -11.4402  -16.7228   20.9058 C.ar    1  UNL1        0.0615
      8 CL        -11.5538  -15.9901   19.6019 Cl      1  UNL1       -0.0821
      9 C         -10.0981  -17.1818   21.3937 C.ar    1  UNL1        0.0483
     10 C          -7.4004  -17.6509   22.7547 C.3     1  UNL1        0.2526
     11 O          -3.1153  -20.2589   21.1061 O.2     1  UNL1       -0.2665
     12 C          -4.4304  -19.5375   21.1158 C.2     1  UNL1        0.2875
     13 C          -5.1159  -18.9701   22.3235 C.2     1  UNL1        0.0813
     14 C          -6.4001  -18.3387   21.8736 C.2     1  UNL1        0.1265
     15 N          -6.5083  -18.5159   20.3880 N.2     1  UNL1       -0.1564
     16 N          -5.2910  -19.2568   19.9197 N.am    1  UNL1       -0.0755
@<TRIPOS>BOND
     1    11    12    2
     2    12    13    1
     3    13    14    2
     4    14    10    1
     5    10     1    1
     6     1     2    1
     7     2     3   ar
     8     3     4   ar
     9     4     5    1
    10     4     6   ar
    11     6     7   ar
    12     7     8    1
    13     7     9   ar
    14    14    15    1
    15    15    16    2
    16    16    12    1
    17     9     2   ar
@<TRIPOS>MOLECULE
*****
 16 17 0 0 0
SMALL
GASTEIGER

@<TRIPOS>ATOM
      1 O          -4.4551  -16.1606   23.1206 O.3     1  UNL1       -0.4689
      2 C          -5.7024  -16.0435   23.9456 C.ar    1  UNL1        0.1408
      3 C          -7.0365  -16.3597   23.3373 C.ar    1  UNL1        0.0483
      4 C          -8.2837  -16.2426   24.1624 C.ar    1  UNL1        0.0615
      5 CL         -9.6179  -16.5588   23.5540 Cl      1  UNL1       -0.0821
      6 C          -8.1967  -15.8092   25.5958 C.ar    1  UNL1        0.0230
      7 C          -6.8626  -15.4930   26.2041 C.ar    1  UNL1        0.0615
      8 CL         -6.7757  -15.0597   27.6375 Cl      1  UNL1       -0.0821
      9 C          -5.6155  -15.6101   25.3790 C.ar    1  UNL1        0.0483
     10 C          -3.4384  -17.2150   23.4436 C.3     1  UNL1        0.2526
     11 O          -4.0796  -20.9586   19.7755 O.2     1  UNL1       -0.2665
     12 C          -3.4507  -20.0319   20.7733 C.2     1  UNL1        0.2875
     13 C          -4.1701  -19.0104   21.6035 C.2     1  UNL1        0.0813
     14 C          -3.1559  -18.3112   22.4594 C.2     1  UNL1        0.1265
     15 N          -1.8098  -18.9005   22.1583 N.2     1  UNL1       -0.1564
     16 N          -1.9920  -19.9640   21.1163 N.am    1  UNL1       -0.0755
@<TRIPOS>BOND
     1    11    12    2
     2    12    13    1
     3    13    14    2
     4    14    10    1
     5    10     1    1
     6     1     2    1
     7     2     3   ar
     8     3     4   ar
     9     4     5    1
    10     4     6   ar
    11     6     7   ar
    12     7     8    1
    13     7     9   ar
    14    14    15    1
    15    15    16    2
    16    16    12    1
    17     9     2   ar
