@<TRIPOS>MOLECULE
*****
 22 25 0 0 0
SMALL
GASTEIGER

@<TRIPOS>ATOM
      1 C         -10.6101  -17.5343   22.6913 C.3     1  UNL1        0.0353
      2 C         -11.5962  -18.4922   22.0914 C.3     1  UNL1        0.0225
      3 C         -12.7520  -17.6964   21.5616 C.3     1  UNL1        0.0689
      4 N         -12.4803  -16.2466   21.8341 N.3     1  UNL1       -0.2972
      5 C         -11.1565  -16.1464   22.5323 C.3     1  UNL1        0.0726
      6 H         -13.2150  -15.8624   22.4283 H       1  UNL1        0.1233
      7 C          -9.4594  -16.8359   23.3534 C.2     1  UNL1       -0.0386
      8 C          -8.4585  -16.0877   22.5239 C.2     1  UNL1       -0.0065
      9 C          -7.3079  -15.3892   23.1860 C.2     1  UNL1        0.0200
     10 C          -7.1583  -15.4391   24.6777 C.2     1  UNL1        0.1007
     11 N          -6.1350  -14.8518   25.6039 N.2     1  UNL1       -0.1482
     12 N          -6.5036  -15.2370   27.0059 N.2     1  UNL1       -0.1467
     13 C          -7.7546  -16.0625   26.9462 C.2     1  UNL1        0.1197
     14 C          -8.1593  -16.1874   25.5072 C.2     1  UNL1        0.0222
     15 C          -9.3098  -16.8857   24.8451 C.3     1  UNL1        0.0515
     16 C          -9.8231  -18.7761   22.9888 C.3     1  UNL1        0.0315
     17 C          -6.6859  -20.1991   20.0935 C.ar    1  UNL1       -0.0000
     18 C          -6.4386  -20.2869   21.5703 C.ar    1  UNL1       -0.0003
     19 C          -7.4843  -19.8126   22.5354 C.ar    1  UNL1       -0.0043
     20 C          -8.7774  -19.2504   22.0237 C.ar    1  UNL1       -0.0218
     21 C          -9.0247  -19.1627   20.5468 C.ar    1  UNL1       -0.0043
     22 C          -7.9791  -19.6370   19.5816 C.ar    1  UNL1       -0.0003
@<TRIPOS>BOND
     1    17    18   ar
     2    18    19   ar
     3    19    20   ar
     4    20    16    1
     5    16     1    1
     6     1     7    1
     7     7     8    2
     8     8     9    1
     9     9    10    2
    10    10    11    1
    11    11    12    2
    12    12    13    1
    13    13    14    2
    14    14    15    1
    15     1     2    1
    16     2     3    1
    17     3     4    1
    18     4     5    1
    19    20    21   ar
    20    21    22   ar
    21    22    17   ar
    22     5     1    1
    23    15     7    1
    24    14    10    1
    25     4     6    1
@<TRIPOS>MOLECULE
*****
 22 25 0 0 0
SMALL
GASTEIGER

@<TRIPOS>ATOM
      1 C          -7.0572  -18.0278   22.4811 C.3     1  UNL1        0.0353
      2 C          -5.6262  -17.7295   22.8173 C.3     1  UNL1        0.0225
      3 C          -4.8229  -18.9715   22.5680 C.3     1  UNL1        0.0689
      4 N          -5.7575  -20.0374   22.0777 N.3     1  UNL1       -0.2972
      5 C          -7.1384  -19.4542   22.0240 C.3     1  UNL1        0.0726
      6 H          -5.7420  -20.8321   22.7169 H       1  UNL1        0.1233
      7 C          -8.5360  -18.0280   22.2294 C.2     1  UNL1       -0.0386
      8 C          -9.3967  -19.1064   22.8175 C.2     1  UNL1       -0.0065
      9 C         -10.8755  -19.1066   22.5658 C.2     1  UNL1        0.0200
     10 C         -11.4935  -18.0282   21.7260 C.2     1  UNL1        0.1007
     11 N         -12.9107  -17.7695   21.3085 N.2     1  UNL1       -0.1482
     12 N         -12.9259  -16.5311   20.4623 N.2     1  UNL1       -0.1467
     13 C         -11.5180  -16.0244   20.3569 C.2     1  UNL1        0.1197
     14 C         -10.6327  -16.9497   21.1379 C.2     1  UNL1        0.0222
     15 C          -9.1539  -16.9496   21.3896 C.3     1  UNL1        0.0515
     16 C          -7.2853  -16.6015   22.8855 C.3     1  UNL1        0.0315
     17 C          -6.9979  -15.4178   27.2176 C.ar    1  UNL1       -0.0000
     18 C          -8.2714  -16.0028   26.6828 C.ar    1  UNL1       -0.0003
     19 C          -8.3672  -16.3974   25.2388 C.ar    1  UNL1       -0.0043
     20 C          -7.1895  -16.2069   24.3295 C.ar    1  UNL1       -0.0218
     21 C          -5.9160  -15.6219   24.8643 C.ar    1  UNL1       -0.0043
     22 C          -5.8201  -15.2274   26.3083 C.ar    1  UNL1       -0.0003
@<TRIPOS>BOND
     1    17    18   ar
     2    18    19   ar
     3    19    20   ar
     4    20    16    1
     5    16     1    1
     6     1     7    1
     7     7     8    2
     8     8     9    1
     9     9    10    2
    10    10    11    1
    11    11    12    2
    12    12    13    1
    13    13    14    2
    14    14    15    1
    15     1     2    1
    16     2     3    1
    17     3     4    1
    18     4     5    1
    19    20    21   ar
    20    21    22   ar
    21    22    17   ar
    22     5     1    1
    23    15     7    1
    24    14    10    1
    25     4     6    1
@<TRIPOS>MOLECULE
*****
 22 25 0 0 0
SMALL
GASTEIGER

@<TRIPOS>ATOM
      1 C          -7.5226  -17.8724   22.5738 C.3     1  UNL1        0.0353
      2 C          -6.0237  -17.8160   22.5712 C.3     1  UNL1        0.0225
      3 C          -5.5091  -19.1806   22.2205 C.3     1  UNL1        0.0689
      4 N          -6.6900  -20.0804   22.0063 N.3     1  UNL1       -0.2972
      5 C          -7.9344  -19.2719   22.2246 C.3     1  UNL1        0.0726
      6 H          -6.6597  -20.8551   22.6692 H       1  UNL1        0.1233
      7 C          -9.0001  -17.6255   22.6528 C.2     1  UNL1       -0.0386
      8 C          -9.6340  -16.5834   21.7800 C.2     1  UNL1       -0.0065
      9 C         -11.1115  -16.3365   21.8590 C.2     1  UNL1        0.0200
     10 C         -11.9549  -17.1318   22.8108 C.2     1  UNL1        0.1007
     11 N         -13.4252  -17.1109   23.1071 N.2     1  UNL1       -0.1482
     12 N         -13.6999  -18.1402   24.1631 N.2     1  UNL1       -0.1467
     13 C         -12.3994  -18.7973   24.5194 C.2     1  UNL1        0.1197
     14 C         -11.3209  -18.1740   23.6836 C.2     1  UNL1        0.0222
     15 C          -9.8435  -18.4209   23.6046 C.3     1  UNL1        0.0515
     16 C          -7.4197  -16.4214   22.9394 C.3     1  UNL1        0.0315
     17 C          -6.5964  -15.2275   27.1994 C.ar    1  UNL1       -0.0000
     18 C          -5.4844  -15.2295   26.1927 C.ar    1  UNL1       -0.0003
     19 C          -5.7588  -15.6275   24.7728 C.ar    1  UNL1       -0.0043
     20 C          -7.1453  -16.0234   24.3594 C.ar    1  UNL1       -0.0218
     21 C          -8.2573  -16.0215   25.3661 C.ar    1  UNL1       -0.0043
     22 C          -7.9829  -15.6235   26.7861 C.ar    1  UNL1       -0.0003
@<TRIPOS>BOND
     1    17    18   ar
     2    18    19   ar
     3    19    20   ar
     4    20    16    1
     5    16     1    1
     6     1     7    1
     7     7     8    2
     8     8     9    1
     9     9    10    2
    10    10    11    1
    11    11    12    2
    12    12    13    1
    13    13    14    2
    14    14    15    1
    15     1     2    1
    16     2     3    1
    17     3     4    1
    18     4     5    1
    19    20    21   ar
    20    21    22   ar
    21    22    17   ar
    22     5     1    1
    23    15     7    1
    24    14    10    1
    25     4     6    1
@<TRIPOS>MOLECULE
*****
 22 25 0 0 0
SMALL
GASTEIGER

@<TRIPOS>ATOM
      1 C          -7.8736  -19.3144   20.4846 C.3     1  UNL1        0.0353
      2 C          -9.3127  -18.9067   20.5968 C.3     1  UNL1        0.0225
      3 C         -10.0544  -19.5003   19.4360 C.3     1  UNL1        0.0689
      4 N          -9.0737  -20.2749   18.6064 N.3     1  UNL1       -0.2972
      5 C          -7.7258  -20.1600   19.2544 C.3     1  UNL1        0.0726
      6 H          -9.0381  -19.8893   17.6627 H       1  UNL1        0.1233
      7 C          -6.4008  -19.5559   20.6362 C.2     1  UNL1       -0.0386
      8 C          -5.7566  -20.7201   19.9439 C.2     1  UNL1       -0.0065
      9 C          -4.2839  -20.9616   20.0954 C.2     1  UNL1        0.0200
     10 C          -3.4555  -20.0387   20.9393 C.2     1  UNL1        0.1007
     11 N          -1.9930  -20.0244   21.2719 N.2     1  UNL1       -0.1482
     12 N          -1.7334  -18.8512   22.1698 N.2     1  UNL1       -0.1467
     13 C          -3.0354  -18.1405   22.3921 C.2     1  UNL1        0.1197
     14 C          -4.0998  -18.8744   21.6316 C.2     1  UNL1        0.0222
     15 C          -5.5725  -18.6330   21.4800 C.3     1  UNL1        0.0515
     16 C          -7.7133  -18.5193   21.7464 C.3     1  UNL1        0.0315
     17 C         -10.3151  -19.4052   25.3096 C.ar    1  UNL1       -0.0000
     18 C         -10.0033  -17.9844   24.9433 C.ar    1  UNL1       -0.0003
     19 C          -9.1360  -17.6891   23.7555 C.ar    1  UNL1       -0.0043
     20 C          -8.5806  -18.8146   22.9341 C.ar    1  UNL1       -0.0218
     21 C          -8.8924  -20.2354   23.3004 C.ar    1  UNL1       -0.0043
     22 C          -9.7597  -20.5307   24.4881 C.ar    1  UNL1       -0.0003
@<TRIPOS>BOND
     1    17    18   ar
     2    18    19   ar
     3    19    20   ar
     4    20    16    1
     5    16     1    1
     6     1     7    1
     7     7     8    2
     8     8     9    1
     9     9    10    2
    10    10    11    1
    11    11    12    2
    12    12    13    1
    13    13    14    2
    14    14    15    1
    15     1     2    1
    16     2     3    1
    17     3     4    1
    18     4     5    1
    19    20    21   ar
    20    21    22   ar
    21    22    17   ar
    22     5     1    1
    23    15     7    1
    24    14    10    1
    25     4     6    1
@<TRIPOS>MOLECULE
*****
 22 25 0 0 0
SMALL
GASTEIGER

@<TRIPOS>ATOM
      1 C          -7.6755  -16.0412   24.8765 C.3     1  UNL1        0.0353
      2 C          -6.3518  -15.4885   25.3152 C.3     1  UNL1        0.0225
      3 C          -6.4173  -15.2476   26.7942 C.3     1  UNL1        0.0689
      4 N          -7.7815  -15.6514   27.2697 N.3     1  UNL1       -0.2972
      5 C          -8.5591  -16.1419   26.0845 C.3     1  UNL1        0.0726
      6 H          -8.2544  -14.8493   27.6861 H       1  UNL1        0.1233
      7 C          -8.8665  -16.5972   24.1537 C.2     1  UNL1       -0.0386
      8 C          -9.5868  -17.7924   24.7035 C.2     1  UNL1       -0.0065
      9 C         -10.7779  -18.3484   23.9808 C.2     1  UNL1        0.0200
     10 C         -11.2486  -17.7090   22.7081 C.2     1  UNL1        0.1007
     11 N         -12.3836  -18.0325   21.7824 N.2     1  UNL1       -0.1482
     12 N         -12.3647  -17.0372   20.6604 N.2     1  UNL1       -0.1467
     13 C         -11.2180  -16.0985   20.8927 C.2     1  UNL1        0.1197
     14 C         -10.5282  -16.5137   22.1583 C.2     1  UNL1        0.0222
     15 C          -9.3372  -15.9578   22.8811 C.3     1  UNL1        0.0515
     16 C          -7.0410  -16.0567   23.5174 C.3     1  UNL1        0.0315
     17 C          -4.0614  -19.2597   22.4620 C.ar    1  UNL1       -0.0000
     18 C          -3.6141  -18.0331   23.2005 C.ar    1  UNL1       -0.0003
     19 C          -4.6072  -16.9655   23.5524 C.ar    1  UNL1       -0.0043
     20 C          -6.0478  -17.1244   23.1656 C.ar    1  UNL1       -0.0218
     21 C          -6.4951  -18.3509   22.4271 C.ar    1  UNL1       -0.0043
     22 C          -5.5020  -19.4186   22.0752 C.ar    1  UNL1       -0.0003
@<TRIPOS>BOND
     1    17    18   ar
     2    18    19   ar
     3    19    20   ar
     4    20    16    1
     5    16     1    1
     6     1     7    1
     7     7     8    2
     8     8     9    1
     9     9    10    2
    10    10    11    1
    11    11    12    2
    12    12    13    1
    13    13    14    2
    14    14    15    1
    15     1     2    1
    16     2     3    1
    17     3     4    1
    18     4     5    1
    19    20    21   ar
    20    21    22   ar
    21    22    17   ar
    22     5     1    1
    23    15     7    1
    24    14    10    1
    25     4     6    1
@<TRIPOS>MOLECULE
*****
 22 25 0 0 0
SMALL
GASTEIGER

@<TRIPOS>ATOM
      1 C          -7.6595  -16.9982   23.4474 C.3     1  UNL1        0.0353
      2 C          -8.6727  -16.3658   24.3548 C.3     1  UNL1        0.0225
      3 C          -8.1382  -15.0333   24.7891 C.3     1  UNL1        0.0689
      4 N          -6.7946  -14.8421   24.1501 N.3     1  UNL1       -0.2972
      5 C          -6.4988  -16.0565   23.3208 C.3     1  UNL1        0.0726
      6 H          -6.0810  -14.7328   24.8707 H       1  UNL1        0.1233
      7 C          -6.8537  -17.8653   22.5260 C.2     1  UNL1       -0.0386
      8 C          -7.4907  -18.4550   21.3028 C.2     1  UNL1       -0.0065
      9 C          -6.6849  -19.3222   20.3815 C.2     1  UNL1        0.0200
     10 C          -5.2420  -19.5996   20.6835 C.2     1  UNL1        0.1007
     11 N          -4.2042  -20.4103   19.9655 N.2     1  UNL1       -0.1482
     12 N          -2.9257  -20.3216   20.7450 N.2     1  UNL1       -0.1467
     13 C          -3.1734  -19.4560   21.9448 C.2     1  UNL1        0.1197
     14 C          -4.6050  -19.0098   21.9068 C.2     1  UNL1        0.0222
     15 C          -5.4109  -18.1427   22.8281 C.3     1  UNL1        0.0515
     16 C          -8.6517  -18.1211   23.3812 C.3     1  UNL1        0.0315
     17 C         -13.0387  -17.2239   22.9340 C.ar    1  UNL1       -0.0000
     18 C         -12.0324  -16.4754   22.1112 C.ar    1  UNL1       -0.0003
     19 C         -10.5700  -16.7744   22.2603 C.ar    1  UNL1       -0.0043
     20 C         -10.1140  -17.8220   23.2322 C.ar    1  UNL1       -0.0218
     21 C         -11.1204  -18.5706   24.0550 C.ar    1  UNL1       -0.0043
     22 C         -12.5827  -18.2716   23.9060 C.ar    1  UNL1       -0.0003
@<TRIPOS>BOND
     1    17    18   ar
     2    18    19   ar
     3    19    20   ar
     4    20    16    1
     5    16     1    1
     6     1     7    1
     7     7     8    2
     8     8     9    1
     9     9    10    2
    10    10    11    1
    11    11    12    2
    12    12    13    1
    13    13    14    2
    14    14    15    1
    15     1     2    1
    16     2     3    1
    17     3     4    1
    18     4     5    1
    19    20    21   ar
    20    21    22   ar
    21    22    17   ar
    22     5     1    1
    23    15     7    1
    24    14    10    1
    25     4     6    1
@<TRIPOS>MOLECULE
*****
 22 25 0 0 0
SMALL
GASTEIGER

@<TRIPOS>ATOM
      1 C         -10.3909  -17.6607   22.2394 C.3     1  UNL1        0.0353
      2 C         -11.4483  -17.0941   23.1399 C.3     1  UNL1        0.0225
      3 C         -12.3871  -16.2817   22.2982 C.3     1  UNL1        0.0689
      4 N         -11.9100  -16.3461   20.8776 N.3     1  UNL1       -0.2972
      5 C         -10.6762  -17.1984   20.8412 C.3     1  UNL1        0.0726
      6 H         -11.6923  -15.4075   20.5426 H       1  UNL1        0.1233
      7 C          -9.2227  -18.3543   21.6034 C.2     1  UNL1       -0.0386
      8 C          -9.3808  -19.0176   20.2675 C.2     1  UNL1       -0.0065
      9 C          -8.2126  -19.7112   19.6315 C.2     1  UNL1        0.0200
     10 C          -6.8864  -19.7413   20.3315 C.2     1  UNL1        0.1007
     11 N          -5.5656  -20.3436   19.9538 N.2     1  UNL1       -0.1482
     12 N          -4.5912  -20.0525   21.0564 N.2     1  UNL1       -0.1467
     13 C          -5.3097  -19.2702   22.1156 C.2     1  UNL1        0.1197
     14 C          -6.7283  -19.0779   21.6675 C.2     1  UNL1        0.0222
     15 C          -7.8964  -18.3844   22.3035 C.3     1  UNL1        0.0515
     16 C          -9.8613  -18.2680   23.5046 C.3     1  UNL1        0.0315
     17 C          -8.2726  -15.6203   26.7781 C.ar    1  UNL1       -0.0000
     18 C          -8.2990  -15.1278   25.3615 C.ar    1  UNL1       -0.0003
     19 C          -8.8286  -16.0104   24.2703 C.ar    1  UNL1       -0.0043
     20 C          -9.3317  -17.3854   24.5957 C.ar    1  UNL1       -0.0218
     21 C          -9.3053  -17.8779   26.0123 C.ar    1  UNL1       -0.0043
     22 C          -8.7758  -16.9954   27.1035 C.ar    1  UNL1       -0.0003
@<TRIPOS>BOND
     1    17    18   ar
     2    18    19   ar
     3    19    20   ar
     4    20    16    1
     5    16     1    1
     6     1     7    1
     7     7     8    2
     8     8     9    1
     9     9    10    2
    10    10    11    1
    11    11    12    2
    12    12    13    1
    13    13    14    2
    14    14    15    1
    15     1     2    1
    16     2     3    1
    17     3     4    1
    18     4     5    1
    19    20    21   ar
    20    21    22   ar
    21    22    17   ar
    22     5     1    1
    23    15     7    1
    24    14    10    1
    25     4     6    1
@<TRIPOS>MOLECULE
*****
 22 25 0 0 0
SMALL
GASTEIGER

@<TRIPOS>ATOM
      1 C         -10.2241  -17.7874   24.4021 C.3     1  UNL1        0.0353
      2 C         -11.4766  -18.3058   23.7598 C.3     1  UNL1        0.0225
      3 C         -11.7686  -19.6584   24.3387 C.3     1  UNL1        0.0689
      4 N         -10.6966  -19.9761   25.3387 N.3     1  UNL1       -0.2972
      5 C          -9.7420  -18.8197   25.3779 C.3     1  UNL1        0.0726
      6 H         -10.2026  -20.8235   25.0591 H       1  UNL1        0.1233
      7 C          -9.0196  -17.0197   24.8604 C.2     1  UNL1       -0.0386
      8 C          -8.8901  -16.6165   26.2993 C.2     1  UNL1       -0.0065
      9 C          -7.6857  -15.8488   26.7576 C.2     1  UNL1        0.0200
     10 C          -6.6108  -15.4844   25.7769 C.2     1  UNL1        0.1007
     11 N          -5.3192  -14.7381   25.9348 N.2     1  UNL1       -0.1482
     12 N          -4.6505  -14.6802   24.5933 N.2     1  UNL1       -0.1467
     13 C          -5.5287  -15.3907   23.6064 C.2     1  UNL1        0.1197
     14 C          -6.7403  -15.8877   24.3380 C.2     1  UNL1        0.0222
     15 C          -7.9447  -16.6553   23.8797 C.3     1  UNL1        0.0515
     16 C         -10.4542  -16.5947   23.5222 C.3     1  UNL1        0.0315
     17 C         -11.4547  -17.1673   19.1723 C.ar    1  UNL1       -0.0000
     18 C         -12.0890  -16.0504   19.9471 C.ar    1  UNL1       -0.0003
     19 C         -11.7555  -15.8595   21.3970 C.ar    1  UNL1       -0.0043
     20 C         -10.7877  -16.7856   22.0722 C.ar    1  UNL1       -0.0218
     21 C         -10.1535  -17.9024   21.2975 C.ar    1  UNL1       -0.0043
     22 C         -10.4869  -18.0934   19.8475 C.ar    1  UNL1       -0.0003
@<TRIPOS>BOND
     1    17    18   ar
     2    18    19   ar
     3    19    20   ar
     4    20    16    1
     5    16     1    1
     6     1     7    1
     7     7     8    2
     8     8     9    1
     9     9    10    2
    10    10    11    1
    11    11    12    2
    12    12    13    1
    13    13    14    2
    14    14    15    1
    15     1     2    1
    16     2     3    1
    17     3     4    1
    18     4     5    1
    19    20    21   ar
    20    21    22   ar
    21    22    17   ar
    22     5     1    1
    23    15     7    1
    24    14    10    1
    25     4     6    1
@<TRIPOS>MOLECULE
*****
 22 25 0 0 0
SMALL
GASTEIGER

@<TRIPOS>ATOM
      1 C         -10.1069  -17.3660   22.2309 C.3     1  UNL1        0.0353
      2 C         -10.3693  -17.4987   20.7600 C.3     1  UNL1        0.0225
      3 C         -11.8307  -17.7805   20.5735 C.3     1  UNL1        0.0689
      4 N         -12.4715  -17.8219   21.9290 N.3     1  UNL1       -0.2972
      5 C         -11.4062  -17.5658   22.9534 C.3     1  UNL1        0.0726
      6 H         -12.8897  -18.7389   22.0863 H       1  UNL1        0.1233
      7 C          -9.5485  -17.1836   23.6112 C.2     1  UNL1       -0.0386
      8 C          -9.9813  -18.0942   24.7217 C.2     1  UNL1       -0.0065
      9 C          -9.4230  -17.9118   26.1020 C.2     1  UNL1        0.0200
     10 C          -8.4318  -16.8187   26.3716 C.2     1  UNL1        0.1007
     11 N          -7.7148  -16.3997   27.6207 N.2     1  UNL1       -0.1482
     12 N          -6.8388  -15.2301   27.2821 N.2     1  UNL1       -0.1467
     13 C          -7.0145  -14.9262   25.8237 C.2     1  UNL1        0.1197
     14 C          -7.9990  -15.9080   25.2610 C.2     1  UNL1        0.0222
     15 C          -8.5574  -16.0905   23.8808 C.3     1  UNL1        0.0515
     16 C          -8.6909  -17.1281   21.7971 C.3     1  UNL1        0.0315
     17 C          -6.0198  -20.6163   20.8234 C.ar    1  UNL1       -0.0000
     18 C          -5.6779  -19.7056   21.9652 C.ar    1  UNL1       -0.0003
     19 C          -6.5683  -18.5429   22.2897 C.ar    1  UNL1       -0.0043
     20 C          -7.8006  -18.2908   21.4725 C.ar    1  UNL1       -0.0218
     21 C          -8.1425  -19.2015   20.3307 C.ar    1  UNL1       -0.0043
     22 C          -7.2522  -20.3643   20.0061 C.ar    1  UNL1       -0.0003
@<TRIPOS>BOND
     1    17    18   ar
     2    18    19   ar
     3    19    20   ar
     4    20    16    1
     5    16     1    1
     6     1     7    1
     7     7     8    2
     8     8     9    1
     9     9    10    2
    10    10    11    1
    11    11    12    2
    12    12    13    1
    13    13    14    2
    14    14    15    1
    15     1     2    1
    16     2     3    1
    17     3     4    1
    18     4     5    1
    19    20    21   ar
    20    21    22   ar
    21    22    17   ar
    22     5     1    1
    23    15     7    1
    24    14    10    1
    25     4     6    1
