@<TRIPOS>MOLECULE
*****
 36 39 0 0 0
SMALL
GASTEIGER

@<TRIPOS>ATOM
      1 C           4.2281   -2.1085   22.1896 C.ar    1  UNL1        0.1370
      2 C           3.2354   -1.0073   21.9622 C.ar    1  UNL1        0.0379
      3 C           2.6858   -0.2404   23.1283 C.ar    1  UNL1        0.0178
      4 C           2.9173   -0.3184   24.6505 C.ar    1  UNL1        0.0504
      5 C           3.7173   -1.3225   23.8749 C.ar    1  UNL1        0.0158
      6 C           4.6712   -2.4428   23.5832 C.ar    1  UNL1        0.0425
      7 C           5.6639   -3.5441   23.8107 C.3     1  UNL1        0.1721
      8 O           6.5757   -4.4934   24.5299 O.3     1  UNL1       -0.3442
      9 C           7.2967   -5.1765   25.6541 C.3     1  UNL1        0.1686
     10 C           7.7398   -5.5107   27.0475 C.2     1  UNL1        0.0036
     11 C           7.8516   -5.4560   28.5424 C.2     1  UNL1        0.0036
     12 C           7.6186   -5.0187   29.9582 C.3     1  UNL1        0.1686
     13 O           7.0690   -4.2518   31.1243 O.3     1  UNL1       -0.3443
     14 C           6.2690   -3.2476   31.8999 C.3     1  UNL1        0.1691
     15 C           5.3151   -2.1273   32.1916 C.ar    1  UNL1        0.0073
     16 C           5.0821   -1.6901   33.6074 C.ar    1  UNL1       -0.0019
     17 C           4.1283   -0.5699   33.8990 C.ar    1  UNL1       -0.0002
     18 C           3.4073    0.1132   32.7749 C.ar    1  UNL1        0.0015
     19 C           3.6403   -0.3240   31.3591 C.ar    1  UNL1        0.0176
     20 C           4.5941   -1.4443   31.0674 C.ar    1  UNL1       -0.0004
     21 C           2.6896    0.6063   30.1208 C.ar    1  UNL1        0.0857
     22 C           1.6688    1.7603   30.0640 C.ar    1  UNL1        0.0399
     23 C           0.9479    2.4433   28.9399 C.ar    1  UNL1        0.1034
     24 N           1.1808    2.0061   27.5241 N.ar    1  UNL1       -0.2120
     25 C           2.1347    0.8858   27.2324 C.ar    1  UNL1        0.2207
     26 N           2.2465    0.9406   28.7272 N.ar    1  UNL1       -0.2135
     27 N           2.3677    0.4486   25.8166 N.pl3   1  UNL1       -0.2825
     28 H           1.7692    1.0717   25.3445 H       1  UNL1        0.1551
     29 O           4.7777   -2.8755   21.0236 O.3     1  UNL1       -0.4742
     30 C           3.9606   -3.0299   19.7752 C.3     1  UNL1        0.2226
     31 C           4.6343   -3.0462   18.4352 C.3     1  UNL1        0.1200
     32 N           5.0135   -1.7560   17.7706 N.3     1  UNL1       -0.2696
     33 C           3.1793    0.0832   17.8242 C.3     1  UNL1        0.0188
     34 C           3.9704   -0.9408   17.0654 C.3     1  UNL1        0.0722
     35 C           6.4357   -1.2812   17.8112 C.3     1  UNL1        0.0722
     36 C           7.4735   -2.0829   18.5394 C.3     1  UNL1        0.0188
@<TRIPOS>BOND
     1    33    34    1
     2    34    32    1
     3    32    35    1
     4    35    36    1
     5    32    31    1
     6    31    30    1
     7    30    29    1
     8    29     1    1
     9     1     2   ar
    10     2     3   ar
    11     3     4   ar
    12     4     5   ar
    13     5     6   ar
    14     6     7    1
    15     7     8    1
    16     8     9    1
    17     9    10    1
    18    10    11    2
    19    11    12    1
    20    12    13    1
    21    13    14    1
    22    14    15    1
    23    15    16   ar
    24    16    17   ar
    25    17    18   ar
    26    18    19   ar
    27    19    20   ar
    28    19    21    1
    29    21    22   ar
    30    22    23   ar
    31    23    24   ar
    32    24    25   ar
    33    25    26   ar
    34    25    27    1
    35     6     1   ar
    36    20    15   ar
    37    26    21   ar
    38    27     4    1
    39    27    28    1
@<TRIPOS>MOLECULE
*****
 36 39 0 0 0
SMALL
GASTEIGER

@<TRIPOS>ATOM
      1 C           5.9162   -3.4847   22.5987 C.ar    1  UNL1        0.1370
      2 C           6.9470   -4.5369   22.8819 C.ar    1  UNL1        0.0379
      3 C           7.3484   -4.8322   24.2967 C.ar    1  UNL1        0.0178
      4 C           6.9154   -4.2601   25.6612 C.ar    1  UNL1        0.0504
      5 C           6.2104   -3.6253   24.4993 C.ar    1  UNL1        0.0158
      6 C           5.2868   -2.7277   23.7305 C.ar    1  UNL1        0.0425
      7 C           4.2559   -1.6754   23.4473 C.3     1  UNL1        0.1721
      8 O           3.2423   -0.5954   23.6841 O.3     1  UNL1       -0.3442
      9 C           2.3680    0.3820   24.4123 C.3     1  UNL1        0.1686
     10 C           1.7386    1.1390   25.5439 C.2     1  UNL1        0.0036
     11 C           1.4298    1.5843   26.9427 C.2     1  UNL1        0.0036
     12 C           1.4791    1.6641   28.4397 C.3     1  UNL1        0.1686
     13 O           1.8805    1.3688   29.8545 O.3     1  UNL1       -0.3443
     14 C           2.5855    0.7341   31.0165 C.3     1  UNL1        0.1691
     15 C           3.5091   -0.1636   31.7854 C.ar    1  UNL1        0.0073
     16 C           3.5584   -0.0837   33.2825 C.ar    1  UNL1       -0.0019
     17 C           4.4819   -0.9814   34.0513 C.ar    1  UNL1       -0.0002
     18 C           5.3562   -1.9588   33.3232 C.ar    1  UNL1        0.0015
     19 C           5.3070   -2.0386   31.8261 C.ar    1  UNL1        0.0176
     20 C           4.3834   -1.1410   31.0573 C.ar    1  UNL1       -0.0004
     21 C           6.4279   -3.2733   31.1036 C.ar    1  UNL1        0.0857
     22 C           7.4646   -4.3159   31.5673 C.ar    1  UNL1        0.0399
     23 C           8.3389   -5.2933   30.8391 C.ar    1  UNL1        0.1034
     24 N           8.2896   -5.3731   29.3421 N.ar    1  UNL1       -0.2120
     25 C           7.3660   -4.4755   28.5732 C.ar    1  UNL1        0.2207
     26 N           7.0573   -4.0302   29.9719 N.ar    1  UNL1       -0.2135
     27 N           7.3167   -4.5553   27.0761 N.pl3   1  UNL1       -0.2825
     28 H           7.9820   -5.2641   26.9207 H       1  UNL1        0.1551
     29 O           5.5149   -3.1894   21.1839 O.3     1  UNL1       -0.4742
     30 C           4.4602   -4.0200   20.5147 C.3     1  UNL1        0.2226
     31 C           3.5079   -3.3843   19.5457 C.3     1  UNL1        0.1200
     32 N           3.6945   -1.9520   19.1409 N.3     1  UNL1       -0.2696
     33 C           1.6717   -0.9166   20.4003 C.3     1  UNL1        0.0188
     34 C           3.1099   -0.8537   19.9787 C.3     1  UNL1        0.0722
     35 C           4.4656   -1.6182   17.8984 C.3     1  UNL1        0.0722
     36 C           3.8084   -0.8471   16.7922 C.3     1  UNL1        0.0188
@<TRIPOS>BOND
     1    33    34    1
     2    34    32    1
     3    32    35    1
     4    35    36    1
     5    32    31    1
     6    31    30    1
     7    30    29    1
     8    29     1    1
     9     1     2   ar
    10     2     3   ar
    11     3     4   ar
    12     4     5   ar
    13     5     6   ar
    14     6     7    1
    15     7     8    1
    16     8     9    1
    17     9    10    1
    18    10    11    2
    19    11    12    1
    20    12    13    1
    21    13    14    1
    22    14    15    1
    23    15    16   ar
    24    16    17   ar
    25    17    18   ar
    26    18    19   ar
    27    19    20   ar
    28    19    21    1
    29    21    22   ar
    30    22    23   ar
    31    23    24   ar
    32    24    25   ar
    33    25    26   ar
    34    25    27    1
    35     6     1   ar
    36    20    15   ar
    37    26    21   ar
    38    27     4    1
    39    27    28    1
@<TRIPOS>MOLECULE
*****
 36 39 0 0 0
SMALL
GASTEIGER

@<TRIPOS>ATOM
      1 C           7.3700   -4.0864   27.8648 C.ar    1  UNL1        0.1370
      2 C           8.0454   -5.0090   26.8939 C.ar    1  UNL1        0.0379
      3 C           7.6682   -4.9770   25.4424 C.ar    1  UNL1        0.0178
      4 C           6.6567   -4.1446   24.6296 C.ar    1  UNL1        0.0504
      5 C           6.6698   -3.8040   26.0903 C.ar    1  UNL1        0.0158
      6 C           6.3175   -3.1318   27.3841 C.ar    1  UNL1        0.0425
      7 C           5.6420   -2.2092   28.3551 C.3     1  UNL1        0.1721
      8 O           4.7251   -1.1474   28.8858 O.3     1  UNL1       -0.3442
      9 C           3.6771   -0.0745   28.9126 C.3     1  UNL1        0.1686
     10 C           2.6246    0.8800   28.4320 C.2     1  UNL1        0.0036
     11 C           1.6945    1.6012   27.5021 C.2     1  UNL1        0.0036
     12 C           0.9989    2.0019   26.2350 C.3     1  UNL1        0.1686
     13 O           0.6218    2.0339   24.7836 O.3     1  UNL1       -0.3443
     14 C           0.6086    1.6933   23.3228 C.3     1  UNL1        0.1691
     15 C           0.9610    1.0211   22.0289 C.ar    1  UNL1        0.0073
     16 C           0.2654    1.4219   20.7618 C.ar    1  UNL1       -0.0019
     17 C           0.6177    0.7497   19.4680 C.ar    1  UNL1       -0.0002
     18 C           1.6657   -0.3232   19.4413 C.ar    1  UNL1        0.0015
     19 C           2.3613   -0.7239   20.7084 C.ar    1  UNL1        0.0176
     20 C           2.0089   -0.0518   22.0022 C.ar    1  UNL1       -0.0004
     21 C           3.6013   -2.0361   20.5005 C.ar    1  UNL1        0.0857
     22 C           4.1928   -2.9104   19.3768 C.ar    1  UNL1        0.0399
     23 C           5.2407   -3.9833   19.3501 C.ar    1  UNL1        0.1034
     24 N           5.9363   -4.3840   20.6171 N.ar    1  UNL1       -0.2120
     25 C           5.5839   -3.7119   21.9110 C.ar    1  UNL1        0.2207
     26 N           4.6538   -2.9907   20.9811 N.ar    1  UNL1       -0.2135
     27 N           6.2795   -4.1126   23.1781 N.pl3   1  UNL1       -0.2825
     28 H           6.8814   -4.8095   22.8297 H       1  UNL1        0.1551
     29 O           7.7471   -4.1184   29.3162 O.3     1  UNL1       -0.4742
     30 C           6.9549   -4.9528   30.2787 C.3     1  UNL1        0.2226
     31 C           6.8889   -4.5678   31.7269 C.3     1  UNL1        0.1200
     32 N           6.7527   -3.1249   32.1140 N.3     1  UNL1       -0.2696
     33 C           9.3254   -2.9698   32.4410 C.3     1  UNL1        0.0188
     34 C           7.9702   -2.3277   32.4772 C.3     1  UNL1        0.0722
     35 C           5.3989   -2.4795   32.1377 C.3     1  UNL1        0.0722
     36 C           4.5007   -2.6641   33.3249 C.3     1  UNL1        0.0188
@<TRIPOS>BOND
     1    33    34    1
     2    34    32    1
     3    32    35    1
     4    35    36    1
     5    32    31    1
     6    31    30    1
     7    30    29    1
     8    29     1    1
     9     1     2   ar
    10     2     3   ar
    11     3     4   ar
    12     4     5   ar
    13     5     6   ar
    14     6     7    1
    15     7     8    1
    16     8     9    1
    17     9    10    1
    18    10    11    2
    19    11    12    1
    20    12    13    1
    21    13    14    1
    22    14    15    1
    23    15    16   ar
    24    16    17   ar
    25    17    18   ar
    26    18    19   ar
    27    19    20   ar
    28    19    21    1
    29    21    22   ar
    30    22    23   ar
    31    23    24   ar
    32    24    25   ar
    33    25    26   ar
    34    25    27    1
    35     6     1   ar
    36    20    15   ar
    37    26    21   ar
    38    27     4    1
    39    27    28    1
@<TRIPOS>MOLECULE
*****
 36 39 0 0 0
SMALL
GASTEIGER

@<TRIPOS>ATOM
      1 C           1.5820    1.0842   30.5996 C.ar    1  UNL1        0.1370
      2 C           0.9216    1.7510   29.4295 C.ar    1  UNL1        0.0379
      3 C           1.2911    1.3515   28.0317 C.ar    1  UNL1        0.0178
      4 C           2.2812    0.3218   27.4518 C.ar    1  UNL1        0.0504
      5 C           2.2678    0.3549   28.9513 C.ar    1  UNL1        0.0158
      6 C           2.6121    0.0177   30.3718 C.ar    1  UNL1        0.0425
      7 C           3.2726   -0.6492   31.5418 C.3     1  UNL1        0.1721
      8 O           4.1696   -1.5653   32.3203 O.3     1  UNL1       -0.3442
      9 C           5.1949   -2.6202   32.6134 C.3     1  UNL1        0.1686
     10 C           6.2249   -3.6865   32.3856 C.2     1  UNL1        0.0036
     11 C           7.1354   -4.6358   31.6646 C.2     1  UNL1        0.0036
     12 C           7.8164   -5.3535   30.5372 C.3     1  UNL1        0.1686
     13 O           8.1860   -5.7530   29.1394 O.3     1  UNL1       -0.3443
     14 C           8.1994   -5.7862   27.6398 C.3     1  UNL1        0.1691
     15 C           7.8551   -5.4490   26.2193 C.ar    1  UNL1        0.0073
     16 C           8.5362   -6.1667   25.0919 C.ar    1  UNL1       -0.0019
     17 C           8.1919   -5.8294   23.6714 C.ar    1  UNL1       -0.0002
     18 C           7.1665   -4.7746   23.3784 C.ar    1  UNL1        0.0015
     19 C           6.4855   -4.0569   24.5058 C.ar    1  UNL1        0.0176
     20 C           6.8298   -4.3941   25.9262 C.ar    1  UNL1       -0.0004
     21 C           5.2723   -2.8111   23.9777 C.ar    1  UNL1        0.0857
     22 C           4.6939   -2.2307   22.6717 C.ar    1  UNL1        0.0399
     23 C           3.6686   -1.1759   22.3787 C.ar    1  UNL1        0.1034
     24 N           2.9875   -0.4582   23.5061 N.ar    1  UNL1       -0.2120
     25 C           3.3318   -0.7954   24.9265 C.ar    1  UNL1        0.2207
     26 N           4.2423   -1.7447   24.2055 N.ar    1  UNL1       -0.2135
     27 N           2.6507   -0.0777   26.0540 N.pl3   1  UNL1       -0.2825
     28 H           2.0620    0.5236   25.5430 H       1  UNL1        0.1551
     29 O           1.2125    1.4836   31.9974 O.3     1  UNL1       -0.4742
     30 C           1.7197    2.7753   32.5670 C.3     1  UNL1        0.2226
     31 C           0.7925    3.9451   32.7146 C.3     1  UNL1        0.1200
     32 N           0.8715    4.8157   33.9337 N.3     1  UNL1       -0.2696
     33 C           1.5810    4.3044   36.3801 C.3     1  UNL1        0.0188
     34 C           1.9475    4.5835   34.9526 C.3     1  UNL1        0.0722
     35 C          -0.1257    5.9182   34.1337 C.3     1  UNL1        0.0722
     36 C          -1.4050    5.9236   33.3506 C.3     1  UNL1        0.0188
@<TRIPOS>BOND
     1    33    34    1
     2    34    32    1
     3    32    35    1
     4    35    36    1
     5    32    31    1
     6    31    30    1
     7    30    29    1
     8    29     1    1
     9     1     2   ar
    10     2     3   ar
    11     3     4   ar
    12     4     5   ar
    13     5     6   ar
    14     6     7    1
    15     7     8    1
    16     8     9    1
    17     9    10    1
    18    10    11    2
    19    11    12    1
    20    12    13    1
    21    13    14    1
    22    14    15    1
    23    15    16   ar
    24    16    17   ar
    25    17    18   ar
    26    18    19   ar
    27    19    20   ar
    28    19    21    1
    29    21    22   ar
    30    22    23   ar
    31    23    24   ar
    32    24    25   ar
    33    25    26   ar
    34    25    27    1
    35     6     1   ar
    36    20    15   ar
    37    26    21   ar
    38    27     4    1
    39    27    28    1
@<TRIPOS>MOLECULE
*****
 36 39 0 0 0
SMALL
GASTEIGER

@<TRIPOS>ATOM
      1 C           2.8149   -0.7977   21.8152 C.ar    1  UNL1        0.1370
      2 C           3.5040   -1.7345   20.8678 C.ar    1  UNL1        0.0379
      3 C           4.4783   -2.7478   21.3910 C.ar    1  UNL1        0.0178
      4 C           4.9918   -3.0919   22.8034 C.ar    1  UNL1        0.0504
      5 C           3.9965   -1.9698   22.7892 C.ar    1  UNL1        0.0158
      6 C           3.1003   -0.8743   23.2858 C.ar    1  UNL1        0.0425
      7 C           2.4112    0.0625   24.2333 C.3     1  UNL1        0.1721
      8 O           2.0125    0.7276   25.5173 O.3     1  UNL1       -0.3442
      9 C           1.9522    1.0407   26.9830 C.3     1  UNL1        0.1686
     10 C           2.2375    0.9642   28.4536 C.2     1  UNL1        0.0036
     11 C           2.8341    0.5072   29.7518 C.2     1  UNL1        0.0036
     12 C           3.6700   -0.2752   30.7209 C.3     1  UNL1        0.1686
     13 O           4.6444   -1.2885   31.2441 O.3     1  UNL1       -0.3443
     14 C           5.6397   -2.4106   31.2582 C.3     1  UNL1        0.1691
     15 C           6.5360   -3.5061   30.7616 C.ar    1  UNL1        0.0073
     16 C           7.3719   -4.2885   31.7307 C.ar    1  UNL1       -0.0019
     17 C           8.2681   -5.3839   31.2341 C.ar    1  UNL1       -0.0002
     18 C           8.3284   -5.6971   29.7684 C.ar    1  UNL1        0.0015
     19 C           7.4925   -4.9148   28.7993 C.ar    1  UNL1        0.0176
     20 C           6.5963   -3.8193   29.2959 C.ar    1  UNL1       -0.0004
     21 C           7.6841   -5.4211   27.0645 C.ar    1  UNL1        0.0857
     22 C           8.4739   -6.4522   26.2339 C.ar    1  UNL1        0.0399
     23 C           8.5343   -6.7654   24.7682 C.ar    1  UNL1        0.1034
     24 N           7.6984   -5.9831   23.7991 N.ar    1  UNL1       -0.2120
     25 C           6.8022   -4.8876   24.2957 C.ar    1  UNL1        0.2207
     26 N           7.3987   -5.3445   25.5939 N.ar    1  UNL1       -0.2135
     27 N           5.9662   -4.1052   23.3266 N.pl3   1  UNL1       -0.2825
     28 H           6.2279   -4.5417   22.4838 H       1  UNL1        0.1551
     29 O           1.8405    0.2157   21.2920 O.3     1  UNL1       -0.4742
     30 C           1.0153   -0.0943   20.0783 C.3     1  UNL1        0.2226
     31 C           1.2811    0.6225   18.7878 C.3     1  UNL1        0.1200
     32 N           2.6737    0.6766   18.2329 N.3     1  UNL1       -0.2696
     33 C           4.6756   -0.5387   17.1080 C.3     1  UNL1        0.0188
     34 C           3.2178   -0.4864   17.4575 C.3     1  UNL1        0.0722
     35 C           3.5221    1.8938   18.4534 C.3     1  UNL1        0.0722
     36 C           4.2262    2.0900   19.7634 C.3     1  UNL1        0.0188
@<TRIPOS>BOND
     1    33    34    1
     2    34    32    1
     3    32    35    1
     4    35    36    1
     5    32    31    1
     6    31    30    1
     7    30    29    1
     8    29     1    1
     9     1     2   ar
    10     2     3   ar
    11     3     4   ar
    12     4     5   ar
    13     5     6   ar
    14     6     7    1
    15     7     8    1
    16     8     9    1
    17     9    10    1
    18    10    11    2
    19    11    12    1
    20    12    13    1
    21    13    14    1
    22    14    15    1
    23    15    16   ar
    24    16    17   ar
    25    17    18   ar
    26    18    19   ar
    27    19    20   ar
    28    19    21    1
    29    21    22   ar
    30    22    23   ar
    31    23    24   ar
    32    24    25   ar
    33    25    26   ar
    34    25    27    1
    35     6     1   ar
    36    20    15   ar
    37    26    21   ar
    38    27     4    1
    39    27    28    1
@<TRIPOS>MOLECULE
*****
 36 39 0 0 0
SMALL
GASTEIGER

@<TRIPOS>ATOM
      1 C           3.0792   -0.8845   22.0615 C.ar    1  UNL1        0.1370
      2 C           2.0774    0.2312   22.0978 C.ar    1  UNL1        0.0379
      3 C           1.6800    0.8400   23.4098 C.ar    1  UNL1        0.0178
      4 C           2.0925    0.5697   24.8705 C.ar    1  UNL1        0.0504
      5 C           2.7831   -0.3229   23.8824 C.ar    1  UNL1        0.0158
      6 C           3.6837   -1.3914   23.3374 C.ar    1  UNL1        0.0425
      7 C           4.6856   -2.5072   23.3012 C.3     1  UNL1        0.1721
      8 O           5.6679   -3.5355   23.7781 O.3     1  UNL1       -0.3442
      9 C           6.5122   -4.3524   24.7108 C.3     1  UNL1        0.1686
     10 C           7.1167   -4.8594   25.9865 C.2     1  UNL1        0.0036
     11 C           7.4084   -4.9952   27.4516 C.2     1  UNL1        0.0036
     12 C           7.3522   -4.7435   28.9293 C.3     1  UNL1        0.1686
     13 O           6.9548   -4.1347   30.2413 O.3     1  UNL1       -0.3443
     14 C           6.2641   -3.2422   31.2294 C.3     1  UNL1        0.1691
     15 C           5.3635   -2.1736   31.7745 C.ar    1  UNL1        0.0073
     16 C           5.3073   -1.9219   33.2521 C.ar    1  UNL1       -0.0019
     17 C           4.4067   -0.8533   33.7971 C.ar    1  UNL1       -0.0002
     18 C           3.5624   -0.0364   32.8645 C.ar    1  UNL1        0.0015
     19 C           3.6186   -0.2881   31.3869 C.ar    1  UNL1        0.0176
     20 C           4.5192   -1.3566   30.8419 C.ar    1  UNL1       -0.0004
     21 C           2.5350    0.7875   30.4011 C.ar    1  UNL1        0.0857
     22 C           1.5263    1.9335   30.6155 C.ar    1  UNL1        0.0399
     23 C           0.6820    2.7504   29.6829 C.ar    1  UNL1        0.1034
     24 N           0.7382    2.4988   28.2053 N.ar    1  UNL1       -0.2120
     25 C           1.6388    1.4302   27.6603 C.ar    1  UNL1        0.2207
     26 N           1.9305    1.2943   29.1253 N.ar    1  UNL1       -0.2135
     27 N           1.6951    1.1785   26.1826 N.pl3   1  UNL1       -0.2825
     28 H           1.0503    1.8534   25.8695 H       1  UNL1        0.1551
     29 O           3.4767   -1.4933   20.7496 O.3     1  UNL1       -0.4742
     30 C           4.6230   -0.9174   19.9722 C.3     1  UNL1        0.2226
     31 C           5.5757   -1.8278   19.2556 C.3     1  UNL1        0.1200
     32 N           6.0617   -3.0803   19.9230 N.3     1  UNL1       -0.2696
     33 C           7.9464   -4.3945   21.1358 C.3     1  UNL1        0.0188
     34 C           7.4253   -3.1171   20.5468 C.3     1  UNL1        0.0722
     35 C           5.1840   -4.2959   19.9665 C.3     1  UNL1        0.0722
     36 C           4.2505   -4.5880   18.8292 C.3     1  UNL1        0.0188
@<TRIPOS>BOND
     1    33    34    1
     2    34    32    1
     3    32    35    1
     4    35    36    1
     5    32    31    1
     6    31    30    1
     7    30    29    1
     8    29     1    1
     9     1     2   ar
    10     2     3   ar
    11     3     4   ar
    12     4     5   ar
    13     5     6   ar
    14     6     7    1
    15     7     8    1
    16     8     9    1
    17     9    10    1
    18    10    11    2
    19    11    12    1
    20    12    13    1
    21    13    14    1
    22    14    15    1
    23    15    16   ar
    24    16    17   ar
    25    17    18   ar
    26    18    19   ar
    27    19    20   ar
    28    19    21    1
    29    21    22   ar
    30    22    23   ar
    31    23    24   ar
    32    24    25   ar
    33    25    26   ar
    34    25    27    1
    35     6     1   ar
    36    20    15   ar
    37    26    21   ar
    38    27     4    1
    39    27    28    1
@<TRIPOS>MOLECULE
*****
 36 39 0 0 0
SMALL
GASTEIGER

@<TRIPOS>ATOM
      1 C           0.9943    0.7072   29.7456 C.ar    1  UNL1        0.1370
      2 C           2.1225   -0.2253   30.0732 C.ar    1  UNL1        0.0379
      3 C           2.9328   -0.8390   28.9701 C.ar    1  UNL1        0.0178
      4 C           2.8807   -0.7324   27.4330 C.ar    1  UNL1        0.0504
      5 C           1.8337    0.0914   28.1223 C.ar    1  UNL1        0.0158
      6 C           0.6763    1.0259   28.3146 C.ar    1  UNL1        0.0425
      7 C          -0.4520    1.9585   27.9869 C.3     1  UNL1        0.1721
      8 O          -1.4150    2.7765   27.1786 O.3     1  UNL1       -0.3442
      9 C          -2.0967    3.3814   25.9872 C.3     1  UNL1        0.1686
     10 C          -2.4147    3.7001   24.5564 C.2     1  UNL1        0.0036
     11 C          -2.3307    3.6943   23.0587 C.2     1  UNL1        0.0036
     12 C          -1.8550    3.3647   21.6749 C.3     1  UNL1        0.1686
     13 O          -1.0447    2.7510   20.5718 O.3     1  UNL1       -0.3443
     14 C           0.0023    1.9272   19.8825 C.3     1  UNL1        0.1691
     15 C           1.1597    0.9926   19.6901 C.ar    1  UNL1        0.0073
     16 C           1.6355    0.6630   18.3063 C.ar    1  UNL1       -0.0019
     17 C           2.7929   -0.2715   18.1139 C.ar    1  UNL1       -0.0002
     18 C           3.4746   -0.8764   19.3054 C.ar    1  UNL1        0.0015
     19 C           2.9988   -0.5467   20.6892 C.ar    1  UNL1        0.0176
     20 C           1.8414    0.3878   20.8815 C.ar    1  UNL1       -0.0004
     21 C           3.9327   -1.3628   22.0176 C.ar    1  UNL1        0.0857
     22 C           5.1183   -2.3350   22.1784 C.ar    1  UNL1        0.0399
     23 C           5.7999   -2.9399   23.3699 C.ar    1  UNL1        0.1034
     24 N           5.3242   -2.6103   24.7537 N.ar    1  UNL1       -0.2120
     25 C           4.1667   -1.6758   24.9460 C.ar    1  UNL1        0.2207
     26 N           4.2506   -1.6815   23.4484 N.ar    1  UNL1       -0.2135
     27 N           3.6909   -1.3461   26.3299 N.pl3   1  UNL1       -0.2825
     28 H           4.3230   -1.8830   26.8604 H       1  UNL1        0.1551
     29 O           0.1840    1.3209   30.8486 O.3     1  UNL1       -0.4742
     30 C           0.7763    2.4040   31.7009 C.3     1  UNL1        0.2226
     31 C           1.0597    3.7530   31.1095 C.3     1  UNL1        0.1200
     32 N           0.2264    4.9357   31.5057 N.3     1  UNL1       -0.2696
     33 C          -1.4066    5.8625   33.3014 C.3     1  UNL1        0.0188
     34 C          -0.1358    5.1493   32.9456 C.3     1  UNL1        0.0722
     35 C          -0.2447    5.9046   30.4621 C.3     1  UNL1        0.0722
     36 C          -0.0444    5.5965   29.0077 C.3     1  UNL1        0.0188
@<TRIPOS>BOND
     1    33    34    1
     2    34    32    1
     3    32    35    1
     4    35    36    1
     5    32    31    1
     6    31    30    1
     7    30    29    1
     8    29     1    1
     9     1     2   ar
    10     2     3   ar
    11     3     4   ar
    12     4     5   ar
    13     5     6   ar
    14     6     7    1
    15     7     8    1
    16     8     9    1
    17     9    10    1
    18    10    11    2
    19    11    12    1
    20    12    13    1
    21    13    14    1
    22    14    15    1
    23    15    16   ar
    24    16    17   ar
    25    17    18   ar
    26    18    19   ar
    27    19    20   ar
    28    19    21    1
    29    21    22   ar
    30    22    23   ar
    31    23    24   ar
    32    24    25   ar
    33    25    26   ar
    34    25    27    1
    35     6     1   ar
    36    20    15   ar
    37    26    21   ar
    38    27     4    1
    39    27    28    1
@<TRIPOS>MOLECULE
*****
 36 39 0 0 0
SMALL
GASTEIGER

@<TRIPOS>ATOM
      1 C           1.0857    0.6669   29.7887 C.ar    1  UNL1        0.1370
      2 C           2.2202   -0.2689   30.0834 C.ar    1  UNL1        0.0379
      3 C           3.0063   -0.8726   28.9574 C.ar    1  UNL1        0.0178
      4 C           2.9212   -0.7517   27.4228 C.ar    1  UNL1        0.0504
      5 C           1.8897    0.0660   28.1421 C.ar    1  UNL1        0.0158
      6 C           0.7371    0.9990   28.3680 C.ar    1  UNL1        0.0425
      7 C          -0.3975    1.9349   28.0732 C.3     1  UNL1        0.1721
      8 O          -1.3772    2.7607   27.2934 O.3     1  UNL1       -0.3442
      9 C          -2.0840    3.3768   26.1226 C.3     1  UNL1        0.1686
     10 C          -2.4326    3.7089   24.7020 C.2     1  UNL1        0.0036
     11 C          -2.3809    3.7170   23.2029 C.2     1  UNL1        0.0036
     12 C          -1.9351    3.4001   21.8062 C.3     1  UNL1        0.1686
     13 O          -1.1491    2.7965   20.6803 O.3     1  UNL1       -0.3443
     14 C          -0.1175    1.9788   19.9610 C.3     1  UNL1        0.1691
     15 C           1.0351    1.0457   19.7351 C.ar    1  UNL1        0.0073
     16 C           1.4808    0.7288   18.3384 C.ar    1  UNL1       -0.0019
     17 C           2.6334   -0.2042   18.1125 C.ar    1  UNL1       -0.0002
     18 C           3.3401   -0.8203   19.2833 C.ar    1  UNL1        0.0015
     19 C           2.8944   -0.5034   20.6800 C.ar    1  UNL1        0.0176
     20 C           1.7418    0.4296   20.9059 C.ar    1  UNL1       -0.0004
     21 C           3.8562   -1.3321   21.9805 C.ar    1  UNL1        0.0857
     22 C           5.0445   -2.3061   22.1067 C.ar    1  UNL1        0.0399
     23 C           5.7513   -2.9222   23.2776 C.ar    1  UNL1        0.1034
     24 N           5.3056   -2.6053   24.6743 N.ar    1  UNL1       -0.2120
     25 C           4.1530   -1.6723   24.9002 C.ar    1  UNL1        0.2207
     26 N           4.2047   -1.6642   23.4011 N.ar    1  UNL1       -0.2135
     27 N           3.7072   -1.3554   26.2969 N.pl3   1  UNL1       -0.2825
     28 H           4.3503   -1.8974   26.8087 H       1  UNL1        0.1551
     29 O           0.2996    1.2706   30.9145 O.3     1  UNL1       -0.4742
     30 C           0.7051    2.5972   31.4854 C.3     1  UNL1        0.2226
     31 C           2.0223    3.2060   31.1055 C.3     1  UNL1        0.1200
     32 N           3.2802    2.7592   31.7897 N.3     1  UNL1       -0.2696
     33 C           4.7658    2.4191   29.6857 C.3     1  UNL1        0.0188
     34 C           4.6026    2.9024   31.0963 C.3     1  UNL1        0.0722
     35 C           3.2156    2.1694   33.1673 C.3     1  UNL1        0.0722
     36 C           3.4938    0.7096   33.3719 C.3     1  UNL1        0.0188
@<TRIPOS>BOND
     1    33    34    1
     2    34    32    1
     3    32    35    1
     4    35    36    1
     5    32    31    1
     6    31    30    1
     7    30    29    1
     8    29     1    1
     9     1     2   ar
    10     2     3   ar
    11     3     4   ar
    12     4     5   ar
    13     5     6   ar
    14     6     7    1
    15     7     8    1
    16     8     9    1
    17     9    10    1
    18    10    11    2
    19    11    12    1
    20    12    13    1
    21    13    14    1
    22    14    15    1
    23    15    16   ar
    24    16    17   ar
    25    17    18   ar
    26    18    19   ar
    27    19    20   ar
    28    19    21    1
    29    21    22   ar
    30    22    23   ar
    31    23    24   ar
    32    24    25   ar
    33    25    26   ar
    34    25    27    1
    35     6     1   ar
    36    20    15   ar
    37    26    21   ar
    38    27     4    1
    39    27    28    1
@<TRIPOS>MOLECULE
*****
 36 39 0 0 0
SMALL
GASTEIGER

@<TRIPOS>ATOM
      1 C           0.4075    2.2685   27.0268 C.ar    1  UNL1        0.1370
      2 C           0.0888    2.6888   28.4310 C.ar    1  UNL1        0.0379
      3 C           0.7925    2.0403   29.5861 C.ar    1  UNL1        0.0178
      4 C           1.8678    0.9402   29.6881 C.ar    1  UNL1        0.0504
      5 C           1.4714    1.2555   28.2762 C.ar    1  UNL1        0.0158
      6 C           1.4301    1.1996   26.7778 C.ar    1  UNL1        0.0425
      7 C           1.7489    0.7792   25.3736 C.3     1  UNL1        0.1721
      8 O           2.3893    0.0451   24.2331 O.3     1  UNL1       -0.3442
      9 C           3.2742   -0.9143   23.4937 C.3     1  UNL1        0.1686
     10 C           4.2966   -1.9831   23.2447 C.2     1  UNL1        0.0036
     11 C           5.3335   -3.0326   23.5160 C.2     1  UNL1        0.0036
     12 C           6.2596   -3.9360   24.2749 C.3     1  UNL1        0.1686
     13 O           6.9633   -4.5845   25.4300 O.3     1  UNL1       -0.3443
     14 C           7.3597   -4.8998   26.8419 C.3     1  UNL1        0.1691
     15 C           7.4010   -4.8439   28.3404 C.ar    1  UNL1        0.0073
     16 C           8.3271   -5.7474   29.0993 C.ar    1  UNL1       -0.0019
     17 C           8.3684   -5.6915   30.5977 C.ar    1  UNL1       -0.0002
     18 C           7.4836   -4.7321   31.3371 C.ar    1  UNL1        0.0015
     19 C           6.5575   -3.8287   30.5781 C.ar    1  UNL1        0.0176
     20 C           6.5162   -3.8846   29.0798 C.ar    1  UNL1       -0.0004
     21 C           5.5569   -2.7301   31.6245 C.ar    1  UNL1        0.0857
     22 C           5.3498   -2.4187   33.1201 C.ar    1  UNL1        0.0399
     23 C           4.4650   -1.4593   33.8595 C.ar    1  UNL1        0.1034
     24 N           3.5389   -0.5559   33.1006 N.ar    1  UNL1       -0.2120
     25 C           3.4976   -0.6118   31.6022 C.ar    1  UNL1        0.2207
     26 N           4.5344   -1.6612   31.8734 N.ar    1  UNL1       -0.2135
     27 N           2.5715    0.2917   30.8432 N.pl3   1  UNL1       -0.2825
     28 H           2.1511    0.7735   31.5917 H       1  UNL1        0.1551
     29 O          -0.2961    2.9170   25.8717 O.3     1  UNL1       -0.4742
     30 C          -0.4258    4.4103   25.8152 C.3     1  UNL1        0.2226
     31 C          -1.7847    5.0442   25.7782 C.3     1  UNL1        0.1200
     32 N          -3.0007    4.1983   25.5412 N.3     1  UNL1       -0.2696
     33 C          -4.8285    5.0891   27.1584 C.3     1  UNL1        0.0188
     34 C          -3.9779    3.9611   26.6542 C.3     1  UNL1        0.0722
     35 C          -3.2392    3.5896   24.1912 C.3     1  UNL1        0.0722
     36 C          -4.6296    3.2113   23.7741 C.3     1  UNL1        0.0188
@<TRIPOS>BOND
     1    33    34    1
     2    34    32    1
     3    32    35    1
     4    35    36    1
     5    32    31    1
     6    31    30    1
     7    30    29    1
     8    29     1    1
     9     1     2   ar
    10     2     3   ar
    11     3     4   ar
    12     4     5   ar
    13     5     6   ar
    14     6     7    1
    15     7     8    1
    16     8     9    1
    17     9    10    1
    18    10    11    2
    19    11    12    1
    20    12    13    1
    21    13    14    1
    22    14    15    1
    23    15    16   ar
    24    16    17   ar
    25    17    18   ar
    26    18    19   ar
    27    19    20   ar
    28    19    21    1
    29    21    22   ar
    30    22    23   ar
    31    23    24   ar
    32    24    25   ar
    33    25    26   ar
    34    25    27    1
    35     6     1   ar
    36    20    15   ar
    37    26    21   ar
    38    27     4    1
    39    27    28    1
