@<TRIPOS>MOLECULE
*****
 38 43 0 0 0
SMALL
GASTEIGER

@<TRIPOS>ATOM
      1 N           6.9004   -5.7732   29.4476 N.pl3   1  UNL1       -0.2825
      2 H           6.6028   -6.6555   29.7674 H       1  UNL1        0.1551
      3 C           7.0468   -4.9120   25.0332 C.ar    1  UNL1        0.0847
      4 C           7.4093   -6.2751   25.5438 C.ar    1  UNL1        0.0205
      5 C           7.3605   -6.5621   27.0153 C.ar    1  UNL1        0.0162
      6 C           6.9492   -5.4862   27.9761 C.ar    1  UNL1        0.0506
      7 C           6.5867   -4.1232   27.4654 C.ar    1  UNL1        0.0162
      8 C           6.6355   -3.8361   25.9940 C.ar    1  UNL1        0.0205
      9 C           6.5522   -3.7632   21.3588 C.ar    1  UNL1        0.1851
     10 N           7.7890   -4.6030   21.2360 N.ar    1  UNL1       -0.2031
     11 C           8.1249   -5.1355   22.5974 C.ar    1  UNL1        0.2015
     12 N           7.0956   -4.6249   23.5617 N.ar    1  UNL1       -0.2080
     13 N           6.1237   -3.7768   22.7962 N.ar    1  UNL1       -0.1441
     14 C           3.8022   -0.8596   16.8860 C.3     1  UNL1        0.0521
     15 C           4.4897   -1.5855   18.0042 C.ar    1  UNL1        0.0594
     16 C           3.7516   -1.8718   19.2782 C.ar    1  UNL1        0.0148
     17 C           4.4391   -2.5977   20.3964 C.ar    1  UNL1        0.0059
     18 C           5.8647   -3.0373   20.2406 C.ar    1  UNL1        0.0567
     19 C           6.6028   -2.7510   18.9666 C.ar    1  UNL1        0.1015
     20 N           5.9153   -2.0251   17.8484 N.ar    1  UNL1       -0.2480
     21 C           7.3049   -4.7160   30.4318 C.ar    1  UNL1        0.2207
     22 N           8.7264   -4.6351   30.9037 N.ar    1  UNL1       -0.2120
     23 C           9.1310   -3.5779   31.8879 C.ar    1  UNL1        0.1034
     24 C           8.1140   -2.6015   32.4002 C.ar    1  UNL1        0.0399
     25 C           6.6925   -2.6824   31.9283 C.ar    1  UNL1        0.0858
     26 N           6.2879   -3.7396   30.9441 N.ar    1  UNL1       -0.2135
     27 C           5.6755   -1.7061   32.4405 C.ar    1  UNL1        0.0190
     28 C           5.7385   -1.2347   33.8631 C.ar    1  UNL1        0.0016
     29 C           4.7214   -0.2583   34.3754 C.ar    1  UNL1        0.0013
     30 C           3.6414    0.2466   33.4651 C.ar    1  UNL1        0.0145
     31 C           3.5784   -0.2248   32.0425 C.ar    1  UNL1        0.0480
     32 C           4.5955   -1.2012   31.5302 C.ar    1  UNL1        0.0160
     33 N           2.4984    0.2801   31.1322 N.pl3   1  UNL1       -0.3028
     34 C           2.1082   -0.5123   29.9199 C.3     1  UNL1        0.1231
     35 C           1.0282   -0.0074   29.0096 C.3     1  UNL1        0.1636
     36 O           0.3385    1.2899   29.3116 O.3     1  UNL1       -0.3501
     37 C           0.7287    2.0824   30.5240 C.3     1  UNL1        0.1636
     38 C           1.8087    1.5775   31.4343 C.3     1  UNL1        0.1231
@<TRIPOS>BOND
     1    14    15    1
     2    15    16   ar
     3    16    17   ar
     4    17    18   ar
     5    18     9    1
     6     9    10   ar
     7    10    11   ar
     8    11    12   ar
     9    12     3    1
    10     3     4   ar
    11     4     5   ar
    12     5     6   ar
    13     6     1    1
    14     1    21    1
    15    21    22   ar
    16    22    23   ar
    17    23    24   ar
    18    24    25   ar
    19    25    27    1
    20    27    28   ar
    21    28    29   ar
    22    29    30   ar
    23    30    31   ar
    24    31    33    1
    25    33    34    1
    26    34    35    1
    27    35    36    1
    28    36    37    1
    29    37    38    1
    30    31    32   ar
    31    25    26   ar
    32     6     7   ar
    33     7     8   ar
    34    12    13   ar
    35    18    19   ar
    36    19    20   ar
    37    20    15   ar
    38    13     9   ar
    39     8     3   ar
    40    26    21   ar
    41    32    27   ar
    42    38    33    1
    43     1     2    1
@<TRIPOS>MOLECULE
*****
 38 43 0 0 0
SMALL
GASTEIGER

@<TRIPOS>ATOM
      1 N           9.5355   -4.8945   26.4684 N.pl3   1  UNL1       -0.2825
      2 H          10.4770   -4.8079   26.1939 H       1  UNL1        0.1551
      3 C           7.8194   -8.9551   27.3715 C.ar    1  UNL1        0.0847
      4 C           8.9636   -8.4266   28.1849 C.ar    1  UNL1        0.0205
      5 C           9.5356   -7.0731   27.8839 C.ar    1  UNL1        0.0162
      6 C           8.9635   -6.2481   26.7694 C.ar    1  UNL1        0.0506
      7 C           7.8194   -6.7765   25.9561 C.ar    1  UNL1        0.0162
      8 C           7.2473   -8.1301   26.2571 C.ar    1  UNL1        0.0205
      9 C           5.6764  -12.1280   28.0085 C.ar    1  UNL1        0.1851
     10 N           7.0575  -12.6552   28.2630 N.ar    1  UNL1       -0.2031
     11 C           8.0284  -11.5308   28.0554 C.ar    1  UNL1        0.2015
     12 N           7.2474  -10.3087   27.6726 N.ar    1  UNL1       -0.2080
     13 N           5.7938  -10.6779   27.6436 N.ar    1  UNL1       -0.1441
     14 C           0.5780  -15.2688   28.3843 C.3     1  UNL1        0.0521
     15 C           1.8526  -14.4836   28.2904 C.ar    1  UNL1        0.0594
     16 C           2.0757  -13.3052   29.1912 C.ar    1  UNL1        0.0148
     17 C           3.3503  -12.5200   29.0973 C.ar    1  UNL1        0.0059
     18 C           4.4018  -12.9132   28.1025 C.ar    1  UNL1        0.0567
     19 C           4.1787  -14.0916   27.2016 C.ar    1  UNL1        0.1015
     20 N           2.9041  -14.8768   27.2956 N.ar    1  UNL1       -0.2480
     21 C           8.6730   -3.6728   26.5854 C.ar    1  UNL1        0.2207
     22 N           8.8723   -2.7207   27.7272 N.ar    1  UNL1       -0.2120
     23 C           8.0098   -1.4990   27.8443 C.ar    1  UNL1        0.1034
     24 C           6.9480   -1.2295   26.8196 C.ar    1  UNL1        0.0399
     25 C           6.7488   -2.1816   25.6778 C.ar    1  UNL1        0.0858
     26 N           7.6113   -3.4033   25.5607 N.ar    1  UNL1       -0.2135
     27 C           5.6871   -1.9122   24.6531 C.ar    1  UNL1        0.0190
     28 C           4.3917   -1.2775   25.0644 C.ar    1  UNL1        0.0016
     29 C           3.3299   -1.0080   24.0396 C.ar    1  UNL1        0.0013
     30 C           3.5636   -1.3732   22.6036 C.ar    1  UNL1        0.0145
     31 C           4.8590   -2.0078   22.1923 C.ar    1  UNL1        0.0480
     32 C           5.9208   -2.2773   23.2171 C.ar    1  UNL1        0.0160
     33 N           5.0926   -2.3730   20.7564 N.pl3   1  UNL1       -0.3028
     34 C           4.7193   -3.7382   20.2594 C.3     1  UNL1        0.1231
     35 C           4.9530   -4.1033   18.8234 C.3     1  UNL1        0.1636
     36 O           5.5599   -3.1033   17.8844 O.3     1  UNL1       -0.3501
     37 C           5.9332   -1.7382   18.3814 C.3     1  UNL1        0.1636
     38 C           5.6996   -1.3730   19.8174 C.3     1  UNL1        0.1231
@<TRIPOS>BOND
     1    14    15    1
     2    15    16   ar
     3    16    17   ar
     4    17    18   ar
     5    18     9    1
     6     9    10   ar
     7    10    11   ar
     8    11    12   ar
     9    12     3    1
    10     3     4   ar
    11     4     5   ar
    12     5     6   ar
    13     6     1    1
    14     1    21    1
    15    21    22   ar
    16    22    23   ar
    17    23    24   ar
    18    24    25   ar
    19    25    27    1
    20    27    28   ar
    21    28    29   ar
    22    29    30   ar
    23    30    31   ar
    24    31    33    1
    25    33    34    1
    26    34    35    1
    27    35    36    1
    28    36    37    1
    29    37    38    1
    30    31    32   ar
    31    25    26   ar
    32     6     7   ar
    33     7     8   ar
    34    12    13   ar
    35    18    19   ar
    36    19    20   ar
    37    20    15   ar
    38    13     9   ar
    39     8     3   ar
    40    26    21   ar
    41    32    27   ar
    42    38    33    1
    43     1     2    1
@<TRIPOS>MOLECULE
*****
 38 43 0 0 0
SMALL
GASTEIGER

@<TRIPOS>ATOM
      1 N           4.5505   -2.7608   18.2568 N.pl3   1  UNL1       -0.2825
      2 H           4.2388   -3.4329   17.6084 H       1  UNL1        0.1551
      3 C           1.8168    0.5825   19.5217 C.ar    1  UNL1        0.0847
      4 C           2.5714    0.6791   18.2289 C.ar    1  UNL1        0.0205
      5 C           3.4826   -0.4353   17.8073 C.ar    1  UNL1        0.0162
      6 C           3.6392   -1.6463   18.6784 C.ar    1  UNL1        0.0506
      7 C           2.8847   -1.7429   19.9712 C.ar    1  UNL1        0.0162
      8 C           1.9735   -0.6285   20.3928 C.ar    1  UNL1        0.0205
      9 C          -1.0357    2.9131   20.7451 C.ar    1  UNL1        0.1851
     10 N           0.0423    3.9103   20.4393 N.ar    1  UNL1       -0.2031
     11 C           1.2421    3.1586   19.9438 C.ar    1  UNL1        0.2015
     12 N           0.9056    1.6969   19.9433 N.ar    1  UNL1       -0.2080
     13 N          -0.5021    1.5451   20.4386 N.ar    1  UNL1       -0.1441
     14 C          -6.5191    4.1747   22.8287 C.3     1  UNL1        0.0521
     15 C          -5.1482    3.8593   22.3078 C.ar    1  UNL1        0.0594
     16 C          -3.9730    3.8608   23.2399 C.ar    1  UNL1        0.0148
     17 C          -2.6022    3.5454   22.7190 C.ar    1  UNL1        0.0059
     18 C          -2.4066    3.2285   21.2660 C.ar    1  UNL1        0.0567
     19 C          -3.5818    3.2269   20.3339 C.ar    1  UNL1        0.1015
     20 N          -4.9526    3.5423   20.8548 N.ar    1  UNL1       -0.2480
     21 C           5.9365   -2.8512   18.8231 C.ar    1  UNL1        0.2207
     22 N           7.0607   -2.0954   18.1789 N.ar    1  UNL1       -0.2120
     23 C           8.4468   -2.1858   18.7452 C.ar    1  UNL1        0.1034
     24 C           8.7087   -3.0319   19.9557 C.ar    1  UNL1        0.0399
     25 C           7.5845   -3.7877   20.6000 C.ar    1  UNL1        0.0858
     26 N           6.1984   -3.6973   20.0337 N.ar    1  UNL1       -0.2135
     27 C           7.8463   -4.6338   21.8105 C.ar    1  UNL1        0.0190
     28 C           8.6553   -5.8908   21.6862 C.ar    1  UNL1        0.0016
     29 C           8.9172   -6.7370   22.8968 C.ar    1  UNL1        0.0013
     30 C           8.3700   -6.3262   24.2316 C.ar    1  UNL1        0.0145
     31 C           7.5610   -5.0692   24.3560 C.ar    1  UNL1        0.0480
     32 C           7.2992   -4.2230   23.1453 C.ar    1  UNL1        0.0160
     33 N           7.0139   -4.6584   25.6908 N.pl3   1  UNL1       -0.3028
     34 C           6.8041   -5.6855   26.7637 C.3     1  UNL1        0.1231
     35 C           6.2569   -5.2747   28.0985 C.3     1  UNL1        0.1636
     36 O           5.9196   -3.8368   28.3605 O.3     1  UNL1       -0.3501
     37 C           6.1293   -2.8096   27.2876 C.3     1  UNL1        0.1636
     38 C           6.6765   -3.2205   25.9528 C.3     1  UNL1        0.1231
@<TRIPOS>BOND
     1    14    15    1
     2    15    16   ar
     3    16    17   ar
     4    17    18   ar
     5    18     9    1
     6     9    10   ar
     7    10    11   ar
     8    11    12   ar
     9    12     3    1
    10     3     4   ar
    11     4     5   ar
    12     5     6   ar
    13     6     1    1
    14     1    21    1
    15    21    22   ar
    16    22    23   ar
    17    23    24   ar
    18    24    25   ar
    19    25    27    1
    20    27    28   ar
    21    28    29   ar
    22    29    30   ar
    23    30    31   ar
    24    31    33    1
    25    33    34    1
    26    34    35    1
    27    35    36    1
    28    36    37    1
    29    37    38    1
    30    31    32   ar
    31    25    26   ar
    32     6     7   ar
    33     7     8   ar
    34    12    13   ar
    35    18    19   ar
    36    19    20   ar
    37    20    15   ar
    38    13     9   ar
    39     8     3   ar
    40    26    21   ar
    41    32    27   ar
    42    38    33    1
    43     1     2    1
@<TRIPOS>MOLECULE
*****
 38 43 0 0 0
SMALL
GASTEIGER

@<TRIPOS>ATOM
      1 N           3.1534   -0.9507   17.8852 N.pl3   1  UNL1       -0.2825
      2 H           2.6566   -1.4157   17.1738 H       1  UNL1        0.1551
      3 C           6.1033   -3.2153   20.4190 C.ar    1  UNL1        0.0847
      4 C           6.4681   -2.8147   19.0202 C.ar    1  UNL1        0.0205
      5 C           5.4849   -2.0599   18.1757 C.ar    1  UNL1        0.0162
      6 C           4.1368   -1.7056   18.7299 C.ar    1  UNL1        0.0506
      7 C           3.7720   -2.1061   20.1285 C.ar    1  UNL1        0.0162
      8 C           4.7552   -2.8609   20.9731 C.ar    1  UNL1        0.0205
      9 C           8.0861   -5.1928   23.1066 C.ar    1  UNL1        0.1851
     10 N           9.1131   -5.0707   22.0202 N.ar    1  UNL1       -0.2031
     11 C           8.4954   -4.3151   20.8811 C.ar    1  UNL1        0.2015
     12 N           7.0866   -3.9701   21.2636 N.ar    1  UNL1       -0.2080
     13 N           6.8336   -4.5126   22.6390 N.ar    1  UNL1       -0.1441
     14 C           8.8533   -7.9226   28.3943 C.3     1  UNL1        0.0521
     15 C           8.6615   -7.2402   27.0724 C.ar    1  UNL1        0.0594
     16 C           8.3333   -8.0480   25.8519 C.ar    1  UNL1        0.0148
     17 C           8.1416   -7.3656   24.5300 C.ar    1  UNL1        0.0059
     18 C           8.2779   -5.8753   24.4285 C.ar    1  UNL1        0.0567
     19 C           8.6060   -5.0674   25.6490 C.ar    1  UNL1        0.1015
     20 N           8.7978   -5.7499   26.9710 N.ar    1  UNL1       -0.2480
     21 C           2.9272    0.5127   18.1247 C.ar    1  UNL1        0.2207
     22 N           4.0975    1.4448   18.2329 N.ar    1  UNL1       -0.2120
     23 C           3.8712    2.9081   18.4723 C.ar    1  UNL1        0.1034
     24 C           2.4746    3.4395   18.6035 C.ar    1  UNL1        0.0399
     25 C           1.3043    2.5075   18.4952 C.ar    1  UNL1        0.0858
     26 N           1.5306    1.0441   18.2558 N.ar    1  UNL1       -0.2135
     27 C          -0.0922    3.0388   18.6263 C.ar    1  UNL1        0.0190
     28 C          -0.7893    3.6186   17.4313 C.ar    1  UNL1        0.0016
     29 C          -2.1860    4.1499   17.5625 C.ar    1  UNL1        0.0013
     30 C          -2.8855    4.1015   18.8885 C.ar    1  UNL1        0.0145
     31 C          -2.1884    3.5217   20.0834 C.ar    1  UNL1        0.0480
     32 C          -0.7917    2.9904   19.9523 C.ar    1  UNL1        0.0160
     33 N          -2.8879    3.4733   21.4095 N.pl3   1  UNL1       -0.3028
     34 C          -4.3530    3.1581   21.4735 C.3     1  UNL1        0.1231
     35 C          -5.0525    3.1096   22.7995 C.3     1  UNL1        0.1636
     36 O          -4.2868    3.3764   24.0615 O.3     1  UNL1       -0.3501
     37 C          -2.8217    3.6916   23.9975 C.3     1  UNL1        0.1636
     38 C          -2.1223    3.7401   22.6715 C.3     1  UNL1        0.1231
@<TRIPOS>BOND
     1    14    15    1
     2    15    16   ar
     3    16    17   ar
     4    17    18   ar
     5    18     9    1
     6     9    10   ar
     7    10    11   ar
     8    11    12   ar
     9    12     3    1
    10     3     4   ar
    11     4     5   ar
    12     5     6   ar
    13     6     1    1
    14     1    21    1
    15    21    22   ar
    16    22    23   ar
    17    23    24   ar
    18    24    25   ar
    19    25    27    1
    20    27    28   ar
    21    28    29   ar
    22    29    30   ar
    23    30    31   ar
    24    31    33    1
    25    33    34    1
    26    34    35    1
    27    35    36    1
    28    36    37    1
    29    37    38    1
    30    31    32   ar
    31    25    26   ar
    32     6     7   ar
    33     7     8   ar
    34    12    13   ar
    35    18    19   ar
    36    19    20   ar
    37    20    15   ar
    38    13     9   ar
    39     8     3   ar
    40    26    21   ar
    41    32    27   ar
    42    38    33    1
    43     1     2    1
@<TRIPOS>MOLECULE
*****
 38 43 0 0 0
SMALL
GASTEIGER

@<TRIPOS>ATOM
      1 N           7.4879   -4.0206   23.0547 N.pl3   1  UNL1       -0.2825
      2 H           8.3593   -4.2558   22.6615 H       1  UNL1        0.1551
      3 C           6.9603   -4.0286   27.5236 C.ar    1  UNL1        0.0847
      4 C           6.8484   -5.3106   26.7529 C.ar    1  UNL1        0.0205
      5 C           7.0243   -5.3079   25.2634 C.ar    1  UNL1        0.0162
      6 C           7.3120   -4.0233   24.5444 C.ar    1  UNL1        0.0506
      7 C           7.4239   -2.7414   25.3150 C.ar    1  UNL1        0.0162
      8 C           7.2481   -2.7440   26.8047 C.ar    1  UNL1        0.0205
      9 C           6.2864   -3.3209   31.2800 C.ar    1  UNL1        0.1851
     10 N           6.7411   -4.7494   31.3312 N.ar    1  UNL1       -0.2031
     11 C           7.0489   -5.1884   29.9303 C.ar    1  UNL1        0.2015
     12 N           6.7844   -4.0312   29.0133 N.ar    1  UNL1       -0.2080
     13 N           6.3132   -2.8770   29.8475 N.ar    1  UNL1       -0.1441
     14 C           4.6483    0.0294   35.9803 C.3     1  UNL1        0.0521
     15 C           5.0579   -0.8082   34.8052 C.ar    1  UNL1        0.0594
     16 C           6.4032   -0.6068   34.1732 C.ar    1  UNL1        0.0148
     17 C           6.8127   -1.4444   32.9981 C.ar    1  UNL1        0.0059
     18 C           5.8769   -2.4833   32.4551 C.ar    1  UNL1        0.0567
     19 C           4.5316   -2.6846   33.0871 C.ar    1  UNL1        0.1015
     20 N           4.1221   -1.8471   34.2622 N.ar    1  UNL1       -0.2480
     21 C           6.3361   -3.6596   22.1641 C.ar    1  UNL1        0.2207
     22 N           6.1605   -4.3544   20.8464 N.ar    1  UNL1       -0.2120
     23 C           5.0087   -3.9934   19.9559 C.ar    1  UNL1        0.1034
     24 C           4.0325   -2.9376   20.3831 C.ar    1  UNL1        0.0399
     25 C           4.2081   -2.2429   21.7008 C.ar    1  UNL1        0.0858
     26 N           5.3600   -2.6039   22.5913 N.ar    1  UNL1       -0.2135
     27 C           3.2321   -1.1872   22.1280 C.ar    1  UNL1        0.0190
     28 C           2.3053   -0.5714   21.1221 C.ar    1  UNL1        0.0016
     29 C           1.3291    0.4844   21.5493 C.ar    1  UNL1        0.0013
     30 C           1.2797    0.9244   22.9825 C.ar    1  UNL1        0.0145
     31 C           2.2065    0.3086   23.9885 C.ar    1  UNL1        0.0480
     32 C           3.1827   -0.7472   23.5612 C.ar    1  UNL1        0.0160
     33 N           2.1571    0.7486   25.4216 N.pl3   1  UNL1       -0.3028
     34 C           1.0914    1.7006   25.8775 C.3     1  UNL1        0.1231
     35 C           1.0421    2.1406   27.3107 C.3     1  UNL1        0.1636
     36 O           2.0584    1.6286   28.2879 O.3     1  UNL1       -0.3501
     37 C           3.1241    0.6765   27.8320 C.3     1  UNL1        0.1636
     38 C           3.1735    0.2365   26.3988 C.3     1  UNL1        0.1231
@<TRIPOS>BOND
     1    14    15    1
     2    15    16   ar
     3    16    17   ar
     4    17    18   ar
     5    18     9    1
     6     9    10   ar
     7    10    11   ar
     8    11    12   ar
     9    12     3    1
    10     3     4   ar
    11     4     5   ar
    12     5     6   ar
    13     6     1    1
    14     1    21    1
    15    21    22   ar
    16    22    23   ar
    17    23    24   ar
    18    24    25   ar
    19    25    27    1
    20    27    28   ar
    21    28    29   ar
    22    29    30   ar
    23    30    31   ar
    24    31    33    1
    25    33    34    1
    26    34    35    1
    27    35    36    1
    28    36    37    1
    29    37    38    1
    30    31    32   ar
    31    25    26   ar
    32     6     7   ar
    33     7     8   ar
    34    12    13   ar
    35    18    19   ar
    36    19    20   ar
    37    20    15   ar
    38    13     9   ar
    39     8     3   ar
    40    26    21   ar
    41    32    27   ar
    42    38    33    1
    43     1     2    1
@<TRIPOS>MOLECULE
*****
 38 43 0 0 0
SMALL
GASTEIGER

@<TRIPOS>ATOM
      1 N           0.9323   -0.2314   19.6698 N.pl3   1  UNL1       -0.2825
      2 H           0.4266   -0.7691   19.0184 H       1  UNL1        0.1551
      3 C           4.3814   -2.0635   21.9051 C.ar    1  UNL1        0.0847
      4 C           4.1471   -2.4177   20.4665 C.ar    1  UNL1        0.0205
      5 C           2.9975   -1.8070   19.7214 C.ar    1  UNL1        0.0162
      6 C           2.0821   -0.8421   20.4149 C.ar    1  UNL1        0.0506
      7 C           2.3163   -0.4879   21.8535 C.ar    1  UNL1        0.0162
      8 C           3.4660   -1.0986   22.5986 C.ar    1  UNL1        0.0205
      9 C           6.8655   -4.1928   23.9935 C.ar    1  UNL1        0.1851
     10 N           7.7350   -3.0354   23.6005 N.ar    1  UNL1       -0.2031
     11 C           6.9103   -2.0969   22.7704 C.ar    1  UNL1        0.2015
     12 N           5.5311   -2.6742   22.6503 N.ar    1  UNL1       -0.2080
     13 N           5.5034   -3.9695   23.4062 N.ar    1  UNL1       -0.1441
     14 C           8.5415   -8.8902   27.3289 C.3     1  UNL1        0.0521
     15 C           8.1225   -7.7159   26.4950 C.ar    1  UNL1        0.0594
     16 C           8.4459   -7.6822   25.0307 C.ar    1  UNL1        0.0148
     17 C           8.0268   -6.5079   24.1969 C.ar    1  UNL1        0.0059
     18 C           7.2845   -5.3671   24.8273 C.ar    1  UNL1        0.0567
     19 C           6.9611   -5.4007   26.2917 C.ar    1  UNL1        0.1015
     20 N           7.3802   -6.5751   27.1255 N.ar    1  UNL1       -0.2480
     21 C           0.5531    1.1987   19.9172 C.ar    1  UNL1        0.2207
     22 N           1.5572    2.2903   19.6933 N.ar    1  UNL1       -0.2120
     23 C           1.1780    3.7204   19.9407 C.ar    1  UNL1        0.1034
     24 C          -0.2052    4.0588   20.4120 C.ar    1  UNL1        0.0399
     25 C          -1.2092    2.9672   20.6359 C.ar    1  UNL1        0.0858
     26 N          -0.8301    1.5371   20.3885 N.ar    1  UNL1       -0.2135
     27 C          -2.5924    3.3055   21.1072 C.ar    1  UNL1        0.0190
     28 C          -3.7344    3.3166   20.1346 C.ar    1  UNL1        0.0016
     29 C          -5.1177    3.6549   20.6059 C.ar    1  UNL1        0.0013
     30 C          -5.3590    3.9823   22.0497 C.ar    1  UNL1        0.0145
     31 C          -4.2171    3.9712   23.0223 C.ar    1  UNL1        0.0480
     32 C          -2.8338    3.6329   22.5510 C.ar    1  UNL1        0.0160
     33 N          -4.4584    4.2985   24.4661 N.pl3   1  UNL1       -0.3028
     34 C          -5.5832    5.2138   24.8498 C.3     1  UNL1        0.1231
     35 C          -5.8245    5.5411   26.2936 C.3     1  UNL1        0.1636
     36 O          -4.9411    4.9532   27.3537 O.3     1  UNL1       -0.3501
     37 C          -3.8163    4.0379   26.9700 C.3     1  UNL1        0.1636
     38 C          -3.5749    3.7106   25.5262 C.3     1  UNL1        0.1231
@<TRIPOS>BOND
     1    14    15    1
     2    15    16   ar
     3    16    17   ar
     4    17    18   ar
     5    18     9    1
     6     9    10   ar
     7    10    11   ar
     8    11    12   ar
     9    12     3    1
    10     3     4   ar
    11     4     5   ar
    12     5     6   ar
    13     6     1    1
    14     1    21    1
    15    21    22   ar
    16    22    23   ar
    17    23    24   ar
    18    24    25   ar
    19    25    27    1
    20    27    28   ar
    21    28    29   ar
    22    29    30   ar
    23    30    31   ar
    24    31    33    1
    25    33    34    1
    26    34    35    1
    27    35    36    1
    28    36    37    1
    29    37    38    1
    30    31    32   ar
    31    25    26   ar
    32     6     7   ar
    33     7     8   ar
    34    12    13   ar
    35    18    19   ar
    36    19    20   ar
    37    20    15   ar
    38    13     9   ar
    39     8     3   ar
    40    26    21   ar
    41    32    27   ar
    42    38    33    1
    43     1     2    1
@<TRIPOS>MOLECULE
*****
 38 43 0 0 0
SMALL
GASTEIGER

@<TRIPOS>ATOM
      1 N           1.0814   -0.2719   19.8431 N.pl3   1  UNL1       -0.2825
      2 H           0.4511   -0.6273   19.1755 H       1  UNL1        0.1551
      3 C           4.5984   -2.7507   21.1606 C.ar    1  UNL1        0.0847
      4 C           4.0430   -2.9128   19.7767 C.ar    1  UNL1        0.0205
      5 C           2.8707   -2.0866   19.3375 C.ar    1  UNL1        0.0162
      6 C           2.2538   -1.0982   20.2823 C.ar    1  UNL1        0.0506
      7 C           2.8091   -0.9361   21.6661 C.ar    1  UNL1        0.0162
      8 C           3.9815   -1.7624   22.1053 C.ar    1  UNL1        0.0205
      9 C           7.2461   -4.9615   22.9403 C.ar    1  UNL1        0.1851
     10 N           7.9034   -4.7354   21.6111 N.ar    1  UNL1       -0.2031
     11 C           6.9916   -3.8797   20.7826 C.ar    1  UNL1        0.2015
     12 N           5.7707   -3.5770   21.5998 N.ar    1  UNL1       -0.2080
     13 N           5.9280   -4.2456   22.9333 N.ar    1  UNL1       -0.1441
     14 C           9.4943   -8.1670   27.4868 C.3     1  UNL1        0.0521
     15 C           8.9323   -7.3656   26.3502 C.ar    1  UNL1        0.0594
     16 C           9.1398   -7.8216   24.9364 C.ar    1  UNL1        0.0148
     17 C           8.5777   -7.0202   23.7997 C.ar    1  UNL1        0.0059
     18 C           7.8082   -5.7629   24.0770 C.ar    1  UNL1        0.0567
     19 C           7.6007   -5.3070   25.4908 C.ar    1  UNL1        0.1015
     20 N           8.1627   -6.1083   26.6274 N.ar    1  UNL1       -0.2480
     21 C           0.8693    1.0960   20.4211 C.ar    1  UNL1        0.2207
     22 N           1.3019    2.3098   19.6534 N.ar    1  UNL1       -0.2120
     23 C           1.0898    3.6777   20.2314 C.ar    1  UNL1        0.1034
     24 C           0.4453    3.8317   21.5771 C.ar    1  UNL1        0.0399
     25 C           0.0127    2.6178   22.3448 C.ar    1  UNL1        0.0858
     26 N           0.2248    1.2499   21.7668 N.ar    1  UNL1       -0.2135
     27 C          -0.6318    2.7716   23.6904 C.ar    1  UNL1        0.0190
     28 C          -1.7612    3.7415   23.8745 C.ar    1  UNL1        0.0016
     29 C          -2.4058    3.8954   25.2202 C.ar    1  UNL1        0.0013
     30 C          -1.9211    3.0795   26.3817 C.ar    1  UNL1        0.0145
     31 C          -0.7917    2.1096   26.1976 C.ar    1  UNL1        0.0480
     32 C          -0.1471    1.9557   24.8519 C.ar    1  UNL1        0.0160
     33 N          -0.3070    1.2936   27.3592 N.pl3   1  UNL1       -0.3028
     34 C          -1.2922    0.7023   28.3234 C.3     1  UNL1        0.1231
     35 C          -0.8074   -0.1137   29.4850 C.3     1  UNL1        0.1636
     36 O           0.6625   -0.3384   29.6822 O.3     1  UNL1       -0.3501
     37 C           1.6477    0.2529   28.7180 C.3     1  UNL1        0.1636
     38 C           1.1629    1.0689   27.5565 C.3     1  UNL1        0.1231
@<TRIPOS>BOND
     1    14    15    1
     2    15    16   ar
     3    16    17   ar
     4    17    18   ar
     5    18     9    1
     6     9    10   ar
     7    10    11   ar
     8    11    12   ar
     9    12     3    1
    10     3     4   ar
    11     4     5   ar
    12     5     6   ar
    13     6     1    1
    14     1    21    1
    15    21    22   ar
    16    22    23   ar
    17    23    24   ar
    18    24    25   ar
    19    25    27    1
    20    27    28   ar
    21    28    29   ar
    22    29    30   ar
    23    30    31   ar
    24    31    33    1
    25    33    34    1
    26    34    35    1
    27    35    36    1
    28    36    37    1
    29    37    38    1
    30    31    32   ar
    31    25    26   ar
    32     6     7   ar
    33     7     8   ar
    34    12    13   ar
    35    18    19   ar
    36    19    20   ar
    37    20    15   ar
    38    13     9   ar
    39     8     3   ar
    40    26    21   ar
    41    32    27   ar
    42    38    33    1
    43     1     2    1
@<TRIPOS>MOLECULE
*****
 38 43 0 0 0
SMALL
GASTEIGER

@<TRIPOS>ATOM
      1 N           3.9251   -0.4958   19.1642 N.pl3   1  UNL1       -0.2825
      2 H           4.5947   -0.2769   18.4765 H       1  UNL1        0.1551
      3 C           0.1960    1.9936   19.5469 C.ar    1  UNL1        0.0847
      4 C           1.3712    2.5170   18.7756 C.ar    1  UNL1        0.0205
      5 C           2.6142    1.6872   18.6481 C.ar    1  UNL1        0.0162
      6 C           2.6820    0.3340   19.2918 C.ar    1  UNL1        0.0506
      7 C           1.5068   -0.1893   20.0630 C.ar    1  UNL1        0.0162
      8 C           0.2638    0.6405   20.1906 C.ar    1  UNL1        0.0205
      9 C          -3.1490    3.7218   20.4902 C.ar    1  UNL1        0.1851
     10 N          -2.7709    4.4787   19.2516 N.ar    1  UNL1       -0.2031
     11 C          -1.4718    3.9235   18.7475 C.ar    1  UNL1        0.2015
     12 N          -1.0471    2.8234   19.6745 N.ar    1  UNL1       -0.2080
     13 N          -2.0836    2.6988   20.7516 N.ar    1  UNL1       -0.1441
     14 C          -8.0606    4.6274   23.8154 C.3     1  UNL1        0.0521
     15 C          -6.8327    4.4010   22.9841 C.ar    1  UNL1        0.0594
     16 C          -5.6341    3.7280   23.5844 C.ar    1  UNL1        0.0148
     17 C          -4.4062    3.5016   22.7532 C.ar    1  UNL1        0.0059
     18 C          -4.3769    3.9482   21.3215 C.ar    1  UNL1        0.0567
     19 C          -5.5755    4.6213   20.7212 C.ar    1  UNL1        0.1015
     20 N          -6.8033    4.8477   21.5525 N.ar    1  UNL1       -0.2480
     21 C           4.1479   -1.6592   20.0845 C.ar    1  UNL1        0.2207
     22 N           4.1253   -3.0582   19.5438 N.ar    1  UNL1       -0.2120
     23 C           4.3481   -4.2216   20.4641 C.ar    1  UNL1        0.1034
     24 C           4.5934   -3.9861   21.9250 C.ar    1  UNL1        0.0399
     25 C           4.6160   -2.5871   22.4657 C.ar    1  UNL1        0.0858
     26 N           4.3932   -1.4237   21.5454 N.ar    1  UNL1       -0.2135
     27 C           4.8613   -2.3515   23.9265 C.ar    1  UNL1        0.0190
     28 C           6.0465   -2.9787   24.5987 C.ar    1  UNL1        0.0016
     29 C           6.2918   -2.7431   26.0597 C.ar    1  UNL1        0.0013
     30 C           5.3520   -1.8803   26.8484 C.ar    1  UNL1        0.0145
     31 C           4.1667   -1.2530   26.1763 C.ar    1  UNL1        0.0480
     32 C           3.9214   -1.4887   24.7153 C.ar    1  UNL1        0.0160
     33 N           3.2269   -0.3902   26.9650 N.pl3   1  UNL1       -0.3028
     34 C           2.8427   -0.7813   28.3612 C.3     1  UNL1        0.1231
     35 C           1.9028    0.0816   29.1500 C.3     1  UNL1        0.1636
     36 O           1.3471    1.3355   28.5425 O.3     1  UNL1       -0.3501
     37 C           1.7313    1.7265   27.1463 C.3     1  UNL1        0.1636
     38 C           2.6712    0.8637   26.3575 C.3     1  UNL1        0.1231
@<TRIPOS>BOND
     1    14    15    1
     2    15    16   ar
     3    16    17   ar
     4    17    18   ar
     5    18     9    1
     6     9    10   ar
     7    10    11   ar
     8    11    12   ar
     9    12     3    1
    10     3     4   ar
    11     4     5   ar
    12     5     6   ar
    13     6     1    1
    14     1    21    1
    15    21    22   ar
    16    22    23   ar
    17    23    24   ar
    18    24    25   ar
    19    25    27    1
    20    27    28   ar
    21    28    29   ar
    22    29    30   ar
    23    30    31   ar
    24    31    33    1
    25    33    34    1
    26    34    35    1
    27    35    36    1
    28    36    37    1
    29    37    38    1
    30    31    32   ar
    31    25    26   ar
    32     6     7   ar
    33     7     8   ar
    34    12    13   ar
    35    18    19   ar
    36    19    20   ar
    37    20    15   ar
    38    13     9   ar
    39     8     3   ar
    40    26    21   ar
    41    32    27   ar
    42    38    33    1
    43     1     2    1
@<TRIPOS>MOLECULE
*****
 38 43 0 0 0
SMALL
GASTEIGER

@<TRIPOS>ATOM
      1 N           0.9987    3.2227   22.1419 N.pl3   1  UNL1       -0.2825
      2 H           0.8647    4.1671   21.8979 H       1  UNL1        0.1551
      3 C           0.9073    1.9811   26.4662 C.ar    1  UNL1        0.0847
      4 C          -0.2195    1.5997   25.5524 C.ar    1  UNL1        0.0205
      5 C          -0.1890    2.0136   24.1111 C.ar    1  UNL1        0.0162
      6 C           0.9682    2.8088   23.5834 C.ar    1  UNL1        0.0506
      7 C           2.0949    3.1903   24.4971 C.ar    1  UNL1        0.0162
      8 C           2.0644    2.7764   25.9386 C.ar    1  UNL1        0.0205
      9 C           1.5763    0.8557   30.1202 C.ar    1  UNL1        0.1851
     10 N           0.0839    1.0052   30.1316 N.ar    1  UNL1       -0.2031
     11 C          -0.3485    1.4450   28.7642 C.ar    1  UNL1        0.2015
     12 N           0.8768    1.5673   27.9077 N.ar    1  UNL1       -0.2080
     13 N           2.0664    1.2031   28.7457 N.ar    1  UNL1       -0.1441
     14 C           4.9870   -0.8351   34.7579 C.3     1  UNL1        0.0521
     15 C           4.1344   -0.4124   33.5985 C.ar    1  UNL1        0.0594
     16 C           3.4638    0.9293   33.6104 C.ar    1  UNL1        0.0148
     17 C           2.6112    1.3520   32.4510 C.ar    1  UNL1        0.0059
     18 C           2.4290    0.4330   31.2796 C.ar    1  UNL1        0.0567
     19 C           3.0995   -0.9087   31.2676 C.ar    1  UNL1        0.1015
     20 N           3.9522   -1.3314   32.4271 N.ar    1  UNL1       -0.2480
     21 C           1.2332    2.1977   21.0721 C.ar    1  UNL1        0.2207
     22 N           0.6880    2.4159   19.6918 N.ar    1  UNL1       -0.2120
     23 C           0.9225    1.3910   18.6221 C.ar    1  UNL1        0.1034
     24 C           1.7023    0.1478   18.9325 C.ar    1  UNL1        0.0399
     25 C           2.2475   -0.0704   20.3128 C.ar    1  UNL1        0.0858
     26 N           2.0130    0.9545   21.3825 N.ar    1  UNL1       -0.2135
     27 C           3.0273   -1.3136   20.6233 C.ar    1  UNL1        0.0190
     28 C           3.1430   -2.4021   19.5977 C.ar    1  UNL1        0.0016
     29 C           3.9228   -3.6453   19.9082 C.ar    1  UNL1        0.0013
     30 C           4.5869   -3.8000   21.2443 C.ar    1  UNL1        0.0145
     31 C           4.4713   -2.7115   22.2698 C.ar    1  UNL1        0.0480
     32 C           3.6914   -1.4682   21.9593 C.ar    1  UNL1        0.0160
     33 N           5.1354   -2.8662   23.6059 N.pl3   1  UNL1       -0.3028
     34 C           4.8137   -1.9126   24.7182 C.3     1  UNL1        0.1231
     35 C           5.4778   -2.0673   26.0542 C.3     1  UNL1        0.1636
     36 O           6.4636   -3.1755   26.2779 O.3     1  UNL1       -0.3501
     37 C           6.7853   -4.1291   25.1656 C.3     1  UNL1        0.1636
     38 C           6.1212   -3.9744   23.8296 C.3     1  UNL1        0.1231
@<TRIPOS>BOND
     1    14    15    1
     2    15    16   ar
     3    16    17   ar
     4    17    18   ar
     5    18     9    1
     6     9    10   ar
     7    10    11   ar
     8    11    12   ar
     9    12     3    1
    10     3     4   ar
    11     4     5   ar
    12     5     6   ar
    13     6     1    1
    14     1    21    1
    15    21    22   ar
    16    22    23   ar
    17    23    24   ar
    18    24    25   ar
    19    25    27    1
    20    27    28   ar
    21    28    29   ar
    22    29    30   ar
    23    30    31   ar
    24    31    33    1
    25    33    34    1
    26    34    35    1
    27    35    36    1
    28    36    37    1
    29    37    38    1
    30    31    32   ar
    31    25    26   ar
    32     6     7   ar
    33     7     8   ar
    34    12    13   ar
    35    18    19   ar
    36    19    20   ar
    37    20    15   ar
    38    13     9   ar
    39     8     3   ar
    40    26    21   ar
    41    32    27   ar
    42    38    33    1
    43     1     2    1
