@<TRIPOS>MOLECULE
*****
 28 30 0 0 0
SMALL
GASTEIGER

@<TRIPOS>ATOM
      1 C          -7.2942  -19.5793   20.9642 C.ar    1  UNL1        0.1359
      2 C          -6.7480  -20.7151   20.1508 C.ar    1  UNL1        0.0366
      3 C          -5.2754  -21.0008   20.1555 C.ar    1  UNL1        0.0028
      4 C          -4.3491  -20.1507   20.9736 C.ar    1  UNL1       -0.0043
      5 C          -4.8953  -19.0150   21.7870 C.ar    1  UNL1       -0.0200
      6 C          -6.3679  -18.7293   21.7823 C.ar    1  UNL1        0.0258
      7 C          -6.9141  -17.5934   22.5957 C.3     1  UNL1        0.1004
      8 N          -5.9878  -16.7434   23.4138 N.am    1  UNL1       -0.2759
      9 C          -6.5340  -15.6075   24.2272 C.2     1  UNL1        0.2420
     10 O          -8.0065  -15.3219   24.2226 O.2     1  UNL1       -0.2734
     11 C          -4.5152  -17.0290   23.4185 C.3     1  UNL1        0.0984
     12 C          -3.9690  -18.1648   22.6051 C.3     1  UNL1        0.0477
     13 C          -8.3866  -17.3078   22.5911 C.3     1  UNL1        0.0225
     14 C          -8.9613  -16.3481   21.5916 C.3     1  UNL1        0.0020
     15 C         -10.4338  -16.0624   21.5869 C.3     1  UNL1        0.0001
     16 C         -11.3317  -16.7364   22.5817 C.3     1  UNL1        0.0000
     17 C         -10.7570  -17.6960   23.5812 C.3     1  UNL1        0.0001
     18 C          -9.2845  -17.9817   23.5858 C.3     1  UNL1        0.0020
     19 C          -9.5721  -19.5274   19.7159 C.3     1  UNL1        0.2525
     20 O          -8.7667  -19.2937   20.9596 O.3     1  UNL1       -0.4717
     21 C          -5.6077  -14.7575   25.0453 C.3     1  UNL1        0.1552
     22 N          -5.8809  -14.5403   26.5041 N.3     1  UNL1       -0.2878
     23 H          -6.4977  -13.7307   26.5708 H       1  UNL1        0.1238
     24 C          -6.5085  -15.6313   27.3202 C.3     1  UNL1        0.0985
     25 C          -7.9997  -15.6929   27.4697 C.3     1  UNL1        0.1263
     26 C          -8.7284  -16.9755   27.1981 C.3     1  UNL1        0.0332
     27 O          -8.7623  -14.4717   27.8907 O.3     1  UNL1       -0.3830
     28 H          -8.1452  -13.7353   28.0244 H       1  UNL1        0.2104
@<TRIPOS>BOND
     1    19    20    1
     2    20     1    1
     3     1     2   ar
     4     2     3   ar
     5     3     4   ar
     6     4     5   ar
     7     5     6   ar
     8     6     7    1
     9     7    13    1
    10    13    14    1
    11    14    15    1
    12    15    16    1
    13    16    17    1
    14    17    18    1
    15     7     8    1
    16     8     9   am
    17     9    10    2
    18     9    21    1
    19    21    22    1
    20    22    24    1
    21    24    25    1
    22    25    26    1
    23    25    27    1
    24     8    11    1
    25    11    12    1
    26     6     1   ar
    27    18    13    1
    28    12     5    1
    29    22    23    1
    30    27    28    1
@<TRIPOS>MOLECULE
*****
 28 30 0 0 0
SMALL
GASTEIGER

@<TRIPOS>ATOM
      1 C          -8.5442  -16.5045   23.9550 C.ar    1  UNL1        0.1359
      2 C          -8.5733  -15.4065   24.9765 C.ar    1  UNL1        0.0366
      3 C          -7.2891  -14.8491   25.5152 C.ar    1  UNL1        0.0028
      4 C          -5.9759  -15.3896   25.0323 C.ar    1  UNL1       -0.0043
      5 C          -5.9468  -16.4876   24.0108 C.ar    1  UNL1       -0.0200
      6 C          -7.2310  -17.0450   23.4721 C.ar    1  UNL1        0.0258
      7 C          -7.2019  -18.1431   22.4506 C.3     1  UNL1        0.1004
      8 N          -5.8886  -18.6836   21.9677 N.am    1  UNL1       -0.2759
      9 C          -5.8595  -19.7817   20.9462 C.2     1  UNL1        0.2420
     10 O          -7.1437  -20.3391   20.4075 O.2     1  UNL1       -0.2734
     11 C          -4.6045  -18.1262   22.5064 C.3     1  UNL1        0.0984
     12 C          -4.6335  -17.0282   23.5280 C.3     1  UNL1        0.0477
     13 C          -8.4860  -18.7005   21.9119 C.3     1  UNL1        0.0225
     14 C          -9.0255  -18.2093   20.6012 C.3     1  UNL1        0.0020
     15 C         -10.3096  -18.7668   20.0625 C.3     1  UNL1        0.0001
     16 C         -11.0544  -19.8154   20.8345 C.3     1  UNL1        0.0000
     17 C         -10.5149  -20.3065   22.1451 C.3     1  UNL1        0.0001
     18 C          -9.2307  -19.7490   22.6838 C.3     1  UNL1        0.0020
     19 C         -10.9124  -16.1347   22.9526 C.3     1  UNL1        0.2525
     20 O          -9.8284  -17.0619   23.4163 O.3     1  UNL1       -0.4717
     21 C          -4.5463  -20.3222   20.4633 C.3     1  UNL1        0.1552
     22 N          -3.6596  -19.4764   19.5983 N.3     1  UNL1       -0.2878
     23 H          -4.1098  -18.5647   19.5176 H       1  UNL1        0.1238
     24 C          -2.2377  -19.2228   20.0033 C.3     1  UNL1        0.0985
     25 C          -1.5779  -17.9227   19.6506 C.3     1  UNL1        0.1263
     26 C          -1.5411  -16.8049   20.6502 C.3     1  UNL1        0.0332
     27 O          -0.9550  -17.7403   18.2983 O.3     1  UNL1       -0.3830
     28 H          -1.0659  -18.5521   17.7791 H       1  UNL1        0.2104
@<TRIPOS>BOND
     1    19    20    1
     2    20     1    1
     3     1     2   ar
     4     2     3   ar
     5     3     4   ar
     6     4     5   ar
     7     5     6   ar
     8     6     7    1
     9     7    13    1
    10    13    14    1
    11    14    15    1
    12    15    16    1
    13    16    17    1
    14    17    18    1
    15     7     8    1
    16     8     9   am
    17     9    10    2
    18     9    21    1
    19    21    22    1
    20    22    24    1
    21    24    25    1
    22    25    26    1
    23    25    27    1
    24     8    11    1
    25    11    12    1
    26     6     1   ar
    27    18    13    1
    28    12     5    1
    29    22    23    1
    30    27    28    1
@<TRIPOS>MOLECULE
*****
 28 30 0 0 0
SMALL
GASTEIGER

@<TRIPOS>ATOM
      1 C          -5.9357  -18.5633   22.0752 C.ar    1  UNL1        0.1359
      2 C          -4.8132  -19.3971   21.5323 C.ar    1  UNL1        0.0366
      3 C          -5.0645  -20.3459   20.3980 C.ar    1  UNL1        0.0028
      4 C          -6.4381  -20.4608   19.8066 C.ar    1  UNL1       -0.0043
      5 C          -7.5606  -19.6270   20.3495 C.ar    1  UNL1       -0.0200
      6 C          -7.3093  -18.6782   21.4839 C.ar    1  UNL1        0.0258
      7 C          -8.4319  -17.8444   22.0268 C.3     1  UNL1        0.1004
      8 N          -9.8055  -17.9594   21.4354 N.am    1  UNL1       -0.2759
      9 C         -10.9281  -17.1255   21.9784 C.2     1  UNL1        0.2420
     10 O         -10.6768  -16.1767   23.1127 O.2     1  UNL1       -0.2734
     11 C         -10.0568  -18.9082   20.3011 C.3     1  UNL1        0.0984
     12 C          -8.9343  -19.7420   19.7582 C.3     1  UNL1        0.0477
     13 C          -8.1806  -16.8956   23.1611 C.3     1  UNL1        0.0225
     14 C          -7.6252  -15.5294   22.8871 C.3     1  UNL1        0.0020
     15 C          -7.3740  -14.5806   24.0214 C.3     1  UNL1        0.0001
     16 C          -7.6782  -14.9980   25.4298 C.3     1  UNL1        0.0000
     17 C          -8.2335  -16.3642   25.7037 C.3     1  UNL1        0.0001
     18 C          -8.4847  -17.3130   24.5694 C.3     1  UNL1        0.0020
     19 C          -4.2949  -17.1170   23.4775 C.3     1  UNL1        0.2525
     20 O          -5.6844  -17.6145   23.2095 O.3     1  UNL1       -0.4717
     21 C         -12.3017  -17.2405   21.3870 C.3     1  UNL1        0.1552
     22 N         -13.3670  -18.0110   22.1091 N.3     1  UNL1       -0.2878
     23 H         -13.0817  -18.9903   22.0967 H       1  UNL1        0.1238
     24 C         -13.7011  -17.6754   23.5324 C.3     1  UNL1        0.0985
     25 C         -13.1727  -18.5276   24.6479 C.3     1  UNL1        0.1263
     26 C         -11.7988  -19.1218   24.5516 C.3     1  UNL1        0.0332
     27 O         -14.0182  -18.7858   25.8597 O.3     1  UNL1       -0.3830
     28 H         -14.8701  -18.3323   25.7622 H       1  UNL1        0.2104
@<TRIPOS>BOND
     1    19    20    1
     2    20     1    1
     3     1     2   ar
     4     2     3   ar
     5     3     4   ar
     6     4     5   ar
     7     5     6   ar
     8     6     7    1
     9     7    13    1
    10    13    14    1
    11    14    15    1
    12    15    16    1
    13    16    17    1
    14    17    18    1
    15     7     8    1
    16     8     9   am
    17     9    10    2
    18     9    21    1
    19    21    22    1
    20    22    24    1
    21    24    25    1
    22    25    26    1
    23    25    27    1
    24     8    11    1
    25    11    12    1
    26     6     1   ar
    27    18    13    1
    28    12     5    1
    29    22    23    1
    30    27    28    1
@<TRIPOS>MOLECULE
*****
 28 30 0 0 0
SMALL
GASTEIGER

@<TRIPOS>ATOM
      1 C          -5.6452  -16.9324   23.4850 C.ar    1  UNL1        0.1359
      2 C          -4.8170  -15.9777   24.2929 C.ar    1  UNL1        0.0366
      3 C          -5.4847  -14.9951   25.2087 C.ar    1  UNL1        0.0028
      4 C          -6.9806  -14.9671   25.3165 C.ar    1  UNL1       -0.0043
      5 C          -7.8087  -15.9217   24.5085 C.ar    1  UNL1       -0.0200
      6 C          -7.1410  -16.9043   23.5928 C.ar    1  UNL1        0.0258
      7 C          -7.9693  -17.8590   22.7848 C.3     1  UNL1        0.1004
      8 N          -9.4651  -17.8310   22.8926 N.am    1  UNL1       -0.2759
      9 C         -10.2933  -18.7857   22.0847 C.2     1  UNL1        0.2420
     10 O          -9.6256  -19.7683   21.1689 O.2     1  UNL1       -0.2734
     11 C         -10.1328  -16.8483   23.8084 C.3     1  UNL1        0.0984
     12 C          -9.3046  -15.8937   24.6163 C.3     1  UNL1        0.0477
     13 C          -7.3016  -18.8417   21.8690 C.3     1  UNL1        0.0225
     14 C          -6.8802  -20.1843   22.3885 C.3     1  UNL1        0.0020
     15 C          -6.2125  -21.1670   21.4728 C.3     1  UNL1        0.0001
     16 C          -5.9662  -20.8069   20.0375 C.3     1  UNL1        0.0000
     17 C          -6.3876  -19.4643   19.5181 C.3     1  UNL1        0.0001
     18 C          -7.0553  -18.4817   20.4339 C.3     1  UNL1        0.0020
     19 C          -3.5669  -18.3499   22.8358 C.3     1  UNL1        0.2525
     20 O          -4.9775  -17.9150   22.5692 O.3     1  UNL1       -0.4717
     21 C         -11.7891  -18.7576   22.1925 C.3     1  UNL1        0.1552
     22 N         -12.6013  -18.0232   21.1674 N.3     1  UNL1       -0.2878
     23 H         -13.5713  -18.3093   21.3001 H       1  UNL1        0.1238
     24 C         -12.5924  -16.5234   21.1374 C.3     1  UNL1        0.0985
     25 C         -11.7986  -15.7989   20.0910 C.3     1  UNL1        0.1263
     26 C         -10.3536  -15.4785   20.3341 C.3     1  UNL1        0.0332
     27 O         -12.4498  -15.3949   18.8016 O.3     1  UNL1       -0.3830
     28 H         -13.3783  -15.6756   18.8064 H       1  UNL1        0.2104
@<TRIPOS>BOND
     1    19    20    1
     2    20     1    1
     3     1     2   ar
     4     2     3   ar
     5     3     4   ar
     6     4     5   ar
     7     5     6   ar
     8     6     7    1
     9     7    13    1
    10    13    14    1
    11    14    15    1
    12    15    16    1
    13    16    17    1
    14    17    18    1
    15     7     8    1
    16     8     9   am
    17     9    10    2
    18     9    21    1
    19    21    22    1
    20    22    24    1
    21    24    25    1
    22    25    26    1
    23    25    27    1
    24     8    11    1
    25    11    12    1
    26     6     1   ar
    27    18    13    1
    28    12     5    1
    29    22    23    1
    30    27    28    1
@<TRIPOS>MOLECULE
*****
 28 30 0 0 0
SMALL
GASTEIGER

@<TRIPOS>ATOM
      1 C          -6.4841  -20.0247   20.6107 C.ar    1  UNL1        0.1359
      2 C          -5.2723  -20.7275   20.0745 C.ar    1  UNL1        0.0366
      3 C          -3.9047  -20.3284   20.5441 C.ar    1  UNL1        0.0028
      4 C          -3.7490  -19.2266   21.5499 C.ar    1  UNL1       -0.0043
      5 C          -4.9609  -18.5238   22.0861 C.ar    1  UNL1       -0.0200
      6 C          -6.3284  -18.9229   21.6165 C.ar    1  UNL1        0.0258
      7 C          -7.5403  -18.2201   22.1528 C.3     1  UNL1        0.1004
      8 N          -7.3846  -17.1182   23.1586 N.am    1  UNL1       -0.2759
      9 C          -8.5965  -16.4154   23.6948 C.2     1  UNL1        0.2420
     10 O          -9.9640  -16.8145   23.2252 O.2     1  UNL1       -0.2734
     11 C          -6.0170  -16.7192   23.6281 C.3     1  UNL1        0.0984
     12 C          -4.8052  -17.4219   23.0920 C.3     1  UNL1        0.0477
     13 C          -8.9079  -18.6192   21.6832 C.3     1  UNL1        0.0225
     14 C          -9.5232  -17.9353   20.4983 C.3     1  UNL1        0.0020
     15 C         -10.8908  -18.3344   20.0287 C.3     1  UNL1        0.0001
     16 C         -11.6430  -19.4174   20.7440 C.3     1  UNL1        0.0000
     17 C         -11.0276  -20.1011   21.9288 C.3     1  UNL1        0.0001
     18 C          -9.6601  -19.7020   22.3984 C.3     1  UNL1        0.0020
     19 C          -8.1250  -20.5806   18.6746 C.3     1  UNL1        0.2525
     20 O          -7.8517  -20.4238   20.1411 O.3     1  UNL1       -0.4717
     21 C          -8.4407  -15.3136   24.7006 C.3     1  UNL1        0.1552
     22 N          -8.8668  -15.5302   26.1223 N.3     1  UNL1       -0.2878
     23 H          -9.5753  -16.2640   26.1089 H       1  UNL1        0.1238
     24 C          -7.8547  -15.9245   27.1569 C.3     1  UNL1        0.0985
     25 C          -6.5685  -15.1621   27.2765 C.3     1  UNL1        0.1263
     26 C          -5.3366  -15.6552   26.5771 C.3     1  UNL1        0.0332
     27 O          -6.5141  -13.9067   28.0957 O.3     1  UNL1       -0.3830
     28 H          -7.3888  -13.7309   28.4763 H       1  UNL1        0.2104
@<TRIPOS>BOND
     1    19    20    1
     2    20     1    1
     3     1     2   ar
     4     2     3   ar
     5     3     4   ar
     6     4     5   ar
     7     5     6   ar
     8     6     7    1
     9     7    13    1
    10    13    14    1
    11    14    15    1
    12    15    16    1
    13    16    17    1
    14    17    18    1
    15     7     8    1
    16     8     9   am
    17     9    10    2
    18     9    21    1
    19    21    22    1
    20    22    24    1
    21    24    25    1
    22    25    26    1
    23    25    27    1
    24     8    11    1
    25    11    12    1
    26     6     1   ar
    27    18    13    1
    28    12     5    1
    29    22    23    1
    30    27    28    1
@<TRIPOS>MOLECULE
*****
 28 30 0 0 0
SMALL
GASTEIGER

@<TRIPOS>ATOM
      1 C          -4.5841  -17.4621   23.1910 C.ar    1  UNL1        0.1359
      2 C          -3.0993  -17.6448   23.0818 C.ar    1  UNL1        0.0366
      3 C          -2.5359  -18.6513   22.1229 C.ar    1  UNL1        0.0028
      4 C          -3.4574  -19.4752   21.2731 C.ar    1  UNL1       -0.0043
      5 C          -4.9422  -19.2925   21.3823 C.ar    1  UNL1       -0.0200
      6 C          -5.5055  -18.2860   22.3412 C.ar    1  UNL1        0.0258
      7 C          -6.9904  -18.1033   22.4503 C.3     1  UNL1        0.1004
      8 N          -7.9119  -18.9272   21.6005 N.am    1  UNL1       -0.2759
      9 C          -9.3967  -18.7445   21.7096 C.2     1  UNL1        0.2420
     10 O          -9.9601  -17.7380   22.6685 O.2     1  UNL1       -0.2734
     11 C          -7.3485  -19.9337   20.6416 C.3     1  UNL1        0.0984
     12 C          -5.8637  -20.1164   20.5325 C.3     1  UNL1        0.0477
     13 C          -7.5538  -17.0968   23.4092 C.3     1  UNL1        0.0225
     14 C          -7.6035  -15.6462   23.0305 C.3     1  UNL1        0.0020
     15 C          -8.1669  -14.6396   23.9894 C.3     1  UNL1        0.0001
     16 C          -8.6805  -15.0837   25.3270 C.3     1  UNL1        0.0000
     17 C          -8.6308  -16.5342   25.7056 C.3     1  UNL1        0.0001
     18 C          -8.0674  -17.5408   24.7467 C.3     1  UNL1        0.0020
     19 C          -4.6396  -16.3971   25.5600 C.3     1  UNL1        0.2525
     20 O          -5.1475  -16.4556   24.1499 O.3     1  UNL1       -0.4717
     21 C         -10.3182  -19.5684   20.8599 C.3     1  UNL1        0.1552
     22 N         -11.4271  -18.9066   20.0969 N.3     1  UNL1       -0.2878
     23 H         -12.2132  -18.8145   20.7403 H       1  UNL1        0.1238
     24 C         -11.2116  -17.5561   19.4805 C.3     1  UNL1        0.0985
     25 C         -12.0739  -16.3989   19.8893 C.3     1  UNL1        0.1263
     26 C         -12.6291  -16.3321   21.2811 C.3     1  UNL1        0.0332
     27 O         -12.3811  -15.3084   18.9061 O.3     1  UNL1       -0.3830
     28 H         -11.9484  -15.5042   18.0604 H       1  UNL1        0.2104
@<TRIPOS>BOND
     1    19    20    1
     2    20     1    1
     3     1     2   ar
     4     2     3   ar
     5     3     4   ar
     6     4     5   ar
     7     5     6   ar
     8     6     7    1
     9     7    13    1
    10    13    14    1
    11    14    15    1
    12    15    16    1
    13    16    17    1
    14    17    18    1
    15     7     8    1
    16     8     9   am
    17     9    10    2
    18     9    21    1
    19    21    22    1
    20    22    24    1
    21    24    25    1
    22    25    26    1
    23    25    27    1
    24     8    11    1
    25    11    12    1
    26     6     1   ar
    27    18    13    1
    28    12     5    1
    29    22    23    1
    30    27    28    1
@<TRIPOS>MOLECULE
*****
 28 30 0 0 0
SMALL
GASTEIGER

@<TRIPOS>ATOM
      1 C           2.4147   -0.5817   21.2636 C.ar    1  UNL1        0.1359
      2 C           1.3878    0.5074   21.3598 C.ar    1  UNL1        0.0366
      3 C           1.0880    1.1405   22.6862 C.ar    1  UNL1        0.0028
      4 C           1.8151    0.6845   23.9163 C.ar    1  UNL1       -0.0043
      5 C           2.8420   -0.4046   23.8201 C.ar    1  UNL1       -0.0200
      6 C           3.1418   -1.0377   22.4938 C.ar    1  UNL1        0.0258
      7 C           4.1688   -2.1268   22.3976 C.3     1  UNL1        0.1004
      8 N           4.8959   -2.5828   23.6278 N.am    1  UNL1       -0.2759
      9 C           5.9229   -3.6720   23.5316 C.2     1  UNL1        0.2420
     10 O           6.2227   -4.3051   22.2053 O.2     1  UNL1       -0.2734
     11 C           4.5961   -1.9497   24.9542 C.3     1  UNL1        0.0984
     12 C           3.5692   -0.8606   25.0504 C.3     1  UNL1        0.0477
     13 C           4.4686   -2.7600   21.0712 C.3     1  UNL1        0.0225
     14 C           5.5390   -2.1858   20.1910 C.3     1  UNL1        0.0020
     15 C           5.8388   -2.8190   18.8646 C.3     1  UNL1        0.0001
     16 C           5.0682   -4.0262   18.4185 C.3     1  UNL1        0.0000
     17 C           3.9980   -4.6002   19.2987 C.3     1  UNL1        0.0001
     18 C           3.6981   -3.9671   20.6251 C.3     1  UNL1        0.0020
     19 C           2.7893   -0.3677   18.7016 C.3     1  UNL1        0.2525
     20 O           2.7146   -1.2148   19.9372 O.3     1  UNL1       -0.4717
     21 C           6.6499   -4.1279   24.7618 C.3     1  UNL1        0.1552
     22 N           8.1389   -3.9720   24.8540 N.3     1  UNL1       -0.2878
     23 H           8.3372   -3.5752   25.7725 H       1  UNL1        0.1238
     24 C           9.0295   -5.1690   24.6980 C.3     1  UNL1        0.0985
     25 C           8.5283   -6.3886   23.9830 C.3     1  UNL1        0.1263
     26 C           8.2352   -7.6420   24.7530 C.3     1  UNL1        0.0332
     27 O           8.3202   -6.3548   22.4978 O.3     1  UNL1       -0.3830
     28 H           8.5550   -5.4770   22.1583 H       1  UNL1        0.2104
@<TRIPOS>BOND
     1    19    20    1
     2    20     1    1
     3     1     2   ar
     4     2     3   ar
     5     3     4   ar
     6     4     5   ar
     7     5     6   ar
     8     6     7    1
     9     7    13    1
    10    13    14    1
    11    14    15    1
    12    15    16    1
    13    16    17    1
    14    17    18    1
    15     7     8    1
    16     8     9   am
    17     9    10    2
    18     9    21    1
    19    21    22    1
    20    22    24    1
    21    24    25    1
    22    25    26    1
    23    25    27    1
    24     8    11    1
    25    11    12    1
    26     6     1   ar
    27    18    13    1
    28    12     5    1
    29    22    23    1
    30    27    28    1
@<TRIPOS>MOLECULE
*****
 28 30 0 0 0
SMALL
GASTEIGER

@<TRIPOS>ATOM
      1 C           3.3465   -1.0732   22.4132 C.ar    1  UNL1        0.1359
      2 C           2.4294   -0.0844   23.0698 C.ar    1  UNL1        0.0366
      3 C           2.5206    0.1565   24.5475 C.ar    1  UNL1        0.0028
      4 C           3.5288   -0.5913   25.3686 C.ar    1  UNL1       -0.0043
      5 C           4.4459   -1.5801   24.7120 C.ar    1  UNL1       -0.0200
      6 C           4.3547   -1.8211   23.2342 C.ar    1  UNL1        0.0258
      7 C           5.2718   -2.8099   22.5776 C.3     1  UNL1        0.1004
      8 N           6.2800   -3.5578   23.3987 N.am    1  UNL1       -0.2759
      9 C           7.1972   -4.5466   22.7420 C.2     1  UNL1        0.2420
     10 O           7.1060   -4.7876   21.2643 O.2     1  UNL1       -0.2734
     11 C           6.3712   -3.3168   24.8764 C.3     1  UNL1        0.0984
     12 C           5.4542   -2.3280   25.5330 C.3     1  UNL1        0.0477
     13 C           5.1806   -3.0509   21.0999 C.3     1  UNL1        0.0225
     14 C           6.0101   -2.2338   20.1541 C.3     1  UNL1        0.0020
     15 C           5.9189   -2.4747   18.6764 C.3     1  UNL1        0.0001
     16 C           4.9983   -3.5329   18.1445 C.3     1  UNL1        0.0000
     17 C           4.1689   -4.3500   19.0902 C.3     1  UNL1        0.0001
     18 C           4.2601   -4.1090   20.5679 C.3     1  UNL1        0.0020
     19 C           1.9669   -1.0571   20.2117 C.3     1  UNL1        0.2525
     20 O           3.2553   -1.3142   20.9355 O.3     1  UNL1       -0.4717
     21 C           8.2054   -5.2945   23.5631 C.3     1  UNL1        0.1552
     22 N           7.9976   -6.7494   23.8632 N.3     1  UNL1       -0.2878
     23 H           8.5838   -7.2710   23.2116 H       1  UNL1        0.1238
     24 C           8.2935   -7.2822   25.2338 C.3     1  UNL1        0.0985
     25 C           7.1925   -7.4032   26.2453 C.3     1  UNL1        0.1263
     26 C           6.7181   -6.1884   26.9864 C.3     1  UNL1        0.0332
     27 O           6.5658   -8.7389   26.5156 O.3     1  UNL1       -0.3830
     28 H           6.9853   -9.4119   25.9570 H       1  UNL1        0.2104
@<TRIPOS>BOND
     1    19    20    1
     2    20     1    1
     3     1     2   ar
     4     2     3   ar
     5     3     4   ar
     6     4     5   ar
     7     5     6   ar
     8     6     7    1
     9     7    13    1
    10    13    14    1
    11    14    15    1
    12    15    16    1
    13    16    17    1
    14    17    18    1
    15     7     8    1
    16     8     9   am
    17     9    10    2
    18     9    21    1
    19    21    22    1
    20    22    24    1
    21    24    25    1
    22    25    26    1
    23    25    27    1
    24     8    11    1
    25    11    12    1
    26     6     1   ar
    27    18    13    1
    28    12     5    1
    29    22    23    1
    30    27    28    1
@<TRIPOS>MOLECULE
*****
 28 30 0 0 0
SMALL
GASTEIGER

@<TRIPOS>ATOM
      1 C          -4.4801  -17.5874   23.2693 C.ar    1  UNL1        0.1359
      2 C          -3.0209  -17.9348   23.2649 C.ar    1  UNL1        0.0366
      3 C          -2.4839  -18.9052   22.2550 C.ar    1  UNL1        0.0028
      4 C          -3.4061  -19.5282   21.2494 C.ar    1  UNL1       -0.0043
      5 C          -4.8653  -19.1808   21.2537 C.ar    1  UNL1       -0.0200
      6 C          -5.4023  -18.2104   22.2636 C.ar    1  UNL1        0.0258
      7 C          -6.8615  -17.8630   22.2679 C.3     1  UNL1        0.1004
      8 N          -7.7838  -18.4860   21.2623 N.am    1  UNL1       -0.2759
      9 C          -9.2430  -18.1386   21.2666 C.2     1  UNL1        0.2420
     10 O          -9.7800  -17.1682   22.2765 O.2     1  UNL1       -0.2734
     11 C          -7.2468  -19.4564   20.2524 C.3     1  UNL1        0.0984
     12 C          -5.7876  -19.8038   20.2481 C.3     1  UNL1        0.0477
     13 C          -7.3985  -16.8926   23.2779 C.3     1  UNL1        0.0225
     14 C          -8.0531  -17.3980   24.5294 C.3     1  UNL1        0.0020
     15 C          -8.5900  -16.4275   25.5393 C.3     1  UNL1        0.0001
     16 C          -8.4724  -14.9517   25.2977 C.3     1  UNL1        0.0000
     17 C          -7.8179  -14.4464   24.0463 C.3     1  UNL1        0.0001
     18 C          -7.2809  -15.4169   23.0363 C.3     1  UNL1        0.0020
     19 C          -4.5590  -16.6888   25.7057 C.3     1  UNL1        0.2525
     20 O          -5.0170  -16.6169   24.2792 O.3     1  UNL1       -0.4717
     21 C         -10.1653  -18.7617   20.2610 C.3     1  UNL1        0.1552
     22 N         -11.2759  -19.6604   20.7177 N.3     1  UNL1       -0.2878
     23 H         -11.4871  -20.2860   19.9402 H       1  UNL1        0.1238
     24 C         -11.0915  -20.5238   21.9304 C.3     1  UNL1        0.0985
     25 C         -11.0087  -19.8980   23.2911 C.3     1  UNL1        0.1263
     26 C         -10.0326  -20.4249   24.3008 C.3     1  UNL1        0.0332
     27 O         -11.9021  -18.7453   23.6421 O.3     1  UNL1       -0.3830
     28 H         -12.4674  -18.5317   22.8833 H       1  UNL1        0.2104
@<TRIPOS>BOND
     1    19    20    1
     2    20     1    1
     3     1     2   ar
     4     2     3   ar
     5     3     4   ar
     6     4     5   ar
     7     5     6   ar
     8     6     7    1
     9     7    13    1
    10    13    14    1
    11    14    15    1
    12    15    16    1
    13    16    17    1
    14    17    18    1
    15     7     8    1
    16     8     9   am
    17     9    10    2
    18     9    21    1
    19    21    22    1
    20    22    24    1
    21    24    25    1
    22    25    26    1
    23    25    27    1
    24     8    11    1
    25    11    12    1
    26     6     1   ar
    27    18    13    1
    28    12     5    1
    29    22    23    1
    30    27    28    1
