@<TRIPOS>MOLECULE
*****
 24 27 0 0 0
SMALL
GASTEIGER

@<TRIPOS>ATOM
      1 C          -2.4586  -18.6360   21.4730 C.2     1  UNL1        0.1199
      2 C          -2.4311  -17.7046   22.6484 C.2     1  UNL1        0.0342
      3 C          -3.7157  -17.2530   23.2777 C.2     1  UNL1        0.0216
      4 C          -5.0277  -17.7329   22.7316 C.2     1  UNL1        0.0781
      5 N          -6.4450  -17.4606   23.1405 N.2     1  UNL1       -0.2439
      6 C          -7.3484  -18.2238   22.2178 C.2     1  UNL1        0.1050
      7 C          -6.4895  -18.9677   21.2386 C.2     1  UNL1        0.0926
      8 C          -5.0552  -18.6644   21.5562 C.2     1  UNL1        0.0100
      9 C          -3.7706  -19.1159   20.9269 C.3     1  UNL1        0.0808
     10 C          -3.7981  -20.0474   19.7515 C.3     1  UNL1        0.0127
     11 C          -0.4615  -18.1958   19.8707 C.3     1  UNL1        0.2520
     12 O          -1.1741  -19.0877   20.8437 O.2     1  UNL1       -0.4754
     13 C          -6.9789  -19.8587   20.1356 C.2     1  UNL1        0.3425
     14 O          -6.4995  -21.2773   20.0489 O.2     1  UNL1       -0.2448
     15 O          -7.9477  -19.3309   19.1193 O.3     1  UNL1       -0.4454
     16 C          -9.3800  -19.7756   19.1468 C.3     1  UNL1        0.2087
     17 C         -10.3353  -19.1675   20.1304 C.3     1  UNL1        0.0445
     18 C         -10.5573  -19.8210   21.4623 C.3     1  UNL1        0.0210
     19 C         -11.5127  -19.2130   22.4461 C.3     1  UNL1        0.0722
     20 N         -12.2460  -17.9516   22.0979 N.3     1  UNL1       -0.2727
     21 C         -12.0240  -17.2982   20.7661 C.3     1  UNL1        0.0722
     22 C         -11.0687  -17.9062   19.7823 C.3     1  UNL1        0.0210
     23 C         -11.7325  -18.2475   21.5263 C.3     1  UNL1        0.0722
     24 C         -10.8687  -18.7973   20.6368 C.3     1  UNL1        0.0210
@<TRIPOS>BOND
     1    11    12    1
     2    12     1    1
     3     1     2    2
     4     2     3    1
     5     3     4    2
     6     4     5    1
     7     5     6    2
     8     6     7    1
     9     7    13    1
    10    13    14    2
    11    13    15    1
    12    15    16    1
    13    16    17    1
    14    17    18    1
    15    18    19    1
    16    19    20    1
    17    20    21    1
    18    21    22    1
    19    20    23    1
    20    23    24    1
    21     7     8    2
    22     8     9    1
    23     9    10    1
    24     9     1    1
    25     8     4    1
    26    22    17    1
    27    24    17    1
@<TRIPOS>MOLECULE
*****
 24 27 0 0 0
SMALL
GASTEIGER

@<TRIPOS>ATOM
      1 C          -7.6982  -15.8416   25.3551 C.2     1  UNL1        0.1199
      2 C          -8.2769  -16.4240   26.6103 C.2     1  UNL1        0.0342
      3 C          -9.2866  -17.5303   26.5278 C.2     1  UNL1        0.0216
      4 C          -9.7175  -18.0541   25.1900 C.2     1  UNL1        0.0781
      5 N         -10.6874  -19.1292   24.7980 N.2     1  UNL1       -0.2439
      6 C         -10.7080  -19.2112   23.3004 C.2     1  UNL1        0.1050
      7 C          -9.7509  -18.1868   22.7668 C.2     1  UNL1        0.0926
      8 C          -9.1388  -17.4717   23.9347 C.2     1  UNL1        0.0100
      9 C          -8.1291  -16.3655   24.0172 C.3     1  UNL1        0.0808
     10 C          -7.5503  -15.7830   22.7619 C.3     1  UNL1        0.0127
     11 C          -5.2878  -15.0304   25.8856 C.3     1  UNL1        0.2520
     12 O          -6.6885  -14.7353   25.4376 O.2     1  UNL1       -0.4754
     13 C          -9.4575  -17.9238   21.3195 C.2     1  UNL1        0.3425
     14 O         -10.3445  -17.0083   20.5288 O.2     1  UNL1       -0.2448
     15 O          -8.2772  -18.5762   20.6628 O.3     1  UNL1       -0.4454
     16 C          -7.4979  -19.6278   21.3954 C.3     1  UNL1        0.2087
     17 C          -5.9983  -19.5953   21.3825 C.3     1  UNL1        0.0445
     18 C          -5.2407  -20.3543   20.3336 C.3     1  UNL1        0.0210
     19 C          -3.7411  -20.3218   20.3207 C.3     1  UNL1        0.0722
     20 N          -2.9991  -19.5304   21.3567 N.3     1  UNL1       -0.2727
     21 C          -3.7566  -18.7715   22.4055 C.3     1  UNL1        0.0722
     22 C          -5.2562  -18.8039   22.4185 C.3     1  UNL1        0.0210
     23 C          -3.8210  -19.5181   21.4042 C.3     1  UNL1        0.0722
     24 C          -5.1770  -19.5474   21.4159 C.3     1  UNL1        0.0210
@<TRIPOS>BOND
     1    11    12    1
     2    12     1    1
     3     1     2    2
     4     2     3    1
     5     3     4    2
     6     4     5    1
     7     5     6    2
     8     6     7    1
     9     7    13    1
    10    13    14    2
    11    13    15    1
    12    15    16    1
    13    16    17    1
    14    17    18    1
    15    18    19    1
    16    19    20    1
    17    20    21    1
    18    21    22    1
    19    20    23    1
    20    23    24    1
    21     7     8    2
    22     8     9    1
    23     9    10    1
    24     9     1    1
    25     8     4    1
    26    22    17    1
    27    24    17    1
@<TRIPOS>MOLECULE
*****
 24 27 0 0 0
SMALL
GASTEIGER

@<TRIPOS>ATOM
      1 C          -6.5674  -17.9566   22.2328 C.2     1  UNL1        0.1199
      2 C          -5.8105  -19.1404   21.7079 C.2     1  UNL1        0.0342
      3 C          -6.4343  -20.0319   20.6753 C.2     1  UNL1        0.0216
      4 C          -7.8152  -19.7394   20.1677 C.2     1  UNL1        0.0781
      5 N          -8.6820  -20.4342   19.1597 N.2     1  UNL1       -0.2439
      6 C          -9.9747  -19.6797   19.0617 C.2     1  UNL1        0.1050
      7 C          -9.9068  -18.5187   20.0090 C.2     1  UNL1        0.0926
      8 C          -8.5721  -18.5556   20.6926 C.2     1  UNL1        0.0100
      9 C          -7.9483  -17.6642   21.7251 C.3     1  UNL1        0.0808
     10 C          -8.7052  -16.4803   22.2500 C.3     1  UNL1        0.0127
     11 C          -4.4668  -17.1311   23.5195 C.3     1  UNL1        0.2520
     12 O          -5.9436  -17.0652   23.2654 O.2     1  UNL1       -0.4754
     13 C         -10.9844  -17.4996   20.2334 C.2     1  UNL1        0.3425
     14 O         -10.7329  -16.0576   19.9061 O.2     1  UNL1       -0.2448
     15 O         -12.3136  -17.9227   20.7851 O.3     1  UNL1       -0.4454
     16 C         -12.5319  -17.9612   22.2685 C.3     1  UNL1        0.2087
     17 C         -11.5340  -18.6443   23.1560 C.3     1  UNL1        0.0445
     18 C         -11.0931  -20.0450   22.8497 C.3     1  UNL1        0.0210
     19 C         -10.0952  -20.7281   23.7372 C.3     1  UNL1        0.0722
     20 N          -9.5382  -20.0105   24.9309 N.3     1  UNL1       -0.2727
     21 C          -9.9791  -18.6099   25.2371 C.3     1  UNL1        0.0722
     22 C         -10.9770  -17.9267   24.3497 C.3     1  UNL1        0.0210
     23 C         -10.0827  -19.5951   24.4738 C.3     1  UNL1        0.0722
     24 C         -10.9850  -18.9775   23.6713 C.3     1  UNL1        0.0210
@<TRIPOS>BOND
     1    11    12    1
     2    12     1    1
     3     1     2    2
     4     2     3    1
     5     3     4    2
     6     4     5    1
     7     5     6    2
     8     6     7    1
     9     7    13    1
    10    13    14    2
    11    13    15    1
    12    15    16    1
    13    16    17    1
    14    17    18    1
    15    18    19    1
    16    19    20    1
    17    20    21    1
    18    21    22    1
    19    20    23    1
    20    23    24    1
    21     7     8    2
    22     8     9    1
    23     9    10    1
    24     9     1    1
    25     8     4    1
    26    22    17    1
    27    24    17    1
@<TRIPOS>MOLECULE
*****
 24 27 0 0 0
SMALL
GASTEIGER

@<TRIPOS>ATOM
      1 C          -3.9006  -18.8600   22.4014 C.2     1  UNL1        0.1199
      2 C          -3.6291  -17.7299   23.3494 C.2     1  UNL1        0.0342
      3 C          -4.7409  -16.8089   23.7567 C.2     1  UNL1        0.0216
      4 C          -6.1243  -17.0183   23.2159 C.2     1  UNL1        0.0781
      5 N          -7.4104  -16.2784   23.4357 N.2     1  UNL1       -0.2439
      6 C          -8.4768  -16.9513   22.6234 C.2     1  UNL1        0.1050
      7 C          -7.8498  -18.1072   21.9016 C.2     1  UNL1        0.0926
      8 C          -6.3958  -18.1486   22.2679 C.2     1  UNL1        0.0100
      9 C          -5.2840  -19.0694   21.8606 C.3     1  UNL1        0.0808
     10 C          -5.5555  -20.1997   20.9125 C.3     1  UNL1        0.0127
     11 C          -1.9053  -19.4235   20.8357 C.3     1  UNL1        0.2520
     12 O          -2.7888  -19.7809   21.9940 O.2     1  UNL1       -0.4754
     13 C          -8.5533  -19.0551   20.9762 C.2     1  UNL1        0.3425
     14 O          -8.3656  -18.9331   19.4930 O.2     1  UNL1       -0.2448
     15 O          -9.4444  -20.1251   21.5339 O.3     1  UNL1       -0.4454
     16 C         -10.9343  -19.9946   21.4206 C.3     1  UNL1        0.2087
     17 C         -11.5958  -18.6789   21.7057 C.3     1  UNL1        0.0445
     18 C         -12.1702  -18.4071   23.0646 C.3     1  UNL1        0.0210
     19 C         -12.8317  -17.0914   23.3498 C.3     1  UNL1        0.0722
     20 N         -12.9189  -16.0474   22.2761 N.3     1  UNL1       -0.2727
     21 C         -12.3446  -16.3192   20.9173 C.3     1  UNL1        0.0722
     22 C         -11.6830  -17.6349   20.6321 C.3     1  UNL1        0.0210
     23 C         -12.5470  -16.7533   22.0726 C.3     1  UNL1        0.0722
     24 C         -11.9488  -17.9430   21.8148 C.3     1  UNL1        0.0210
@<TRIPOS>BOND
     1    11    12    1
     2    12     1    1
     3     1     2    2
     4     2     3    1
     5     3     4    2
     6     4     5    1
     7     5     6    2
     8     6     7    1
     9     7    13    1
    10    13    14    2
    11    13    15    1
    12    15    16    1
    13    16    17    1
    14    17    18    1
    15    18    19    1
    16    19    20    1
    17    20    21    1
    18    21    22    1
    19    20    23    1
    20    23    24    1
    21     7     8    2
    22     8     9    1
    23     9    10    1
    24     9     1    1
    25     8     4    1
    26    22    17    1
    27    24    17    1
@<TRIPOS>MOLECULE
*****
 24 27 0 0 0
SMALL
GASTEIGER

@<TRIPOS>ATOM
      1 C          -6.5218  -20.1109   20.4966 C.2     1  UNL1        0.1199
      2 C          -5.6627  -20.9886   19.6356 C.2     1  UNL1        0.0342
      3 C          -4.1708  -20.9612   19.7896 C.2     1  UNL1        0.0216
      4 C          -3.5382  -20.0559   20.8046 C.2     1  UNL1        0.0781
      5 N          -2.1062  -19.8150   21.1804 N.2     1  UNL1       -0.2439
      6 C          -2.0803  -18.7884   22.2736 C.2     1  UNL1        0.1050
      7 C          -3.4963  -18.3947   22.5735 C.2     1  UNL1        0.0926
      8 C          -4.3974  -19.1781   21.6656 C.2     1  UNL1        0.0100
      9 C          -5.8892  -19.2056   21.5116 C.3     1  UNL1        0.0808
     10 C          -6.7483  -18.3278   22.3726 C.3     1  UNL1        0.0127
     11 C          -8.6484  -19.6077   19.0914 C.3     1  UNL1        0.2520
     12 O          -8.0137  -20.1383   20.3426 O.2     1  UNL1       -0.4754
     13 C          -3.9343  -17.3935   23.6010 C.2     1  UNL1        0.3425
     14 O          -3.7651  -17.6940   25.0608 O.2     1  UNL1       -0.2448
     15 O          -4.5416  -16.0918   23.1686 O.3     1  UNL1       -0.4454
     16 C          -4.9517  -15.0780   24.1952 C.3     1  UNL1        0.2087
     17 C          -6.1685  -15.3157   25.0396 C.3     1  UNL1        0.0445
     18 C          -7.5286  -15.3325   24.4072 C.3     1  UNL1        0.0210
     19 C          -8.7454  -15.5702   25.2516 C.3     1  UNL1        0.0722
     20 N          -8.6020  -15.7910   26.7284 N.3     1  UNL1       -0.2727
     21 C          -7.2420  -15.7741   27.3607 C.3     1  UNL1        0.0722
     22 C          -6.0252  -15.5365   26.5164 C.3     1  UNL1        0.0210
     23 C          -7.9062  -15.6647   26.3067 C.3     1  UNL1        0.0722
     24 C          -6.8060  -15.4498   25.5432 C.3     1  UNL1        0.0210
@<TRIPOS>BOND
     1    11    12    1
     2    12     1    1
     3     1     2    2
     4     2     3    1
     5     3     4    2
     6     4     5    1
     7     5     6    2
     8     6     7    1
     9     7    13    1
    10    13    14    2
    11    13    15    1
    12    15    16    1
    13    16    17    1
    14    17    18    1
    15    18    19    1
    16    19    20    1
    17    20    21    1
    18    21    22    1
    19    20    23    1
    20    23    24    1
    21     7     8    2
    22     8     9    1
    23     9    10    1
    24     9     1    1
    25     8     4    1
    26    22    17    1
    27    24    17    1
@<TRIPOS>MOLECULE
*****
 24 27 0 0 0
SMALL
GASTEIGER

@<TRIPOS>ATOM
      1 C          -8.3659  -15.8060   25.2512 C.2     1  UNL1        0.1199
      2 C          -7.5291  -15.0066   24.2971 C.2     1  UNL1        0.0342
      3 C          -7.1629  -15.5788   22.9597 C.2     1  UNL1        0.0216
      4 C          -7.6336  -16.9505   22.5766 C.2     1  UNL1        0.0781
      5 N          -7.4324  -17.7708   21.3370 N.2     1  UNL1       -0.2439
      6 C          -8.1449  -19.0773   21.5251 C.2     1  UNL1        0.1050
      7 C          -8.7865  -19.0644   22.8809 C.2     1  UNL1        0.0926
      8 C          -8.4705  -17.7500   23.5308 C.2     1  UNL1        0.0100
      9 C          -8.8366  -17.1777   24.8681 C.3     1  UNL1        0.0808
     10 C          -9.6735  -17.9772   25.8223 C.3     1  UNL1        0.0127
     11 C          -7.7039  -15.1557   27.6779 C.3     1  UNL1        0.2520
     12 O          -8.7321  -15.2338   26.5886 O.2     1  UNL1       -0.4754
     13 C          -9.6011  -20.1716   23.4814 C.2     1  UNL1        0.3425
     14 O          -8.9487  -21.1807   24.3793 O.2     1  UNL1       -0.2448
     15 O         -11.0680  -20.2698   23.1840 O.3     1  UNL1       -0.4454
     16 C         -11.8958  -19.0238   23.0736 C.3     1  UNL1        0.2087
     17 C         -11.6407  -18.0499   21.9617 C.3     1  UNL1        0.0445
     18 C         -11.5064  -16.5865   22.2627 C.3     1  UNL1        0.0210
     19 C         -11.2512  -15.6124   21.1509 C.3     1  UNL1        0.0722
     20 N         -11.1305  -16.1018   19.7380 N.3     1  UNL1       -0.2727
     21 C         -11.2648  -17.5651   19.4371 C.3     1  UNL1        0.0722
     22 C         -11.5199  -18.5392   20.5489 C.3     1  UNL1        0.0210
     23 C         -11.2705  -16.6734   20.3139 C.3     1  UNL1        0.0722
     24 C         -11.5012  -17.5541   21.3193 C.3     1  UNL1        0.0210
@<TRIPOS>BOND
     1    11    12    1
     2    12     1    1
     3     1     2    2
     4     2     3    1
     5     3     4    2
     6     4     5    1
     7     5     6    2
     8     6     7    1
     9     7    13    1
    10    13    14    2
    11    13    15    1
    12    15    16    1
    13    16    17    1
    14    17    18    1
    15    18    19    1
    16    19    20    1
    17    20    21    1
    18    21    22    1
    19    20    23    1
    20    23    24    1
    21     7     8    2
    22     8     9    1
    23     9    10    1
    24     9     1    1
    25     8     4    1
    26    22    17    1
    27    24    17    1
@<TRIPOS>MOLECULE
*****
 24 27 0 0 0
SMALL
GASTEIGER

@<TRIPOS>ATOM
      1 C          -5.6565  -20.1453   20.5914 C.2     1  UNL1        0.1199
      2 C          -4.3770  -20.6910   20.0302 C.2     1  UNL1        0.0342
      3 C          -3.0601  -20.1453   20.4973 C.2     1  UNL1        0.0216
      4 C          -3.0229  -19.0538   21.5255 C.2     1  UNL1        0.0781
      5 N          -1.8839  -18.3235   22.1731 N.2     1  UNL1       -0.2439
      6 C          -2.4596  -17.3263   23.1346 C.2     1  UNL1        0.1050
      7 C          -3.9543  -17.4404   23.0811 C.2     1  UNL1        0.0926
      8 C          -4.3024  -18.5081   22.0867 C.2     1  UNL1        0.0100
      9 C          -5.6192  -19.0538   21.6196 C.3     1  UNL1        0.0808
     10 C          -6.8988  -18.5081   22.1807 C.3     1  UNL1        0.0127
     11 C          -7.9307  -19.8066   19.3818 C.3     1  UNL1        0.2520
     12 O          -6.9734  -20.6910   20.1243 O.2     1  UNL1       -0.4754
     13 C          -4.9296  -16.6293   23.8816 C.2     1  UNL1        0.3425
     14 O          -4.8810  -16.6630   25.3804 O.2     1  UNL1       -0.2448
     15 O          -5.9536  -15.7844   23.1833 O.3     1  UNL1       -0.4454
     16 C          -7.1685  -15.3121   23.9254 C.3     1  UNL1        0.2087
     17 C          -8.4236  -16.1335   23.9095 C.3     1  UNL1        0.0445
     18 C          -9.3309  -16.0934   22.7156 C.3     1  UNL1        0.0210
     19 C         -10.5860  -16.9148   22.6996 C.3     1  UNL1        0.0722
     20 N         -10.9337  -17.7762   23.8774 N.3     1  UNL1       -0.2727
     21 C         -10.0264  -17.8162   25.0712 C.3     1  UNL1        0.0722
     22 C          -8.7713  -16.9948   25.0872 C.3     1  UNL1        0.0210
     23 C         -10.2352  -17.3436   23.9323 C.3     1  UNL1        0.0722
     24 C          -9.1003  -16.6009   23.9467 C.3     1  UNL1        0.0210
@<TRIPOS>BOND
     1    11    12    1
     2    12     1    1
     3     1     2    2
     4     2     3    1
     5     3     4    2
     6     4     5    1
     7     5     6    2
     8     6     7    1
     9     7    13    1
    10    13    14    2
    11    13    15    1
    12    15    16    1
    13    16    17    1
    14    17    18    1
    15    18    19    1
    16    19    20    1
    17    20    21    1
    18    21    22    1
    19    20    23    1
    20    23    24    1
    21     7     8    2
    22     8     9    1
    23     9    10    1
    24     9     1    1
    25     8     4    1
    26    22    17    1
    27    24    17    1
@<TRIPOS>MOLECULE
*****
 24 27 0 0 0
SMALL
GASTEIGER

@<TRIPOS>ATOM
      1 C         -16.4783   -8.3748   19.3022 C.2     1  UNL1        0.1199
      2 C         -17.9352   -8.1142   19.5456 C.2     1  UNL1        0.0342
      3 C         -18.4377   -6.7047   19.6508 C.2     1  UNL1        0.0216
      4 C         -17.4832   -5.5560   19.5125 C.2     1  UNL1        0.0781
      5 N         -17.6852   -4.0707   19.5695 N.2     1  UNL1       -0.2439
      6 C         -16.3530   -3.4135   19.3612 C.2     1  UNL1        0.1050
      7 C         -15.3277   -4.4925   19.1755 C.2     1  UNL1        0.0926
      8 C         -16.0262   -5.8167   19.2690 C.2     1  UNL1        0.0100
      9 C         -15.5238   -7.2261   19.1638 C.3     1  UNL1        0.0808
     10 C         -14.0668   -7.4868   18.9203 C.3     1  UNL1        0.0127
     11 C         -16.8507  -10.8503   18.6070 C.3     1  UNL1        0.2520
     12 O         -15.9758   -9.7843   19.1970 O.2     1  UNL1       -0.4754
     13 C         -13.8614   -4.2839   18.9380 C.2     1  UNL1        0.3425
     14 O         -12.9455   -4.0124   20.0945 O.2     1  UNL1       -0.2448
     15 O         -13.3109   -4.3469   17.5441 O.3     1  UNL1       -0.4454
     16 C         -11.8275   -4.3779   17.3242 C.3     1  UNL1        0.2087
     17 C         -11.0383   -5.5955   17.7044 C.3     1  UNL1        0.0445
     18 C         -11.2193   -6.8747   16.9421 C.3     1  UNL1        0.0210
     19 C         -10.4300   -8.0924   17.3222 C.3     1  UNL1        0.0722
     20 N          -9.4598   -8.0308   18.4646 N.3     1  UNL1       -0.2727
     21 C          -9.2789   -6.7517   19.2269 C.3     1  UNL1        0.0722
     22 C         -10.0681   -5.5340   18.8468 C.3     1  UNL1        0.0210
     23 C          -9.8699   -7.3376   18.2934 C.3     1  UNL1        0.0722
     24 C         -10.5835   -6.2367   17.9496 C.3     1  UNL1        0.0210
@<TRIPOS>BOND
     1    11    12    1
     2    12     1    1
     3     1     2    2
     4     2     3    1
     5     3     4    2
     6     4     5    1
     7     5     6    2
     8     6     7    1
     9     7    13    1
    10    13    14    2
    11    13    15    1
    12    15    16    1
    13    16    17    1
    14    17    18    1
    15    18    19    1
    16    19    20    1
    17    20    21    1
    18    21    22    1
    19    20    23    1
    20    23    24    1
    21     7     8    2
    22     8     9    1
    23     9    10    1
    24     9     1    1
    25     8     4    1
    26    22    17    1
    27    24    17    1
@<TRIPOS>MOLECULE
*****
 24 27 0 0 0
SMALL
GASTEIGER

@<TRIPOS>ATOM
      1 C          -5.0216  -19.2428   21.9553 C.2     1  UNL1        0.1199
      2 C          -3.6684  -18.8431   22.4639 C.2     1  UNL1        0.0342
      3 C          -3.5129  -17.5948   23.2811 C.2     1  UNL1        0.0216
      4 C          -4.7108  -16.7464   23.5896 C.2     1  UNL1        0.0781
      5 N          -4.8650  -15.4715   24.3649 N.2     1  UNL1       -0.2439
      6 C          -6.3136  -15.0835   24.3354 C.2     1  UNL1        0.1050
      7 C          -7.0547  -16.1184   23.5418 C.2     1  UNL1        0.0926
      8 C          -6.0641  -17.1461   23.0809 C.2     1  UNL1        0.0100
      9 C          -6.2195  -18.3944   22.2638 C.3     1  UNL1        0.0808
     10 C          -7.5728  -18.7942   21.7551 C.3     1  UNL1        0.0127
     11 C          -4.2425  -20.7613   19.9964 C.3     1  UNL1        0.2520
     12 O          -5.1771  -20.4911   21.1381 O.2     1  UNL1       -0.4754
     13 C          -8.5278  -16.1245   23.2589 C.2     1  UNL1        0.3425
     14 O          -9.5092  -16.0572   24.3913 O.2     1  UNL1       -0.2448
     15 O          -9.0194  -16.1979   21.8437 O.3     1  UNL1       -0.4454
     16 C         -10.0353  -17.2309   21.4553 C.3     1  UNL1        0.2087
     17 C         -11.0706  -17.6743   22.4461 C.3     1  UNL1        0.0445
     18 C         -12.4025  -16.9861   22.4976 C.3     1  UNL1        0.0210
     19 C         -13.4379  -17.4295   23.4883 C.3     1  UNL1        0.0722
     20 N         -13.1413  -18.5610   24.4275 N.3     1  UNL1       -0.2727
     21 C         -11.8095  -19.2491   24.3759 C.3     1  UNL1        0.0722
     22 C         -10.7741  -18.8058   23.3852 C.3     1  UNL1        0.0210
     23 C         -12.5424  -18.3534   23.9019 C.3     1  UNL1        0.0722
     24 C         -11.6063  -17.9525   23.0061 C.3     1  UNL1        0.0210
@<TRIPOS>BOND
     1    11    12    1
     2    12     1    1
     3     1     2    2
     4     2     3    1
     5     3     4    2
     6     4     5    1
     7     5     6    2
     8     6     7    1
     9     7    13    1
    10    13    14    2
    11    13    15    1
    12    15    16    1
    13    16    17    1
    14    17    18    1
    15    18    19    1
    16    19    20    1
    17    20    21    1
    18    21    22    1
    19    20    23    1
    20    23    24    1
    21     7     8    2
    22     8     9    1
    23     9    10    1
    24     9     1    1
    25     8     4    1
    26    22    17    1
    27    24    17    1
