@<TRIPOS>MOLECULE
*****
 33 37 0 0 0
SMALL
GASTEIGER

@<TRIPOS>ATOM
      1 N          -0.5545    2.0307   26.3211 N.am    1  UNL1       -0.2589
      2 C          -1.7265    2.8548   25.8768 C.3     1  UNL1        0.0985
      3 C          -1.5159    3.2222   24.4378 C.3     1  UNL1        0.0306
      4 C          -0.2138    2.6252   23.9927 C.3     1  UNL1        0.0737
      5 C           1.1023    1.9708   23.6931 C.3     1  UNL1        0.0260
      6 C           1.7044    2.0895   22.3244 C.3     1  UNL1        0.0727
      7 N           0.9906    2.8624   21.2554 N.3     1  UNL1       -0.2703
      8 C          -0.3255    3.5168   21.5549 C.3     1  UNL1        0.0727
      9 C          -0.9276    3.3982   22.9236 C.3     1  UNL1        0.0260
     10 C           0.3804    1.8888   25.1566 C.2     1  UNL1        0.2284
     11 O           1.6811    1.1417   25.1562 O.2     1  UNL1       -0.2746
     12 C           1.2234    3.3473   28.7199 C.3     1  UNL1        0.0389
     13 C           0.4644    2.0555   28.7921 C.2     1  UNL1        0.0668
     14 C          -0.3528    1.4503   27.6895 C.2     1  UNL1        0.0771
     15 C          -0.9329    0.1630   28.1954 C.3     1  UNL1        0.2499
     16 O          -0.4743   -0.0275   29.6108 O.3     1  UNL1       -0.4392
     17 C           0.3893    1.1422   29.9796 C.2     1  UNL1        0.3386
     18 O           1.0601    1.3602   31.3034 O.2     1  UNL1       -0.2452
     19 C           1.5928    2.9810   19.8866 C.3     1  UNL1        0.1063
     20 C           1.4145    1.8740   18.8903 C.3     1  UNL1        0.1483
     21 O           0.1423    1.7720   18.1022 O.3     1  UNL1       -0.3786
     22 H           0.1904    1.0066   17.5083 H       1  UNL1        0.2108
     23 C           2.5084    0.8689   18.6820 C.ar    1  UNL1        0.0015
     24 C           3.7003    1.2209   17.8421 C.ar    1  UNL1       -0.0020
     25 C           4.7942    0.2159   17.6338 C.ar    1  UNL1        0.0060
     26 C           4.6962   -1.1410   18.2655 C.ar    1  UNL1        0.0748
     27 C           3.5043   -1.4930   19.1054 C.ar    1  UNL1        0.0233
     28 C           2.4104   -0.4880   19.3137 C.ar    1  UNL1       -0.0238
     29 C           1.2185   -0.8400   20.1537 C.3     1  UNL1        0.0306
     30 C           3.6828   -2.8987   19.5975 C.3     1  UNL1        0.2352
     31 O           4.9850   -3.4155   19.0616 O.3     1  UNL1       -0.4404
     32 C           5.6113   -2.3292   18.2384 C.2     1  UNL1        0.3413
     33 O           6.9225   -2.4158   17.5151 O.2     1  UNL1       -0.2449
@<TRIPOS>BOND
     1    12    13    1
     2    13    14    2
     3    14     1    1
     4     1     2    1
     5     2     3    1
     6     3     4    1
     7     4     5    1
     8     5     6    1
     9     6     7    1
    10     7    19    1
    11    19    20    1
    12    20    21    1
    13    20    23    1
    14    23    24   ar
    15    24    25   ar
    16    25    26   ar
    17    26    27   ar
    18    27    28   ar
    19    28    29    1
    20    27    30    1
    21    30    31    1
    22    31    32    1
    23    32    33    2
    24     7     8    1
    25     8     9    1
    26     4    10    1
    27    10    11    2
    28    14    15    1
    29    15    16    1
    30    16    17    1
    31    17    18    2
    32    17    13    1
    33    10     1   am
    34     9     4    1
    35    28    23   ar
    36    32    26    1
    37    21    22    1
@<TRIPOS>MOLECULE
*****
 33 37 0 0 0
SMALL
GASTEIGER

@<TRIPOS>ATOM
      1 N           2.8217   -0.5431   20.6831 N.am    1  UNL1       -0.2589
      2 C           3.0146   -0.3340   22.1559 C.3     1  UNL1        0.0985
      3 C           1.9802    0.6461   22.6243 C.3     1  UNL1        0.0306
      4 C           1.1480    1.0428   21.4409 C.3     1  UNL1        0.0737
      5 C           0.4059    1.3431   20.1725 C.3     1  UNL1        0.0260
      6 C          -0.7444    2.3057   20.1865 C.3     1  UNL1        0.0727
      7 N          -1.1526    2.9680   21.4689 N.3     1  UNL1       -0.2703
      8 C          -0.4104    2.6678   22.7374 C.3     1  UNL1        0.0727
      9 C           0.7398    1.7052   22.7234 C.3     1  UNL1        0.0260
     10 C           1.6681    0.3079   20.2412 C.2     1  UNL1        0.2284
     11 O           1.1293    0.4065   18.8448 O.2     1  UNL1       -0.2746
     12 C           5.4339    0.3341   18.9348 C.3     1  UNL1        0.0389
     13 C           4.8397   -1.0416   19.0025 C.2     1  UNL1        0.0668
     14 C           3.6390   -1.4447   19.8061 C.2     1  UNL1        0.0771
     15 C           3.3990   -2.9078   19.5788 C.3     1  UNL1        0.2499
     16 O           4.4514   -3.4089   18.6347 O.3     1  UNL1       -0.4392
     17 C           5.3418   -2.2555   18.2785 C.2     1  UNL1        0.3386
     18 O           6.5263   -2.3070   17.3597 O.2     1  UNL1       -0.2452
     19 C          -2.3029    3.9307   21.4828 C.3     1  UNL1        0.1063
     20 C          -3.6668    3.4636   21.8970 C.3     1  UNL1        0.1483
     21 O          -4.3920    2.4416   21.0726 O.3     1  UNL1       -0.3786
     22 H          -5.2532    2.2522   21.4767 H       1  UNL1        0.2108
     23 C          -4.3055    4.0184   23.1357 C.ar    1  UNL1        0.0015
     24 C          -3.9209    3.4819   24.4826 C.ar    1  UNL1       -0.0020
     25 C          -4.5596    4.0367   25.7212 C.ar    1  UNL1        0.0060
     26 C          -5.5829    5.1281   25.6129 C.ar    1  UNL1        0.0748
     27 C          -5.9675    5.6646   24.2660 C.ar    1  UNL1        0.0233
     28 C          -5.3288    5.1098   23.0274 C.ar    1  UNL1       -0.0238
     29 C          -5.7134    5.6463   21.6804 C.3     1  UNL1        0.0306
     30 C          -6.9990    6.7343   24.4705 C.3     1  UNL1        0.2352
     31 O          -7.2519    6.8589   25.9437 O.3     1  UNL1       -0.4404
     32 C          -6.3767    5.8662   26.6498 C.2     1  UNL1        0.3413
     33 O          -6.3074    5.6496   28.1324 O.2     1  UNL1       -0.2449
@<TRIPOS>BOND
     1    12    13    1
     2    13    14    2
     3    14     1    1
     4     1     2    1
     5     2     3    1
     6     3     4    1
     7     4     5    1
     8     5     6    1
     9     6     7    1
    10     7    19    1
    11    19    20    1
    12    20    21    1
    13    20    23    1
    14    23    24   ar
    15    24    25   ar
    16    25    26   ar
    17    26    27   ar
    18    27    28   ar
    19    28    29    1
    20    27    30    1
    21    30    31    1
    22    31    32    1
    23    32    33    2
    24     7     8    1
    25     8     9    1
    26     4    10    1
    27    10    11    2
    28    14    15    1
    29    15    16    1
    30    16    17    1
    31    17    18    2
    32    17    13    1
    33    10     1   am
    34     9     4    1
    35    28    23   ar
    36    32    26    1
    37    21    22    1
@<TRIPOS>MOLECULE
*****
 33 37 0 0 0
SMALL
GASTEIGER

@<TRIPOS>ATOM
      1 N           1.1482    0.9882   28.7944 N.am    1  UNL1       -0.2589
      2 C          -0.2924    1.3461   28.5784 C.3     1  UNL1        0.0985
      3 C          -0.5032    1.5525   27.1077 C.3     1  UNL1        0.0306
      4 C           0.8071    1.3222   26.4147 C.3     1  UNL1        0.0737
      5 C           2.1779    1.0627   25.8637 C.3     1  UNL1        0.0260
      6 C           2.4243    1.1634   24.3876 C.3     1  UNL1        0.0727
      7 N           1.2999    1.5237   23.4624 N.3     1  UNL1       -0.2703
      8 C          -0.0709    1.7832   24.0133 C.3     1  UNL1        0.0727
      9 C          -0.3173    1.6825   25.4895 C.3     1  UNL1        0.0260
     10 C           1.8277    0.9735   27.4572 C.2     1  UNL1        0.2284
     11 O           3.2740    0.6643   27.2065 O.2     1  UNL1       -0.2746
     12 C           1.3603    3.0418   31.3217 C.3     1  UNL1        0.0389
     13 C           1.8931    1.6403   31.2773 C.2     1  UNL1        0.0668
     14 C           1.7956    0.6964   30.1157 C.2     1  UNL1        0.0771
     15 C           2.4591   -0.5906   30.5072 C.3     1  UNL1        0.2499
     16 O           2.9667   -0.4421   31.9108 O.3     1  UNL1       -0.4392
     17 C           2.6169    0.9367   32.3868 C.2     1  UNL1        0.3386
     18 O           2.9350    1.5110   33.7354 O.2     1  UNL1       -0.2452
     19 C           1.5463    1.6244   21.9861 C.3     1  UNL1        0.1063
     20 C           1.2466    0.4562   21.0943 C.3     1  UNL1        0.1483
     21 O          -0.1395    0.2601   20.5556 O.3     1  UNL1       -0.3786
     22 H          -0.1614   -0.5355   20.0012 H       1  UNL1        0.2108
     23 C           2.3330   -0.5159   20.7411 C.ar    1  UNL1        0.0015
     24 C           2.9036   -1.4183   21.7948 C.ar    1  UNL1       -0.0020
     25 C           3.9899   -2.3905   21.4416 C.ar    1  UNL1        0.0060
     26 C           4.5057   -2.4602   20.0349 C.ar    1  UNL1        0.0748
     27 C           3.9352   -1.5578   18.9812 C.ar    1  UNL1        0.0233
     28 C           2.8488   -0.5857   19.3343 C.ar    1  UNL1       -0.0238
     29 C           2.2783    0.3167   18.2807 C.3     1  UNL1        0.0306
     30 C           4.6386   -1.8511   17.6893 C.3     1  UNL1        0.2352
     31 O           5.6440   -2.9347   17.9444 O.3     1  UNL1       -0.4404
     32 C           5.5618   -3.3112   19.3941 C.2     1  UNL1        0.3413
     33 O           6.3903   -4.3553   20.0822 O.2     1  UNL1       -0.2449
@<TRIPOS>BOND
     1    12    13    1
     2    13    14    2
     3    14     1    1
     4     1     2    1
     5     2     3    1
     6     3     4    1
     7     4     5    1
     8     5     6    1
     9     6     7    1
    10     7    19    1
    11    19    20    1
    12    20    21    1
    13    20    23    1
    14    23    24   ar
    15    24    25   ar
    16    25    26   ar
    17    26    27   ar
    18    27    28   ar
    19    28    29    1
    20    27    30    1
    21    30    31    1
    22    31    32    1
    23    32    33    2
    24     7     8    1
    25     8     9    1
    26     4    10    1
    27    10    11    2
    28    14    15    1
    29    15    16    1
    30    16    17    1
    31    17    18    2
    32    17    13    1
    33    10     1   am
    34     9     4    1
    35    28    23   ar
    36    32    26    1
    37    21    22    1
@<TRIPOS>MOLECULE
*****
 33 37 0 0 0
SMALL
GASTEIGER

@<TRIPOS>ATOM
      1 N          -5.0144    4.3307   24.3309 N.am    1  UNL1       -0.2589
      2 C          -4.1715    4.0776   25.5457 C.3     1  UNL1        0.0985
      3 C          -2.8209    3.6157   25.0848 C.3     1  UNL1        0.0306
      4 C          -2.8289    3.5834   23.5851 C.3     1  UNL1        0.0737
      5 C          -2.9856    3.6009   22.0934 C.3     1  UNL1        0.0260
      6 C          -1.8393    3.1975   21.2141 C.3     1  UNL1        0.0727
      7 N          -0.5363    2.7766   21.8265 N.3     1  UNL1       -0.2703
      8 C          -0.3796    2.7591   23.3181 C.3     1  UNL1        0.0727
      9 C          -1.5259    3.1625   24.1974 C.3     1  UNL1        0.0260
     10 C          -4.1845    4.0253   23.1192 C.2     1  UNL1        0.2284
     11 O          -4.6318    4.1414   21.6922 O.2     1  UNL1       -0.2746
     12 C          -6.3064    6.5284   26.3681 C.3     1  UNL1        0.0389
     13 C          -7.0310    5.8160   25.2647 C.2     1  UNL1        0.0668
     14 C          -6.4371    4.8059   24.3283 C.2     1  UNL1        0.0771
     15 C          -7.5157    4.3542   23.3889 C.3     1  UNL1        0.2499
     16 O          -8.7762    5.0853   23.7446 O.3     1  UNL1       -0.4392
     17 C          -8.4767    5.9887   24.9040 C.2     1  UNL1        0.3386
     18 O          -9.4516    6.9041   25.5833 O.2     1  UNL1       -0.2452
     19 C           0.6100    2.3732   20.9471 C.3     1  UNL1        0.1063
     20 C           0.7316    0.9539   20.4774 C.3     1  UNL1        0.1483
     21 O          -0.4397    0.0237   20.5898 O.3     1  UNL1       -0.3786
     22 H          -0.1942   -0.8486   20.2438 H       1  UNL1        0.2108
     23 C           2.0247    0.4647   19.8952 C.ar    1  UNL1        0.0015
     24 C           2.3373    0.7122   18.4492 C.ar    1  UNL1       -0.0020
     25 C           3.6303    0.2231   17.8670 C.ar    1  UNL1        0.0060
     26 C           4.6106   -0.5136   18.7309 C.ar    1  UNL1        0.0748
     27 C           4.2979   -0.7612   20.1769 C.ar    1  UNL1        0.0233
     28 C           3.0050   -0.2720   20.7591 C.ar    1  UNL1       -0.0238
     29 C           2.6923   -0.5195   22.2051 C.3     1  UNL1        0.0306
     30 C           5.4496   -1.5108   20.7784 C.3     1  UNL1        0.2352
     31 O           6.4740   -1.7265   19.7042 O.3     1  UNL1       -0.4404
     32 C           5.9554   -1.1102   18.4387 C.2     1  UNL1        0.3413
     33 O           6.6584   -1.0935   17.1137 O.2     1  UNL1       -0.2449
@<TRIPOS>BOND
     1    12    13    1
     2    13    14    2
     3    14     1    1
     4     1     2    1
     5     2     3    1
     6     3     4    1
     7     4     5    1
     8     5     6    1
     9     6     7    1
    10     7    19    1
    11    19    20    1
    12    20    21    1
    13    20    23    1
    14    23    24   ar
    15    24    25   ar
    16    25    26   ar
    17    26    27   ar
    18    27    28   ar
    19    28    29    1
    20    27    30    1
    21    30    31    1
    22    31    32    1
    23    32    33    2
    24     7     8    1
    25     8     9    1
    26     4    10    1
    27    10    11    2
    28    14    15    1
    29    15    16    1
    30    16    17    1
    31    17    18    2
    32    17    13    1
    33    10     1   am
    34     9     4    1
    35    28    23   ar
    36    32    26    1
    37    21    22    1
@<TRIPOS>MOLECULE
*****
 33 37 0 0 0
SMALL
GASTEIGER

@<TRIPOS>ATOM
      1 N           2.4069   -0.0655   19.3576 N.am    1  UNL1       -0.2589
      2 C           1.4281    0.5453   18.3989 C.3     1  UNL1        0.0985
      3 C           0.5634    1.5016   19.1657 C.3     1  UNL1        0.0306
      4 C           1.0078    1.4819   20.5983 C.3     1  UNL1        0.0737
      5 C           1.5598    1.3565   21.9873 C.3     1  UNL1        0.0260
      6 C           0.9686    2.1635   23.1050 C.3     1  UNL1        0.0727
      7 N          -0.1746    3.0959   22.8336 N.3     1  UNL1       -0.2703
      8 C          -0.7266    3.2213   21.4445 C.3     1  UNL1        0.0727
      9 C          -0.1354    2.4143   20.3269 C.3     1  UNL1        0.0260
     10 C           2.1471    0.5134   20.7169 C.2     1  UNL1        0.2284
     11 O           2.8952    0.1819   21.9740 O.2     1  UNL1       -0.2746
     12 C           5.0870    0.4810   17.5778 C.3     1  UNL1        0.0389
     13 C           4.6923   -0.8262   18.1988 C.2     1  UNL1        0.0668
     14 C           3.4605   -1.0773   19.0169 C.2     1  UNL1        0.0771
     15 C           3.4670   -2.5180   19.4345 C.3     1  UNL1        0.2499
     16 O           4.7030   -3.1572   18.8744 O.3     1  UNL1       -0.4392
     17 C           5.4603   -2.1116   18.1108 C.2     1  UNL1        0.3386
     18 O           6.7578   -2.3156   17.3862 O.2     1  UNL1       -0.2452
     19 C          -0.7658    3.9030   23.9513 C.3     1  UNL1        0.1063
     20 C          -1.8189    3.3023   24.8345 C.3     1  UNL1        0.1483
     21 O          -1.4381    2.2897   25.8736 O.3     1  UNL1       -0.3786
     22 H          -2.2315    2.0050   26.3536 H       1  UNL1        0.2108
     23 C          -3.2528    3.7142   24.6787 C.ar    1  UNL1        0.0015
     24 C          -4.0389    3.2577   23.4856 C.ar    1  UNL1       -0.0020
     25 C          -5.4727    3.6696   23.3297 C.ar    1  UNL1        0.0060
     26 C          -6.1205    4.5380   24.3671 C.ar    1  UNL1        0.0748
     27 C          -5.3345    4.9945   25.5603 C.ar    1  UNL1        0.0233
     28 C          -3.9006    4.5826   25.7161 C.ar    1  UNL1       -0.0238
     29 C          -3.1145    5.0392   26.9093 C.3     1  UNL1        0.0306
     30 C          -6.2347    5.8386   26.4130 C.3     1  UNL1        0.2352
     31 O          -7.5770    5.9038   25.7469 O.3     1  UNL1       -0.4404
     32 C          -7.5065    5.1000   24.4825 C.2     1  UNL1        0.3413
     33 O          -8.6255    4.8942   23.5049 O.2     1  UNL1       -0.2449
@<TRIPOS>BOND
     1    12    13    1
     2    13    14    2
     3    14     1    1
     4     1     2    1
     5     2     3    1
     6     3     4    1
     7     4     5    1
     8     5     6    1
     9     6     7    1
    10     7    19    1
    11    19    20    1
    12    20    21    1
    13    20    23    1
    14    23    24   ar
    15    24    25   ar
    16    25    26   ar
    17    26    27   ar
    18    27    28   ar
    19    28    29    1
    20    27    30    1
    21    30    31    1
    22    31    32    1
    23    32    33    2
    24     7     8    1
    25     8     9    1
    26     4    10    1
    27    10    11    2
    28    14    15    1
    29    15    16    1
    30    16    17    1
    31    17    18    2
    32    17    13    1
    33    10     1   am
    34     9     4    1
    35    28    23   ar
    36    32    26    1
    37    21    22    1
@<TRIPOS>MOLECULE
*****
 33 37 0 0 0
SMALL
GASTEIGER

@<TRIPOS>ATOM
      1 N           2.8017   -0.8626   20.5705 N.am    1  UNL1       -0.2589
      2 C           1.5395   -0.1854   20.1248 C.3     1  UNL1        0.0985
      3 C           0.9620    0.5407   21.3035 C.3     1  UNL1        0.0306
      4 C           1.8671    0.3124   22.4777 C.3     1  UNL1        0.0737
      5 C           2.8615   -0.0023   23.5557 C.3     1  UNL1        0.0260
      6 C           2.6643    0.5412   24.9398 C.3     1  UNL1        0.0727
      7 N           1.4727    1.3994   25.2458 N.3     1  UNL1       -0.2703
      8 C           0.4783    1.7141   24.1678 C.3     1  UNL1        0.0727
      9 C           0.6756    1.1706   22.7837 C.3     1  UNL1        0.0260
     10 C           3.0041   -0.5549   22.0247 C.2     1  UNL1        0.2284
     11 O           4.1435   -1.0310   22.8763 O.2     1  UNL1       -0.2746
     12 C           5.4277    0.1923   18.9456 C.3     1  UNL1        0.0389
     13 C           4.9101   -1.2154   18.9659 C.2     1  UNL1        0.0668
     14 C           3.7030   -1.7003   19.7128 C.2     1  UNL1        0.0771
     15 C           3.5555   -3.1699   19.4514 C.3     1  UNL1        0.2499
     16 O           4.6715   -3.5933   18.5428 O.3     1  UNL1       -0.4392
     17 C           5.5086   -2.3854   18.2428 C.2     1  UNL1        0.3386
     18 O           6.7299   -2.3531   17.3725 O.2     1  UNL1       -0.2452
     19 C           1.2755    1.9429   26.6300 C.3     1  UNL1        0.1063
     20 C           0.6688    1.0789   27.6956 C.3     1  UNL1        0.1483
     21 O          -0.4174    0.1060   27.3441 O.3     1  UNL1       -0.3786
     22 H          -0.6963   -0.3694   28.1422 H       1  UNL1        0.2108
     23 C           1.1484    1.1879   29.1127 C.ar    1  UNL1        0.0015
     24 C           0.5538    2.2163   30.0287 C.ar    1  UNL1       -0.0020
     25 C           1.0333    2.3253   31.4457 C.ar    1  UNL1        0.0060
     26 C           2.1073    1.4059   31.9469 C.ar    1  UNL1        0.0748
     27 C           2.7019    0.3776   31.0309 C.ar    1  UNL1        0.0233
     28 C           2.2224    0.2686   29.6138 C.ar    1  UNL1       -0.0238
     29 C           2.8170   -0.7598   28.6979 C.3     1  UNL1        0.0306
     30 C           3.7387   -0.3851   31.8012 C.3     1  UNL1        0.2352
     31 O           3.7849    0.1718   33.1932 O.3     1  UNL1       -0.4404
     32 C           2.7767    1.2787   33.2832 C.2     1  UNL1        0.3413
     33 O           2.4884    2.1122   34.4966 O.2     1  UNL1       -0.2449
@<TRIPOS>BOND
     1    12    13    1
     2    13    14    2
     3    14     1    1
     4     1     2    1
     5     2     3    1
     6     3     4    1
     7     4     5    1
     8     5     6    1
     9     6     7    1
    10     7    19    1
    11    19    20    1
    12    20    21    1
    13    20    23    1
    14    23    24   ar
    15    24    25   ar
    16    25    26   ar
    17    26    27   ar
    18    27    28   ar
    19    28    29    1
    20    27    30    1
    21    30    31    1
    22    31    32    1
    23    32    33    2
    24     7     8    1
    25     8     9    1
    26     4    10    1
    27    10    11    2
    28    14    15    1
    29    15    16    1
    30    16    17    1
    31    17    18    2
    32    17    13    1
    33    10     1   am
    34     9     4    1
    35    28    23   ar
    36    32    26    1
    37    21    22    1
@<TRIPOS>MOLECULE
*****
 33 37 0 0 0
SMALL
GASTEIGER

@<TRIPOS>ATOM
      1 N          -4.8382    4.6228   24.1049 N.am    1  UNL1       -0.2589
      2 C          -5.5696    4.5145   22.7998 C.3     1  UNL1        0.0985
      3 C          -4.6065    4.0033   21.7697 C.3     1  UNL1        0.0306
      4 C          -3.2797    3.7957   22.4382 C.3     1  UNL1        0.0737
      5 C          -2.0211    3.6384   23.2389 C.3     1  UNL1        0.0260
      6 C          -0.7708    3.1361   22.5798 C.3     1  UNL1        0.0727
      7 N          -0.7791    2.7912   21.1201 N.3     1  UNL1       -0.2703
      8 C          -2.0376    2.9485   20.3193 C.3     1  UNL1        0.0727
      9 C          -3.2880    3.4508   20.9784 C.3     1  UNL1        0.0260
     10 C          -3.4229    4.1786   23.8814 C.2     1  UNL1        0.2284
     11 O          -2.3409    4.1264   24.9190 O.2     1  UNL1       -0.2746
     12 C          -7.6457    6.2445   24.4756 C.3     1  UNL1        0.0389
     13 C          -6.7102    5.8382   25.5756 C.2     1  UNL1        0.0668
     14 C          -5.4198    5.0929   25.4052 C.2     1  UNL1        0.0771
     15 C          -4.8130    4.9000   26.7634 C.3     1  UNL1        0.2499
     16 O          -5.7285    5.5262   27.7732 O.3     1  UNL1       -0.4392
     17 C          -6.9011    6.1061   27.0391 C.2     1  UNL1        0.3386
     18 O          -8.0608    6.8272   27.6595 O.2     1  UNL1       -0.2452
     19 C           0.4713    2.2889   20.4610 C.3     1  UNL1        0.1063
     20 C           0.6710    0.8166   20.2549 C.3     1  UNL1        0.1483
     21 O          -0.4398   -0.1418   20.5669 O.3     1  UNL1       -0.3786
     22 H          -0.1476   -1.0476   20.3792 H       1  UNL1        0.2108
     23 C           1.9816    0.3028   19.7368 C.ar    1  UNL1        0.0015
     24 C           2.3061    0.4135   18.2765 C.ar    1  UNL1       -0.0020
     25 C           3.6167   -0.1003   17.7584 C.ar    1  UNL1        0.0060
     26 C           4.6027   -0.7248   18.7006 C.ar    1  UNL1        0.0748
     27 C           4.2781   -0.8356   20.1608 C.ar    1  UNL1        0.0233
     28 C           2.9676   -0.3217   20.6790 C.ar    1  UNL1       -0.0238
     29 C           2.6431   -0.4325   22.1392 C.3     1  UNL1        0.0306
     30 C           5.4389   -1.4949   20.8449 C.3     1  UNL1        0.2352
     31 O           6.4808   -1.7916   19.8074 O.3     1  UNL1       -0.4404
     32 C           5.9640   -1.3157   18.4822 C.2     1  UNL1        0.3413
     33 O           6.6823   -1.4135   17.1690 O.2     1  UNL1       -0.2449
@<TRIPOS>BOND
     1    12    13    1
     2    13    14    2
     3    14     1    1
     4     1     2    1
     5     2     3    1
     6     3     4    1
     7     4     5    1
     8     5     6    1
     9     6     7    1
    10     7    19    1
    11    19    20    1
    12    20    21    1
    13    20    23    1
    14    23    24   ar
    15    24    25   ar
    16    25    26   ar
    17    26    27   ar
    18    27    28   ar
    19    28    29    1
    20    27    30    1
    21    30    31    1
    22    31    32    1
    23    32    33    2
    24     7     8    1
    25     8     9    1
    26     4    10    1
    27    10    11    2
    28    14    15    1
    29    15    16    1
    30    16    17    1
    31    17    18    2
    32    17    13    1
    33    10     1   am
    34     9     4    1
    35    28    23   ar
    36    32    26    1
    37    21    22    1
@<TRIPOS>MOLECULE
*****
 33 37 0 0 0
SMALL
GASTEIGER

@<TRIPOS>ATOM
      1 N           3.2779   -1.2488   19.3546 N.am    1  UNL1       -0.2589
      2 C           3.1634   -0.4907   18.0653 C.3     1  UNL1        0.0985
      3 C           2.2520    0.6784   18.2943 C.3     1  UNL1        0.0306
      4 C           1.8031    0.6430   19.7252 C.3     1  UNL1        0.0737
      5 C           1.4417    0.4780   21.1716 C.3     1  UNL1        0.0260
      6 C           0.5206    1.4610   21.8313 C.3     1  UNL1        0.0727
      7 N          -0.0391    2.6090   21.0445 N.3     1  UNL1       -0.2703
      8 C           0.3223    2.7740   19.5981 C.3     1  UNL1        0.0727
      9 C           1.2434    1.7910   18.9385 C.3     1  UNL1        0.0260
     10 C           2.4371   -0.5481   20.3805 C.2     1  UNL1        0.2284
     11 O           2.2613   -0.9652   21.8105 O.2     1  UNL1       -0.2746
     12 C           6.1958   -1.3942   20.8085 C.3     1  UNL1        0.0389
     13 C           5.4316   -2.5564   20.2470 C.2     1  UNL1        0.0668
     14 C           4.0904   -2.4896   19.5787 C.2     1  UNL1        0.0771
     15 C           3.7042   -3.8813   19.1739 C.3     1  UNL1        0.2499
     16 O           4.8068   -4.8084   19.5920 O.3     1  UNL1       -0.4392
     17 C           5.8744   -3.9896   20.2552 C.2     1  UNL1        0.3386
     18 O           7.1592   -4.5121   20.8263 O.2     1  UNL1       -0.2452
     19 C          -0.9603    3.5920   21.7043 C.3     1  UNL1        0.1063
     20 C          -2.4404    3.3487   21.7056 C.3     1  UNL1        0.1483
     21 O          -3.0743    2.5754   20.5874 O.3     1  UNL1       -0.3786
     22 H          -4.0298    2.5096   20.7409 H       1  UNL1        0.2108
     23 C          -3.2866    3.8785   22.8251 C.ar    1  UNL1        0.0015
     24 C          -4.5296    4.6609   22.5201 C.ar    1  UNL1       -0.0020
     25 C          -5.3758    5.1908   23.6395 C.ar    1  UNL1        0.0060
     26 C          -4.9791    4.9383   25.0638 C.ar    1  UNL1        0.0748
     27 C          -3.7362    4.1559   25.3688 C.ar    1  UNL1        0.0233
     28 C          -2.8899    3.6260   24.2494 C.ar    1  UNL1       -0.0238
     29 C          -1.6470    2.8437   24.5544 C.3     1  UNL1        0.0306
     30 C          -3.5989    4.0664   26.8598 C.3     1  UNL1        0.2352
     31 O          -4.7571    4.7935   27.4764 O.3     1  UNL1       -0.4404
     32 C          -5.6100    5.3323   26.3664 C.2     1  UNL1        0.3413
     33 O          -6.8723    6.1259   26.5302 O.2     1  UNL1       -0.2449
@<TRIPOS>BOND
     1    12    13    1
     2    13    14    2
     3    14     1    1
     4     1     2    1
     5     2     3    1
     6     3     4    1
     7     4     5    1
     8     5     6    1
     9     6     7    1
    10     7    19    1
    11    19    20    1
    12    20    21    1
    13    20    23    1
    14    23    24   ar
    15    24    25   ar
    16    25    26   ar
    17    26    27   ar
    18    27    28   ar
    19    28    29    1
    20    27    30    1
    21    30    31    1
    22    31    32    1
    23    32    33    2
    24     7     8    1
    25     8     9    1
    26     4    10    1
    27    10    11    2
    28    14    15    1
    29    15    16    1
    30    16    17    1
    31    17    18    2
    32    17    13    1
    33    10     1   am
    34     9     4    1
    35    28    23   ar
    36    32    26    1
    37    21    22    1
@<TRIPOS>MOLECULE
*****
 33 37 0 0 0
SMALL
GASTEIGER

@<TRIPOS>ATOM
      1 N           2.4005    0.2190   19.2309 N.am    1  UNL1       -0.2589
      2 C           3.0260    0.2163   17.8675 C.3     1  UNL1        0.0985
      3 C           4.1738   -0.7492   17.8860 C.3     1  UNL1        0.0306
      4 C           4.2577   -1.3433   19.2609 C.3     1  UNL1        0.0737
      5 C           4.2178   -1.8481   20.6728 C.3     1  UNL1        0.0260
      6 C           5.2215   -2.8624   21.1352 C.3     1  UNL1        0.0727
      7 N           6.2650   -3.3719   20.1857 N.3     1  UNL1       -0.2703
      8 C           6.3048   -2.8671   18.7738 C.3     1  UNL1        0.0727
      9 C           5.3012   -1.8528   18.3114 C.3     1  UNL1        0.0260
     10 C           3.1618   -0.7449   20.0921 C.2     1  UNL1        0.2284
     11 O           2.8770   -1.0558   21.5316 O.2     1  UNL1       -0.2746
     12 C           1.9016    3.3669   18.5300 C.3     1  UNL1        0.0389
     13 C           0.9916    2.4881   19.3360 C.2     1  UNL1        0.0668
     14 C           1.2209    1.0412   19.6582 C.2     1  UNL1        0.0771
     15 C           0.0636    0.5607   20.4826 C.3     1  UNL1        0.2499
     16 O          -0.8811    1.7108   20.6699 O.3     1  UNL1       -0.4392
     17 C          -0.3075    2.9019   19.9613 C.2     1  UNL1        0.3386
     18 O          -0.9247    4.2672   19.8904 O.2     1  UNL1       -0.2452
     19 C           7.2686   -4.3863   20.6482 C.3     1  UNL1        0.1063
     20 C           8.0975   -4.1185   21.8693 C.3     1  UNL1        0.1483
     21 O           8.9749   -2.9033   21.9286 O.3     1  UNL1       -0.3786
     22 H           9.4387   -2.8806   22.7802 H       1  UNL1        0.2108
     23 C           8.0490   -5.0660   23.0313 C.ar    1  UNL1        0.0015
     24 C           8.6688   -6.4270   22.9155 C.ar    1  UNL1       -0.0020
     25 C           8.6203   -7.3745   24.0774 C.ar    1  UNL1        0.0060
     26 C           7.9522   -6.9608   25.3550 C.ar    1  UNL1        0.0748
     27 C           7.3324   -5.5997   25.4708 C.ar    1  UNL1        0.0233
     28 C           7.3809   -4.6523   24.3089 C.ar    1  UNL1       -0.0238
     29 C           6.7611   -3.2912   24.4247 C.3     1  UNL1        0.0306
     30 C           6.7474   -5.4723   26.8461 C.3     1  UNL1        0.2352
     31 O           7.0056   -6.7545   27.5804 O.3     1  UNL1       -0.4404
     32 C           7.7502   -7.6745   26.6588 C.2     1  UNL1        0.3413
     33 O           8.2117   -9.0642   26.9839 O.2     1  UNL1       -0.2449
@<TRIPOS>BOND
     1    12    13    1
     2    13    14    2
     3    14     1    1
     4     1     2    1
     5     2     3    1
     6     3     4    1
     7     4     5    1
     8     5     6    1
     9     6     7    1
    10     7    19    1
    11    19    20    1
    12    20    21    1
    13    20    23    1
    14    23    24   ar
    15    24    25   ar
    16    25    26   ar
    17    26    27   ar
    18    27    28   ar
    19    28    29    1
    20    27    30    1
    21    30    31    1
    22    31    32    1
    23    32    33    2
    24     7     8    1
    25     8     9    1
    26     4    10    1
    27    10    11    2
    28    14    15    1
    29    15    16    1
    30    16    17    1
    31    17    18    2
    32    17    13    1
    33    10     1   am
    34     9     4    1
    35    28    23   ar
    36    32    26    1
    37    21    22    1
