@<TRIPOS>MOLECULE
*****
 33 36 0 0 0
SMALL
GASTEIGER

@<TRIPOS>ATOM
      1 N          -5.4576  -16.7179   23.6049 N.am    1  UNL1       -0.1198
      2 C          -6.8443  -16.7528   23.0340 C.2     1  UNL1        0.3351
      3 O          -6.8720  -17.0955   22.1119 O.2     1  UNL1       -0.2500
      4 N          -8.0076  -16.2915   23.8610 N.am    1  UNL1       -0.2210
      5 C          -7.7843  -15.7954   25.2589 C.ar    1  UNL1        0.1579
      6 N          -8.9476  -15.3342   26.0859 N.ar    1  UNL1       -0.2273
      7 C          -8.7242  -14.8381   27.4837 C.ar    1  UNL1        0.1004
      8 C          -7.3375  -14.8033   28.0546 C.ar    1  UNL1        0.0222
      9 C          -6.1742  -15.2645   27.2276 C.ar    1  UNL1        0.0247
     10 C          -6.3976  -15.7606   25.8298 C.ar    1  UNL1        0.1577
     11 S          -5.2342  -16.2219   25.0027 S.O2    1  UNL1        0.0862
     12 O          -3.8231  -16.5505   24.6144 O.2     1  UNL1       -0.1492
     13 O          -4.5208  -15.8399   26.2657 O.2     1  UNL1       -0.1492
     14 C          -3.0725  -19.0579   21.4635 C.ar    1  UNL1        0.1929
     15 C          -4.2357  -18.5966   22.2905 C.ar    1  UNL1        0.0600
     16 C          -4.2943  -17.1792   22.7779 C.ar    1  UNL1        0.1004
     17 C          -3.1896  -16.2231   22.4382 C.ar    1  UNL1        0.1189
     18 N          -2.0263  -16.6844   21.6112 N.ar    1  UNL1       -0.2062
     19 C          -1.9678  -18.1018   21.1238 C.ar    1  UNL1        0.2602
     20 C          -3.9423  -20.9343   19.8911 C.3     1  UNL1        0.2527
     21 O          -3.0139  -20.4754   20.9762 O.3     1  UNL1       -0.4667
     22 O          -0.8044  -18.5631   20.2968 O.3     1  UNL1       -0.4541
     23 C           0.3229  -17.6203   19.9964 C.3     1  UNL1        0.2543
     24 C          -9.3943  -16.3263   23.2901 C.3     1  UNL1        0.1323
     25 C          -9.9836  -17.6268   22.8302 C.ar    1  UNL1        0.0532
     26 C         -10.1830  -18.7471   23.8074 C.ar    1  UNL1        0.1422
     27 F          -9.7932  -18.5671   25.2446 F       1  UNL1       -0.2043
     28 C         -10.7723  -20.0476   23.3474 C.ar    1  UNL1        0.0591
     29 C         -11.1622  -20.2277   21.9102 C.ar    1  UNL1        0.1446
     30 F         -11.7514  -21.5281   21.4502 F       1  UNL1       -0.2040
     31 C         -10.9627  -19.1073   20.9329 C.ar    1  UNL1        0.0591
     32 C         -10.3735  -17.8069   21.3929 C.ar    1  UNL1        0.1422
     33 F         -10.2888  -17.1456   20.6690 F       1  UNL1       -0.2043
@<TRIPOS>BOND
     1    20    21    1
     2    21    14    1
     3    14    15   ar
     4    15    16   ar
     5    16     1    1
     6     1     2   am
     7     2     3    2
     8     2     4   am
     9     4    24    1
    10    24    25    1
    11    25    26   ar
    12    26    27    1
    13    26    28   ar
    14    28    29   ar
    15    29    30    1
    16    29    31   ar
    17    31    32   ar
    18    32    33    1
    19     4     5    1
    20     5     6   ar
    21     6     7   ar
    22     7     8   ar
    23     8     9   ar
    24     9    10   ar
    25    10    11    1
    26    11    12    2
    27    11    13    2
    28    16    17   ar
    29    17    18   ar
    30    18    19   ar
    31    19    22    1
    32    22    23    1
    33    19    14   ar
    34    11     1    1
    35    32    25   ar
    36    10     5   ar
@<TRIPOS>MOLECULE
*****
 33 36 0 0 0
SMALL
GASTEIGER

@<TRIPOS>ATOM
      1 N           3.9018    0.1727   33.0746 N.am    1  UNL1       -0.1198
      2 C           4.1201    0.8893   34.3741 C.2     1  UNL1        0.3351
      3 O           4.8276    0.4820   34.9237 O.2     1  UNL1       -0.2500
      4 N           3.2950    2.0951   34.7135 N.am    1  UNL1       -0.2210
      5 C           2.2515    2.5843   33.7534 C.ar    1  UNL1        0.1579
      6 N           1.4264    3.7901   34.0928 N.ar    1  UNL1       -0.2273
      7 C           0.3829    4.2793   33.1327 C.ar    1  UNL1        0.1004
      8 C           0.1646    3.5627   31.8332 C.ar    1  UNL1        0.0222
      9 C           0.9897    2.3569   31.4937 C.ar    1  UNL1        0.0247
     10 C           2.0331    1.8677   32.4539 C.ar    1  UNL1        0.1577
     11 S           2.8583    0.6619   32.1144 S.O2    1  UNL1        0.0862
     12 O           3.3846   -0.5161   31.3493 O.2     1  UNL1       -0.1492
     13 O           1.9976    0.7420   30.8885 O.2     1  UNL1       -0.1492
     14 C           6.7512   -2.1006   31.5052 C.ar    1  UNL1        0.1929
     15 C           5.9260   -0.8948   31.8446 C.ar    1  UNL1        0.0600
     16 C           4.7270   -1.0331   32.7352 C.ar    1  UNL1        0.1004
     17 C           4.3531   -2.3771   33.2863 C.ar    1  UNL1        0.1189
     18 N           5.1782   -3.5828   32.9469 N.ar    1  UNL1       -0.2062
     19 C           6.3773   -3.4446   32.0563 C.ar    1  UNL1        0.2602
     20 C           7.7724   -1.8467   29.1298 C.3     1  UNL1        0.2527
     21 O           7.9503   -1.9623   30.6146 O.3     1  UNL1       -0.4667
     22 O           7.2025   -4.6504   31.7169 O.3     1  UNL1       -0.4541
     23 C           6.9397   -5.4061   30.4482 C.3     1  UNL1        0.2543
     24 C           3.5133    2.8117   36.0131 C.3     1  UNL1        0.1323
     25 C           2.7343    2.4110   37.2306 C.ar    1  UNL1        0.0532
     26 C           1.6503    3.3052   37.7553 C.ar    1  UNL1        0.1422
     27 F           1.3453    4.6001   37.0625 F       1  UNL1       -0.2043
     28 C           0.8712    2.9044   38.9729 C.ar    1  UNL1        0.0591
     29 C           1.1762    1.6094   39.6658 C.ar    1  UNL1        0.1446
     30 F           0.3971    1.2087   40.8833 F       1  UNL1       -0.2040
     31 C           2.2602    0.7152   39.1411 C.ar    1  UNL1        0.0591
     32 C           3.0392    1.1160   37.9235 C.ar    1  UNL1        0.1422
     33 F           3.7233    0.4554   37.6700 F       1  UNL1       -0.2043
@<TRIPOS>BOND
     1    20    21    1
     2    21    14    1
     3    14    15   ar
     4    15    16   ar
     5    16     1    1
     6     1     2   am
     7     2     3    2
     8     2     4   am
     9     4    24    1
    10    24    25    1
    11    25    26   ar
    12    26    27    1
    13    26    28   ar
    14    28    29   ar
    15    29    30    1
    16    29    31   ar
    17    31    32   ar
    18    32    33    1
    19     4     5    1
    20     5     6   ar
    21     6     7   ar
    22     7     8   ar
    23     8     9   ar
    24     9    10   ar
    25    10    11    1
    26    11    12    2
    27    11    13    2
    28    16    17   ar
    29    17    18   ar
    30    18    19   ar
    31    19    22    1
    32    22    23    1
    33    19    14   ar
    34    11     1    1
    35    32    25   ar
    36    10     5   ar
@<TRIPOS>MOLECULE
*****
 33 36 0 0 0
SMALL
GASTEIGER

@<TRIPOS>ATOM
      1 N         -16.6874   -4.1098   19.2746 N.am    1  UNL1       -0.1198
      2 C         -15.2742   -4.1170   19.7774 C.2     1  UNL1        0.3351
      3 O         -15.0265   -3.2846   20.2403 O.2     1  UNL1       -0.2500
      4 N         -14.4033   -5.3169   19.5499 N.am    1  UNL1       -0.2210
      5 C         -14.9455   -6.5096   18.8196 C.ar    1  UNL1        0.1579
      6 N         -14.0746   -7.7095   18.5921 N.ar    1  UNL1       -0.2273
      7 C         -14.6169   -8.9021   17.8617 C.ar    1  UNL1        0.1004
      8 C         -16.0301   -8.8949   17.3589 C.ar    1  UNL1        0.0222
      9 C         -16.9010   -7.6951   17.5864 C.ar    1  UNL1        0.0247
     10 C         -16.3587   -6.5024   18.3167 C.ar    1  UNL1        0.1577
     11 S         -17.2297   -5.3025   18.5443 S.O2    1  UNL1        0.0862
     12 O         -18.4342   -4.4090   18.5145 O.2     1  UNL1       -0.1492
     13 O         -18.1903   -6.1849   17.8036 O.2     1  UNL1       -0.1492
     14 C         -18.3137   -0.5175   18.8270 C.ar    1  UNL1        0.1929
     15 C         -17.4429   -1.7174   18.5996 C.ar    1  UNL1        0.0600
     16 C         -17.5583   -2.9099   19.5021 C.ar    1  UNL1        0.1004
     17 C         -18.5446   -2.9025   20.6322 C.ar    1  UNL1        0.1189
     18 N         -19.4155   -1.7026   20.8597 N.ar    1  UNL1       -0.2062
     19 C         -19.3000   -0.5101   19.9571 C.ar    1  UNL1        0.2602
     20 C         -17.1206    1.6916   18.1590 C.3     1  UNL1        0.2527
     21 O         -18.1983    0.6750   17.9245 O.3     1  UNL1       -0.4667
     22 O         -20.1710    0.6899   20.1846 O.3     1  UNL1       -0.4541
     23 C         -19.6543    1.8516   20.9805 C.3     1  UNL1        0.2543
     24 C         -12.9901   -5.3240   20.0528 C.3     1  UNL1        0.1323
     25 C         -11.8663   -4.9385   19.1372 C.ar    1  UNL1        0.0532
     26 C         -10.8735   -5.9712   18.6922 C.ar    1  UNL1        0.1422
     27 F         -11.0045   -7.3893   19.1629 F       1  UNL1       -0.2043
     28 C          -9.7496   -5.5856   17.7766 C.ar    1  UNL1        0.0591
     29 C          -9.6186   -4.1674   17.3060 C.ar    1  UNL1        0.1446
     30 F          -8.4948   -3.7818   16.3904 F       1  UNL1       -0.2040
     31 C         -10.6114   -3.1347   17.7509 C.ar    1  UNL1        0.0591
     32 C         -11.7352   -3.5203   18.6665 C.ar    1  UNL1        0.1422
     33 F         -12.3238   -2.7645   18.8923 F       1  UNL1       -0.2043
@<TRIPOS>BOND
     1    20    21    1
     2    21    14    1
     3    14    15   ar
     4    15    16   ar
     5    16     1    1
     6     1     2   am
     7     2     3    2
     8     2     4   am
     9     4    24    1
    10    24    25    1
    11    25    26   ar
    12    26    27    1
    13    26    28   ar
    14    28    29   ar
    15    29    30    1
    16    29    31   ar
    17    31    32   ar
    18    32    33    1
    19     4     5    1
    20     5     6   ar
    21     6     7   ar
    22     7     8   ar
    23     8     9   ar
    24     9    10   ar
    25    10    11    1
    26    11    12    2
    27    11    13    2
    28    16    17   ar
    29    17    18   ar
    30    18    19   ar
    31    19    22    1
    32    22    23    1
    33    19    14   ar
    34    11     1    1
    35    32    25   ar
    36    10     5   ar
@<TRIPOS>MOLECULE
*****
 33 36 0 0 0
SMALL
GASTEIGER

@<TRIPOS>ATOM
      1 N          -6.4912  -18.5175   21.1859 N.am    1  UNL1       -0.1198
      2 C          -6.9176  -17.4561   22.1562 C.2     1  UNL1        0.3351
      3 O          -6.1583  -16.9972   22.5822 O.2     1  UNL1       -0.2500
      4 N          -8.3761  -17.1932   22.3872 N.am    1  UNL1       -0.2210
      5 C          -9.4085  -17.9918   21.6479 C.ar    1  UNL1        0.1579
      6 N         -10.8670  -17.7289   21.8788 N.ar    1  UNL1       -0.2273
      7 C         -11.8993  -18.5275   21.1395 C.ar    1  UNL1        0.1004
      8 C         -11.4730  -19.5890   20.1692 C.ar    1  UNL1        0.0222
      9 C         -10.0144  -19.8519   19.9382 C.ar    1  UNL1        0.0247
     10 C          -8.9821  -19.0533   20.6776 C.ar    1  UNL1        0.1577
     11 S          -7.5235  -19.3162   20.4466 S.O2    1  UNL1        0.0862
     12 O          -6.2725  -19.9305   19.8920 O.2     1  UNL1       -0.1492
     13 O          -8.1213  -20.3281   19.5146 O.2     1  UNL1       -0.1492
     14 C          -2.9013  -18.5096   19.4941 C.ar    1  UNL1        0.1929
     15 C          -4.3599  -18.2467   19.7251 C.ar    1  UNL1        0.0600
     16 C          -5.0326  -18.7804   20.9550 C.ar    1  UNL1        0.1004
     17 C          -4.2467  -19.5769   21.9539 C.ar    1  UNL1        0.1189
     18 N          -2.7881  -19.8397   21.7229 N.ar    1  UNL1       -0.2062
     19 C          -2.1154  -19.3061   20.4930 C.ar    1  UNL1        0.2602
     20 C          -2.7868  -16.7707   17.5671 C.3     1  UNL1        0.2527
     21 O          -2.2286  -17.9759   18.2642 O.3     1  UNL1       -0.4667
     22 O          -0.6567  -19.5689   20.2621 O.3     1  UNL1       -0.4541
     23 C           0.2995  -18.4215   20.1243 C.3     1  UNL1        0.2543
     24 C          -8.8025  -16.1317   23.3575 C.3     1  UNL1        0.1323
     25 C          -8.2237  -16.1041   24.7410 C.ar    1  UNL1        0.0532
     26 C          -8.8168  -16.9616   25.8194 C.ar    1  UNL1        0.1422
     27 F          -9.9887  -17.8467   25.5142 F       1  UNL1       -0.2043
     28 C          -8.2380  -16.9339   27.2030 C.ar    1  UNL1        0.0591
     29 C          -7.0661  -16.0488   27.5082 C.ar    1  UNL1        0.1446
     30 F          -6.4873  -16.0212   28.8917 F       1  UNL1       -0.2040
     31 C          -6.4730  -15.1913   26.4298 C.ar    1  UNL1        0.0591
     32 C          -7.0517  -15.2189   25.0463 C.ar    1  UNL1        0.1422
     33 F          -6.5847  -14.6184   24.4220 F       1  UNL1       -0.2043
@<TRIPOS>BOND
     1    20    21    1
     2    21    14    1
     3    14    15   ar
     4    15    16   ar
     5    16     1    1
     6     1     2   am
     7     2     3    2
     8     2     4   am
     9     4    24    1
    10    24    25    1
    11    25    26   ar
    12    26    27    1
    13    26    28   ar
    14    28    29   ar
    15    29    30    1
    16    29    31   ar
    17    31    32   ar
    18    32    33    1
    19     4     5    1
    20     5     6   ar
    21     6     7   ar
    22     7     8   ar
    23     8     9   ar
    24     9    10   ar
    25    10    11    1
    26    11    12    2
    27    11    13    2
    28    16    17   ar
    29    17    18   ar
    30    18    19   ar
    31    19    22    1
    32    22    23    1
    33    19    14   ar
    34    11     1    1
    35    32    25   ar
    36    10     5   ar
@<TRIPOS>MOLECULE
*****
 33 36 0 0 0
SMALL
GASTEIGER

@<TRIPOS>ATOM
      1 N           1.4602    2.4681   18.5345 N.am    1  UNL1       -0.1198
      2 C           1.7340    1.0141   18.2880 C.2     1  UNL1        0.3351
      3 O           0.9165    0.4666   18.2695 O.2     1  UNL1       -0.2500
      4 N           3.1440    0.5376   18.1008 N.am    1  UNL1       -0.2210
      5 C           4.2801    1.5153   18.1600 C.ar    1  UNL1        0.1579
      6 N           5.6900    1.0388   17.9727 N.ar    1  UNL1       -0.2273
      7 C           6.8261    2.0164   18.0319 C.ar    1  UNL1        0.1004
      8 C           6.5523    3.4705   18.2783 C.ar    1  UNL1        0.0222
      9 C           5.1424    3.9469   18.4656 C.ar    1  UNL1        0.0247
     10 C           4.0063    2.9693   18.4064 C.ar    1  UNL1        0.1577
     11 S           2.5963    3.4457   18.5936 S.O2    1  UNL1        0.0862
     12 O           1.4416    4.3737   18.8299 O.2     1  UNL1       -0.1492
     13 O           3.3314    4.7457   18.7349 O.2     1  UNL1       -0.1492
     14 C          -2.0308    3.2722   20.2422 C.ar    1  UNL1        0.1929
     15 C          -0.6209    2.7958   20.0549 C.ar    1  UNL1        0.0600
     16 C           0.0502    2.9446   18.7217 C.ar    1  UNL1        0.1004
     17 C          -0.6886    3.5697   17.5757 C.ar    1  UNL1        0.1189
     18 N          -2.0985    4.0461   17.7630 N.ar    1  UNL1       -0.2062
     19 C          -2.7696    3.8973   19.0963 C.ar    1  UNL1        0.2602
     20 C          -2.6839    4.2592   22.5550 C.3     1  UNL1        0.2527
     21 O          -2.7019    3.1235   21.5754 O.3     1  UNL1       -0.4667
     22 O          -4.1796    4.3738   19.2835 O.3     1  UNL1       -0.4541
     23 C          -5.3274    3.5000   18.8723 C.3     1  UNL1        0.2543
     24 C           3.4178   -0.9164   17.8544 C.3     1  UNL1        0.1323
     25 C           4.0978   -1.7405   18.9072 C.ar    1  UNL1        0.0532
     26 C           3.4572   -1.9160   20.2521 C.ar    1  UNL1        0.1422
     27 F           2.1366   -1.2675   20.5442 F       1  UNL1       -0.2043
     28 C           4.1372   -2.7401   21.3050 C.ar    1  UNL1        0.0591
     29 C           5.4578   -3.3887   21.0129 C.ar    1  UNL1        0.1446
     30 F           6.1378   -4.2127   22.0657 F       1  UNL1       -0.2040
     31 C           6.0984   -3.2132   19.6680 C.ar    1  UNL1        0.0591
     32 C           5.4184   -2.3891   18.6152 C.ar    1  UNL1        0.1422
     33 F           5.9279   -2.3428   17.7745 F       1  UNL1       -0.2043
@<TRIPOS>BOND
     1    20    21    1
     2    21    14    1
     3    14    15   ar
     4    15    16   ar
     5    16     1    1
     6     1     2   am
     7     2     3    2
     8     2     4   am
     9     4    24    1
    10    24    25    1
    11    25    26   ar
    12    26    27    1
    13    26    28   ar
    14    28    29   ar
    15    29    30    1
    16    29    31   ar
    17    31    32   ar
    18    32    33    1
    19     4     5    1
    20     5     6   ar
    21     6     7   ar
    22     7     8   ar
    23     8     9   ar
    24     9    10   ar
    25    10    11    1
    26    11    12    2
    27    11    13    2
    28    16    17   ar
    29    17    18   ar
    30    18    19   ar
    31    19    22    1
    32    22    23    1
    33    19    14   ar
    34    11     1    1
    35    32    25   ar
    36    10     5   ar
@<TRIPOS>MOLECULE
*****
 33 36 0 0 0
SMALL
GASTEIGER

@<TRIPOS>ATOM
      1 N           1.3353    2.5954   18.8480 N.am    1  UNL1       -0.1198
      2 C           1.7151    1.2110   18.4131 C.2     1  UNL1        0.3351
      3 O           0.9539    0.5872   18.4079 O.2     1  UNL1       -0.2500
      4 N           3.1360    0.9043   18.0434 N.am    1  UNL1       -0.2210
      5 C           4.1773    1.9821   18.1085 C.ar    1  UNL1        0.1579
      6 N           5.5983    1.6755   17.7387 N.ar    1  UNL1       -0.2273
      7 C           6.6395    2.7533   17.8039 C.ar    1  UNL1        0.1004
      8 C           6.2597    4.1377   18.2388 C.ar    1  UNL1        0.0222
      9 C           4.8387    4.4443   18.6085 C.ar    1  UNL1        0.0247
     10 C           3.7975    3.3666   18.5434 C.ar    1  UNL1        0.1577
     11 S           2.3765    3.6732   18.9132 S.O2    1  UNL1        0.0862
     12 O           1.1717    4.4475   19.3594 O.2     1  UNL1       -0.1492
     13 O           2.9993    5.0199   19.1333 O.2     1  UNL1       -0.1492
     14 C          -2.4091    3.8871   18.5998 C.ar    1  UNL1        0.1929
     15 C          -0.9881    3.5804   18.2301 C.ar    1  UNL1        0.0600
     16 C          -0.0858    2.9020   19.2178 C.ar    1  UNL1        0.1004
     17 C          -0.6045    2.5302   20.5752 C.ar    1  UNL1        0.1189
     18 N          -2.0255    2.8368   20.9449 N.ar    1  UNL1       -0.2062
     19 C          -2.9277    3.5152   19.9572 C.ar    1  UNL1        0.2602
     20 C          -4.1324    3.7466   16.6606 C.3     1  UNL1        0.2527
     21 O          -3.3113    4.5655   17.6121 O.3     1  UNL1       -0.4667
     22 O          -4.3488    3.8219   20.3270 O.3     1  UNL1       -0.4541
     23 C          -4.9374    3.2492   21.5822 C.3     1  UNL1        0.2543
     24 C           3.5158   -0.4801   17.6085 C.3     1  UNL1        0.1323
     25 C           4.1537   -1.4242   18.5840 C.ar    1  UNL1        0.0532
     26 C           5.5886   -1.8255   18.4106 C.ar    1  UNL1        0.1422
     27 F           6.3856   -1.2828   17.2616 F       1  UNL1       -0.2043
     28 C           6.2265   -2.7696   19.3863 C.ar    1  UNL1        0.0591
     29 C           5.4295   -3.3124   20.5352 C.ar    1  UNL1        0.1446
     30 F           6.0674   -4.2565   21.5108 F       1  UNL1       -0.2040
     31 C           3.9946   -2.9111   20.7087 C.ar    1  UNL1        0.0591
     32 C           3.3567   -1.9670   19.7331 C.ar    1  UNL1        0.1422
     33 F           2.4150   -1.7743   19.9441 F       1  UNL1       -0.2043
@<TRIPOS>BOND
     1    20    21    1
     2    21    14    1
     3    14    15   ar
     4    15    16   ar
     5    16     1    1
     6     1     2   am
     7     2     3    2
     8     2     4   am
     9     4    24    1
    10    24    25    1
    11    25    26   ar
    12    26    27    1
    13    26    28   ar
    14    28    29   ar
    15    29    30    1
    16    29    31   ar
    17    31    32   ar
    18    32    33    1
    19     4     5    1
    20     5     6   ar
    21     6     7   ar
    22     7     8   ar
    23     8     9   ar
    24     9    10   ar
    25    10    11    1
    26    11    12    2
    27    11    13    2
    28    16    17   ar
    29    17    18   ar
    30    18    19   ar
    31    19    22    1
    32    22    23    1
    33    19    14   ar
    34    11     1    1
    35    32    25   ar
    36    10     5   ar
@<TRIPOS>MOLECULE
*****
 33 36 0 0 0
SMALL
GASTEIGER

@<TRIPOS>ATOM
      1 N           0.3285    2.4007   20.1680 N.am    1  UNL1       -0.1198
      2 C           0.5350    0.9154   20.1341 C.2     1  UNL1        0.3351
      3 O          -0.2177    0.4135   20.5213 O.2     1  UNL1       -0.2500
      4 N           1.7937    0.3463   19.5493 N.am    1  UNL1       -0.2210
      5 C           2.8458    1.2626   18.9984 C.ar    1  UNL1        0.1579
      6 N           4.1045    0.6936   18.4136 N.ar    1  UNL1       -0.2273
      7 C           5.1565    1.6099   17.8628 C.ar    1  UNL1        0.1004
      8 C           4.9500    3.0952   17.8967 C.ar    1  UNL1        0.0222
      9 C           3.6914    3.6643   18.4815 C.ar    1  UNL1        0.0247
     10 C           2.6393    2.7480   19.0323 C.ar    1  UNL1        0.1577
     11 S           1.3806    3.3170   19.6172 S.O2    1  UNL1        0.0862
     12 O           0.3648    4.3260   20.0646 O.2     1  UNL1       -0.1492
     13 O           2.0800    4.5837   19.2217 O.2     1  UNL1       -0.1492
     14 C          -3.3568    3.8465   20.4481 C.ar    1  UNL1        0.1929
     15 C          -2.0981    3.2775   19.8633 C.ar    1  UNL1        0.0600
     16 C          -0.9302    2.9697   20.7528 C.ar    1  UNL1        0.1004
     17 C          -1.0209    3.2309   22.2271 C.ar    1  UNL1        0.1189
     18 N          -2.2796    3.7999   22.8118 N.ar    1  UNL1       -0.2062
     19 C          -3.4475    4.1077   21.9223 C.ar    1  UNL1        0.2602
     20 C          -4.5054    3.7274   18.1208 C.3     1  UNL1        0.2527
     21 O          -4.5247    4.1543   19.5586 O.3     1  UNL1       -0.4667
     22 O          -4.7062    4.6767   22.5072 O.3     1  UNL1       -0.4541
     23 C          -5.7524    3.7610   23.0701 C.3     1  UNL1        0.2543
     24 C           2.0002   -1.1390   19.5153 C.3     1  UNL1        0.1323
     25 C           2.9154   -1.7918   20.5084 C.ar    1  UNL1        0.0532
     26 C           3.7260   -2.9886   20.1074 C.ar    1  UNL1        0.1422
     27 F           3.6214   -3.5325   18.7135 F       1  UNL1       -0.2043
     28 C           4.6412   -3.6414   21.1005 C.ar    1  UNL1        0.0591
     29 C           4.7458   -3.0975   22.4945 C.ar    1  UNL1        0.1446
     30 F           5.6610   -3.7504   23.4875 F       1  UNL1       -0.2040
     31 C           3.9352   -1.9008   22.8954 C.ar    1  UNL1        0.0591
     32 C           3.0200   -1.2479   21.9024 C.ar    1  UNL1        0.1422
     33 F           2.5392   -0.4737   22.2737 F       1  UNL1       -0.2043
@<TRIPOS>BOND
     1    20    21    1
     2    21    14    1
     3    14    15   ar
     4    15    16   ar
     5    16     1    1
     6     1     2   am
     7     2     3    2
     8     2     4   am
     9     4    24    1
    10    24    25    1
    11    25    26   ar
    12    26    27    1
    13    26    28   ar
    14    28    29   ar
    15    29    30    1
    16    29    31   ar
    17    31    32   ar
    18    32    33    1
    19     4     5    1
    20     5     6   ar
    21     6     7   ar
    22     7     8   ar
    23     8     9   ar
    24     9    10   ar
    25    10    11    1
    26    11    12    2
    27    11    13    2
    28    16    17   ar
    29    17    18   ar
    30    18    19   ar
    31    19    22    1
    32    22    23    1
    33    19    14   ar
    34    11     1    1
    35    32    25   ar
    36    10     5   ar
@<TRIPOS>MOLECULE
*****
 33 36 0 0 0
SMALL
GASTEIGER

@<TRIPOS>ATOM
      1 N         -16.6938   -3.4180   18.8616 N.am    1  UNL1       -0.1198
      2 C         -15.3383   -3.6377   19.4652 C.2     1  UNL1        0.3351
      3 O         -14.9217   -2.8065   19.7878 O.2     1  UNL1       -0.2500
      4 N         -14.7596   -5.0202   19.5262 N.am    1  UNL1       -0.2210
      5 C         -15.5364   -6.1831   18.9836 C.ar    1  UNL1        0.1579
      6 N         -14.9577   -7.5656   19.0446 N.ar    1  UNL1       -0.2273
      7 C         -15.7346   -8.7283   18.5021 C.ar    1  UNL1        0.1004
      8 C         -17.0901   -8.5086   17.8985 C.ar    1  UNL1        0.0222
      9 C         -17.6688   -7.1261   17.8374 C.ar    1  UNL1        0.0247
     10 C         -16.8919   -5.9633   18.3800 C.ar    1  UNL1        0.1577
     11 S         -17.4706   -4.5807   18.3190 S.O2    1  UNL1        0.0862
     12 O         -18.4355   -3.4678   18.0353 O.2     1  UNL1       -0.1492
     13 O         -18.5826   -5.3571   17.6779 O.2     1  UNL1       -0.1492
     14 C         -18.4713   -0.0448   19.9625 C.ar    1  UNL1        0.1929
     15 C         -17.8927   -1.4273   20.0235 C.ar    1  UNL1        0.0600
     16 C         -17.2725   -2.0354   18.8005 C.ar    1  UNL1        0.1004
     17 C         -17.2309   -1.2609   17.5166 C.ar    1  UNL1        0.1189
     18 N         -17.8096    0.1216   17.4557 N.ar    1  UNL1       -0.2062
     19 C         -18.4298    0.7297   18.6786 C.ar    1  UNL1        0.2602
     20 C         -18.3867    1.6697   21.9127 C.3     1  UNL1        0.2527
     21 O         -19.0915    0.5633   21.1855 O.3     1  UNL1       -0.4667
     22 O         -19.0085    2.1123   18.6176 O.3     1  UNL1       -0.4541
     23 C         -18.1022    3.2990   18.4749 C.3     1  UNL1        0.2543
     24 C         -13.4041   -5.2399   20.1298 C.3     1  UNL1        0.1323
     25 C         -12.1755   -5.1219   19.2775 C.ar    1  UNL1        0.0532
     26 C         -11.5594   -3.7765   19.0320 C.ar    1  UNL1        0.1422
     27 F         -12.1718   -2.5491   19.6388 F       1  UNL1       -0.2043
     28 C         -10.3307   -3.6585   18.1796 C.ar    1  UNL1        0.0591
     29 C          -9.7182   -4.8859   17.5727 C.ar    1  UNL1        0.1446
     30 F          -8.4896   -4.7679   16.7204 F       1  UNL1       -0.2040
     31 C         -10.3343   -6.2313   17.8182 C.ar    1  UNL1        0.0591
     32 C         -11.5629   -6.3493   18.6706 C.ar    1  UNL1        0.1422
     33 F         -11.8792   -7.2766   18.7631 F       1  UNL1       -0.2043
@<TRIPOS>BOND
     1    20    21    1
     2    21    14    1
     3    14    15   ar
     4    15    16   ar
     5    16     1    1
     6     1     2   am
     7     2     3    2
     8     2     4   am
     9     4    24    1
    10    24    25    1
    11    25    26   ar
    12    26    27    1
    13    26    28   ar
    14    28    29   ar
    15    29    30    1
    16    29    31   ar
    17    31    32   ar
    18    32    33    1
    19     4     5    1
    20     5     6   ar
    21     6     7   ar
    22     7     8   ar
    23     8     9   ar
    24     9    10   ar
    25    10    11    1
    26    11    12    2
    27    11    13    2
    28    16    17   ar
    29    17    18   ar
    30    18    19   ar
    31    19    22    1
    32    22    23    1
    33    19    14   ar
    34    11     1    1
    35    32    25   ar
    36    10     5   ar
@<TRIPOS>MOLECULE
*****
 33 36 0 0 0
SMALL
GASTEIGER

@<TRIPOS>ATOM
      1 N           6.3608   -3.0030   26.5968 N.am    1  UNL1       -0.1198
      2 C           6.5628   -2.5941   25.1679 C.2     1  UNL1        0.3351
      3 O           6.3139   -1.6574   24.9971 O.2     1  UNL1       -0.2500
      4 N           7.0948   -3.5824   24.1729 N.am    1  UNL1       -0.2210
      5 C           7.4250   -4.9799   24.6069 C.ar    1  UNL1        0.1579
      6 N           7.9571   -5.9682   23.6120 N.ar    1  UNL1       -0.2273
      7 C           8.2873   -7.3656   24.0461 C.ar    1  UNL1        0.1004
      8 C           8.0853   -7.7745   25.4750 C.ar    1  UNL1        0.0222
      9 C           7.5532   -6.7861   26.4700 C.ar    1  UNL1        0.0247
     10 C           7.2231   -5.3888   26.0359 C.ar    1  UNL1        0.1577
     11 S           6.6910   -4.4003   27.0309 S.O2    1  UNL1        0.0862
     12 O           6.2163   -3.8282   28.3337 O.2     1  UNL1       -0.1492
     13 O           6.8563   -5.5990   27.9174 O.2     1  UNL1       -0.1492
     14 C           3.8189   -0.7922   28.6947 C.ar    1  UNL1        0.1929
     15 C           4.3510   -1.7806   27.6998 C.ar    1  UNL1        0.0600
     16 C           5.8287   -2.0145   27.5918 C.ar    1  UNL1        0.1004
     17 C           6.7743   -1.2601   28.4787 C.ar    1  UNL1        0.1189
     18 N           6.2421   -0.2717   29.4736 N.ar    1  UNL1       -0.2062
     19 C           4.7644   -0.0377   29.5816 C.ar    1  UNL1        0.2602
     20 C           1.6996    0.5551   28.0288 C.3     1  UNL1        0.2527
     21 O           2.3412   -0.5582   28.8026 O.3     1  UNL1       -0.4667
     22 O           4.2323    0.9507   30.5765 O.3     1  UNL1       -0.4541
     23 C           3.6257    0.4693   31.8611 C.3     1  UNL1        0.2543
     24 C           7.2968   -3.1735   22.7439 C.3     1  UNL1        0.1323
     25 C           6.2558   -3.5026   21.7154 C.ar    1  UNL1        0.0532
     26 C           6.6288   -3.5641   20.2638 C.ar    1  UNL1        0.1422
     27 F           8.0428   -3.2965   19.8408 F       1  UNL1       -0.2043
     28 C           5.5877   -3.8932   19.2352 C.ar    1  UNL1        0.0591
     29 C           4.1737   -4.1609   19.6582 C.ar    1  UNL1        0.1446
     30 F           3.1328   -4.4900   18.6297 F       1  UNL1       -0.2040
     31 C           3.8007   -4.0994   21.1098 C.ar    1  UNL1        0.0591
     32 C           4.8417   -3.7703   22.1384 C.ar    1  UNL1        0.1422
     33 F           4.4855   -3.7578   23.0557 F       1  UNL1       -0.2043
@<TRIPOS>BOND
     1    20    21    1
     2    21    14    1
     3    14    15   ar
     4    15    16   ar
     5    16     1    1
     6     1     2   am
     7     2     3    2
     8     2     4   am
     9     4    24    1
    10    24    25    1
    11    25    26   ar
    12    26    27    1
    13    26    28   ar
    14    28    29   ar
    15    29    30    1
    16    29    31   ar
    17    31    32   ar
    18    32    33    1
    19     4     5    1
    20     5     6   ar
    21     6     7   ar
    22     7     8   ar
    23     8     9   ar
    24     9    10   ar
    25    10    11    1
    26    11    12    2
    27    11    13    2
    28    16    17   ar
    29    17    18   ar
    30    18    19   ar
    31    19    22    1
    32    22    23    1
    33    19    14   ar
    34    11     1    1
    35    32    25   ar
    36    10     5   ar
