@<TRIPOS>MOLECULE
*****
 12 13 0 0 0
SMALL
GASTEIGER

@<TRIPOS>ATOM
      1 C         -12.2362  -17.0747   21.4223 C.3     1  UNL1        0.1321
      2 N         -11.3230  -17.2384   22.6010 N.ar    1  UNL1       -0.3059
      3 C         -11.3703  -18.3518   23.6051 C.ar    1  UNL1        0.1786
      4 N         -10.2787  -18.1190   24.6071 N.ar    1  UNL1       -0.2238
      5 C          -9.5568  -16.8617   24.2224 C.ar    1  UNL1        0.1017
      6 C         -10.2022  -16.3174   22.9826 C.ar    1  UNL1        0.0965
      7 C          -8.3936  -16.2551   24.9499 C.ar    1  UNL1        0.0383
      8 C          -8.3618  -16.2599   26.4495 C.ar    1  UNL1        0.0047
      9 C          -7.1986  -15.6533   27.1769 C.ar    1  UNL1        0.0207
     10 C          -6.0673  -15.0420   26.4047 C.ar    1  UNL1        0.0989
     11 N          -6.0991  -15.0372   24.9051 N.ar    1  UNL1       -0.2423
     12 C          -7.2623  -15.6437   24.1777 C.ar    1  UNL1        0.1004
@<TRIPOS>BOND
     1     1     2    1
     2     2     3   ar
     3     3     4   ar
     4     4     5   ar
     5     5     7    1
     6     7     8   ar
     7     8     9   ar
     8     9    10   ar
     9    10    11   ar
    10    11    12   ar
    11     5     6   ar
    12     6     2   ar
    13    12     7   ar
@<TRIPOS>MOLECULE
*****
 12 13 0 0 0
SMALL
GASTEIGER

@<TRIPOS>ATOM
      1 C         -10.7401  -19.3046   23.0026 C.3     1  UNL1        0.1321
      2 N          -9.4236  -18.8178   22.4735 N.ar    1  UNL1       -0.3059
      3 C          -9.1453  -17.4495   21.9253 C.ar    1  UNL1        0.1786
      4 N          -7.7040  -17.3999   21.5127 N.ar    1  UNL1       -0.2238
      5 C          -7.0916  -18.7375   21.8059 C.ar    1  UNL1        0.1017
      6 C          -8.1544  -19.6137   22.3997 C.ar    1  UNL1        0.0965
      7 C          -5.6665  -19.1298   21.5502 C.ar    1  UNL1        0.0383
      8 C          -5.3295  -20.0153   20.3873 C.ar    1  UNL1        0.0047
      9 C          -3.9045  -20.4076   20.1317 C.ar    1  UNL1        0.0207
     10 C          -2.8165  -19.9144   21.0389 C.ar    1  UNL1        0.0989
     11 N          -3.1535  -19.0290   22.2018 N.ar    1  UNL1       -0.2423
     12 C          -4.5785  -18.6367   22.4574 C.ar    1  UNL1        0.1004
@<TRIPOS>BOND
     1     1     2    1
     2     2     3   ar
     3     3     4   ar
     4     4     5   ar
     5     5     7    1
     6     7     8   ar
     7     8     9   ar
     8     9    10   ar
     9    10    11   ar
    10    11    12   ar
    11     5     6   ar
    12     6     2   ar
    13    12     7   ar
@<TRIPOS>MOLECULE
*****
 12 13 0 0 0
SMALL
GASTEIGER

@<TRIPOS>ATOM
      1 C          -6.4706  -15.4668   26.4495 C.3     1  UNL1        0.1321
      2 N          -7.1476  -15.6715   25.1267 N.ar    1  UNL1       -0.3059
      3 C          -6.5402  -15.4235   23.7777 C.ar    1  UNL1        0.1786
      4 N          -7.5679  -15.7589   22.7379 N.ar    1  UNL1       -0.2238
      5 C          -8.8105  -16.2141   23.4442 C.ar    1  UNL1        0.1017
      6 C          -8.5507  -16.1601   24.9206 C.ar    1  UNL1        0.0965
      7 C         -10.0885  -16.6473   22.7892 C.ar    1  UNL1        0.0383
      8 C         -11.0349  -17.5546   23.5180 C.ar    1  UNL1        0.0047
      9 C         -12.3128  -17.9877   22.8629 C.ar    1  UNL1        0.0207
     10 C         -12.6445  -17.5136   21.4790 C.ar    1  UNL1        0.0989
     11 N         -11.6981  -16.6063   20.7502 N.ar    1  UNL1       -0.2423
     12 C         -10.4202  -16.1732   21.4052 C.ar    1  UNL1        0.1004
@<TRIPOS>BOND
     1     1     2    1
     2     2     3   ar
     3     3     4   ar
     4     4     5   ar
     5     5     7    1
     6     7     8   ar
     7     8     9   ar
     8     9    10   ar
     9    10    11   ar
    10    11    12   ar
    11     5     6   ar
    12     6     2   ar
    13    12     7   ar
@<TRIPOS>MOLECULE
*****
 12 13 0 0 0
SMALL
GASTEIGER

@<TRIPOS>ATOM
      1 C         -10.5260  -19.6215   22.8702 C.3     1  UNL1        0.1321
      2 N          -9.2223  -19.0516   22.3951 N.ar    1  UNL1       -0.3059
      3 C          -9.0090  -17.6680   21.8562 C.ar    1  UNL1        0.1786
      4 N          -7.5579  -17.5266   21.5036 N.ar    1  UNL1       -0.2238
      5 C          -6.8744  -18.8227   21.8246 C.ar    1  UNL1        0.1017
      6 C          -7.9030  -19.7651   22.3756 C.ar    1  UNL1        0.0965
      7 C          -5.4178  -19.1234   21.6290 C.ar    1  UNL1        0.0383
      8 C          -4.3937  -18.4829   22.5183 C.ar    1  UNL1        0.0047
      9 C          -2.9373  -18.7837   22.3226 C.ar    1  UNL1        0.0207
     10 C          -2.5050  -19.7249   21.2376 C.ar    1  UNL1        0.0989
     11 N          -3.5291  -20.3654   20.3483 N.ar    1  UNL1       -0.2423
     12 C          -4.9856  -20.0647   20.5440 C.ar    1  UNL1        0.1004
@<TRIPOS>BOND
     1     1     2    1
     2     2     3   ar
     3     3     4   ar
     4     4     5   ar
     5     5     7    1
     6     7     8   ar
     7     8     9   ar
     8     9    10   ar
     9    10    11   ar
    10    11    12   ar
    11     5     6   ar
    12     6     2   ar
    13    12     7   ar
@<TRIPOS>MOLECULE
*****
 12 13 0 0 0
SMALL
GASTEIGER

@<TRIPOS>ATOM
      1 C         -12.4909  -17.7297   22.2706 C.3     1  UNL1        0.1321
      2 N         -11.1277  -17.1138   22.3815 N.ar    1  UNL1       -0.3059
      3 C         -10.3373  -16.5132   21.2569 C.ar    1  UNL1        0.1786
      4 N          -9.0367  -16.0185   21.8170 N.ar    1  UNL1       -0.2238
      5 C          -9.0232  -16.3134   23.2877 C.ar    1  UNL1        0.1017
      6 C         -10.3155  -16.9903   23.6366 C.ar    1  UNL1        0.0965
      7 C          -7.9124  -15.9884   24.2419 C.ar    1  UNL1        0.0383
      8 C          -6.5104  -15.8266   23.7338 C.ar    1  UNL1        0.0047
      9 C          -5.3997  -15.5016   24.6880 C.ar    1  UNL1        0.0207
     10 C          -5.6909  -15.3384   26.1503 C.ar    1  UNL1        0.0989
     11 N          -7.0929  -15.5001   26.6585 N.ar    1  UNL1       -0.2423
     12 C          -8.2037  -15.8251   25.7043 C.ar    1  UNL1        0.1004
@<TRIPOS>BOND
     1     1     2    1
     2     2     3   ar
     3     3     4   ar
     4     4     5   ar
     5     5     7    1
     6     7     8   ar
     7     8     9   ar
     8     9    10   ar
     9    10    11   ar
    10    11    12   ar
    11     5     6   ar
    12     6     2   ar
    13    12     7   ar
@<TRIPOS>MOLECULE
*****
 12 13 0 0 0
SMALL
GASTEIGER

@<TRIPOS>ATOM
      1 C         -12.9573  -17.5607   23.0282 C.3     1  UNL1        0.1321
      2 N         -11.6032  -17.0778   22.6001 N.ar    1  UNL1       -0.3059
      3 C         -11.2921  -16.3315   21.3366 C.ar    1  UNL1        0.1786
      4 N          -9.8191  -16.0490   21.3160 N.ar    1  UNL1       -0.2238
      5 C          -9.2199  -16.6206   22.5667 C.ar    1  UNL1        0.1017
      6 C         -10.3225  -17.2564   23.3603 C.ar    1  UNL1        0.0965
      7 C          -7.7721  -16.5659   22.9556 C.ar    1  UNL1        0.0383
      8 C          -7.2628  -15.4303   23.7929 C.ar    1  UNL1        0.0047
      9 C          -5.8151  -15.3757   24.1816 C.ar    1  UNL1        0.0207
     10 C          -4.8768  -16.4566   23.7331 C.ar    1  UNL1        0.0989
     11 N          -5.3861  -17.5921   22.8958 N.ar    1  UNL1       -0.2423
     12 C          -6.8338  -17.6468   22.5070 C.ar    1  UNL1        0.1004
@<TRIPOS>BOND
     1     1     2    1
     2     2     3   ar
     3     3     4   ar
     4     4     5   ar
     5     5     7    1
     6     7     8   ar
     7     8     9   ar
     8     9    10   ar
     9    10    11   ar
    10    11    12   ar
    11     5     6   ar
    12     6     2   ar
    13    12     7   ar
@<TRIPOS>MOLECULE
*****
 12 13 0 0 0
SMALL
GASTEIGER

@<TRIPOS>ATOM
      1 C          -4.7340  -19.1221   22.1242 C.3     1  UNL1        0.1321
      2 N          -6.1305  -18.9176   21.6163 N.ar    1  UNL1       -0.3059
      3 C          -6.6212  -19.2338   20.2345 C.ar    1  UNL1        0.1786
      4 N          -8.0754  -18.8726   20.1652 N.ar    1  UNL1       -0.2238
      5 C          -8.4834  -18.3331   21.5040 C.ar    1  UNL1        0.1017
      6 C          -7.2814  -18.3609   22.4009 C.ar    1  UNL1        0.0965
      7 C          -9.8531  -17.8506   21.8801 C.ar    1  UNL1        0.0383
      8 C         -10.8051  -18.7707   22.5850 C.ar    1  UNL1        0.0047
      9 C         -12.1747  -18.2881   22.9609 C.ar    1  UNL1        0.0207
     10 C         -12.5922  -16.8855   22.6320 C.ar    1  UNL1        0.0989
     11 N         -11.6402  -15.9654   21.9270 N.ar    1  UNL1       -0.2423
     12 C         -10.2706  -16.4479   21.5511 C.ar    1  UNL1        0.1004
@<TRIPOS>BOND
     1     1     2    1
     2     2     3   ar
     3     3     4   ar
     4     4     5   ar
     5     5     7    1
     6     7     8   ar
     7     8     9   ar
     8     9    10   ar
     9    10    11   ar
    10    11    12   ar
    11     5     6   ar
    12     6     2   ar
    13    12     7   ar
@<TRIPOS>MOLECULE
*****
 12 13 0 0 0
SMALL
GASTEIGER

@<TRIPOS>ATOM
      1 C         -13.8139  -18.1087   24.0269 C.3     1  UNL1        0.1321
      2 N         -12.6050  -18.0506   23.1408 N.ar    1  UNL1       -0.3059
      3 C         -12.6006  -17.7302   21.6753 C.ar    1  UNL1        0.1786
      4 N         -11.1812  -17.7844   21.1934 N.ar    1  UNL1       -0.2238
      5 C         -10.3084  -18.1383   22.3608 C.ar    1  UNL1        0.1017
      6 C         -11.1883  -18.3028   23.5644 C.ar    1  UNL1        0.0965
      7 C          -8.8173  -18.2993   22.3301 C.ar    1  UNL1        0.0383
      8 C          -8.2135  -19.6300   21.9916 C.ar    1  UNL1        0.0047
      9 C          -6.7225  -19.7910   21.9608 C.ar    1  UNL1        0.0207
     10 C          -5.8353  -18.6213   22.2687 C.ar    1  UNL1        0.0989
     11 N          -6.4391  -17.2907   22.6072 N.ar    1  UNL1       -0.2423
     12 C          -7.9301  -17.1297   22.6379 C.ar    1  UNL1        0.1004
@<TRIPOS>BOND
     1     1     2    1
     2     2     3   ar
     3     3     4   ar
     4     4     5   ar
     5     5     7    1
     6     7     8   ar
     7     8     9   ar
     8     9    10   ar
     9    10    11   ar
    10    11    12   ar
    11     5     6   ar
    12     6     2   ar
    13    12     7   ar
@<TRIPOS>MOLECULE
*****
 12 13 0 0 0
SMALL
GASTEIGER

@<TRIPOS>ATOM
      1 C          -2.5287  -19.6210   21.5384 C.3     1  UNL1        0.1321
      2 N          -4.0163  -19.6963   21.3608 N.ar    1  UNL1       -0.3059
      3 C          -4.7376  -20.4204   20.2629 C.ar    1  UNL1        0.1786
      4 N          -6.2108  -20.2323   20.4735 N.ar    1  UNL1       -0.2238
      5 C          -6.3999  -19.3919   21.7015 C.ar    1  UNL1        0.1017
      6 C          -5.0436  -19.0606   22.2499 C.ar    1  UNL1        0.0965
      7 C          -7.7146  -18.9588   22.2796 C.ar    1  UNL1        0.0383
      8 C          -8.6028  -19.9604   22.9561 C.ar    1  UNL1        0.0047
      9 C          -9.9174  -19.5273   23.5342 C.ar    1  UNL1        0.0207
     10 C         -10.3438  -18.0926   23.4358 C.ar    1  UNL1        0.0989
     11 N          -9.4555  -17.0909   22.7593 N.ar    1  UNL1       -0.2423
     12 C          -8.1409  -17.5240   22.1812 C.ar    1  UNL1        0.1004
@<TRIPOS>BOND
     1     1     2    1
     2     2     3   ar
     3     3     4   ar
     4     4     5   ar
     5     5     7    1
     6     7     8   ar
     7     8     9   ar
     8     9    10   ar
     9    10    11   ar
    10    11    12   ar
    11     5     6   ar
    12     6     2   ar
    13    12     7   ar
