@<TRIPOS>MOLECULE
*****
 52 56 0 0 0
SMALL
GASTEIGER

@<TRIPOS>ATOM
      1 C           0.8826    3.2116   27.4899 C.3     1  UNL1        0.2170
      2 C           1.3657    4.5901   27.8311 C.3     1  UNL1        0.0525
      3 C           1.9877    4.8568   29.1699 C.3     1  UNL1        0.0257
      4 C           2.1265    3.7451   30.1672 C.3     1  UNL1        0.0939
      5 N           1.6433    2.3665   29.8259 N.am    1  UNL1       -0.2737
      6 C           1.7821    1.2548   30.8232 C.2     1  UNL1        0.2506
      7 O           1.2990   -0.1236   30.4819 O.2     1  UNL1       -0.2699
      8 C           1.0214    2.0999   28.4872 C.3     1  UNL1        0.1230
      9 N          -3.7794    4.5509   25.0978 N.pl3   1  UNL1       -0.3017
     10 C          -3.4307    3.8311   26.3667 C.3     1  UNL1        0.1124
     11 C          -1.9930    3.6246   26.7411 C.3     1  UNL1        0.1149
     12 N          -0.9038    4.1380   25.8465 N.am    1  UNL1       -0.2732
     13 C           0.5339    3.9315   26.2209 C.2     1  UNL1        0.2636
     14 O           1.6230    4.4449   25.3263 O.2     1  UNL1       -0.2711
     15 C          -1.2525    4.8578   24.5776 C.3     1  UNL1        0.1149
     16 C          -2.6903    5.0643   24.2032 C.3     1  UNL1        0.1124
     17 C          -5.8090    3.9986   23.5728 C.ar    1  UNL1        0.1518
     18 C          -7.2468    4.2051   23.1984 C.ar    1  UNL1        0.0382
     19 C          -8.0928    5.1704   23.9748 C.ar    1  UNL1        0.0032
     20 C          -7.5009    5.9291   25.1254 C.ar    1  UNL1        0.0015
     21 C          -6.0632    5.7226   25.4997 C.ar    1  UNL1        0.0176
     22 C          -5.2172    4.7574   24.7234 C.ar    1  UNL1        0.0824
     23 O          -4.9631    3.0334   22.7964 O.3     1  UNL1       -0.4715
     24 C          -4.9470    3.0875   21.2975 C.3     1  UNL1        0.2374
     25 C          -3.7162    3.5521   20.5769 C.3     1  UNL1        0.1894
     26 C          -1.2626    3.0850   21.2920 C.3     1  UNL1        0.1743
     27 O          -2.4955    2.6812   20.5392 O.3     1  UNL1       -0.3471
     28 C           2.4041    1.5215   32.1619 C.ar    1  UNL1        0.0766
     29 C           1.5961    2.1654   33.2494 C.ar    1  UNL1        0.1033
     30 N           2.2181    2.4321   34.5881 N.ar    1  UNL1       -0.2422
     31 C           3.6479    2.0549   34.8393 C.ar    1  UNL1        0.0988
     32 C           4.4559    1.4110   33.7518 C.ar    1  UNL1        0.0247
     33 C           3.8340    1.1443   32.4132 C.ar    1  UNL1        0.0788
     34 C           4.6419    0.5004   31.3257 C.3     1  UNL1        0.4188
     35 F           5.4499   -0.1436   30.2382 F       1  UNL1       -0.1659
     36 F           4.2812   -0.8541   31.8597 F       1  UNL1       -0.1659
     37 F           5.0027    1.8549   30.7916 F       1  UNL1       -0.1659
     38 O           0.2784    2.0832   26.7078 O.3     1  UNL1       -0.4723
     39 C           1.0181    1.4987   25.5411 C.ar    1  UNL1        0.1390
     40 C           2.4573    1.1023   25.6880 C.ar    1  UNL1        0.0369
     41 C           3.1971    0.5178   24.5213 C.ar    1  UNL1        0.0070
     42 C           2.4976    0.3298   23.2077 C.ar    1  UNL1        0.0716
     43 C           1.0585    0.7262   23.0609 C.ar    1  UNL1        0.0070
     44 C           0.3187    1.3107   24.2276 C.ar    1  UNL1        0.0369
     45 C           3.2374   -0.2547   22.0411 C.3     1  UNL1        0.4186
     46 F           3.9772   -0.8392   20.8744 F       1  UNL1       -0.1659
     47 F           4.4964   -0.2876   22.8558 F       1  UNL1       -0.1659
     48 F           1.9784   -0.2219   21.2263 F       1  UNL1       -0.1659
     49 C           0.5382    0.7214   28.1459 C.3     1  UNL1        0.0556
     50 C          -0.9067    0.3652   28.3338 C.3     1  UNL1        0.1390
     51 O          -0.9194   -0.8923   29.1515 O.3     1  UNL1       -0.3819
     52 H          -0.4247   -1.5852   28.6867 H       1  UNL1        0.2104
@<TRIPOS>BOND
     1    26    27    1
     2    27    25    1
     3    25    24    1
     4    24    23    1
     5    23    17    1
     6    17    18   ar
     7    18    19   ar
     8    19    20   ar
     9    20    21   ar
    10    21    22   ar
    11    22     9    1
    12     9    10    1
    13    10    11    1
    14    11    12    1
    15    12    13   am
    16    13    14    2
    17    13     1    1
    18     1    38    1
    19    38    39    1
    20    39    40   ar
    21    40    41   ar
    22    41    42   ar
    23    42    45    1
    24    45    46    1
    25    45    47    1
    26    45    48    1
    27    42    43   ar
    28    43    44   ar
    29     1     2    1
    30     2     3    1
    31     3     4    1
    32     4     5    1
    33     5     6   am
    34     6     7    2
    35     6    28    1
    36    28    29   ar
    37    29    30   ar
    38    30    31   ar
    39    31    32   ar
    40    32    33   ar
    41    33    34    1
    42    34    35    1
    43    34    36    1
    44    34    37    1
    45     5     8    1
    46     8    49    1
    47    49    50    1
    48    50    51    1
    49    12    15    1
    50    15    16    1
    51    22    17   ar
    52    16     9    1
    53     8     1    1
    54    44    39   ar
    55    33    28   ar
    56    51    52    1
@<TRIPOS>MOLECULE
*****
 52 56 0 0 0
SMALL
GASTEIGER

@<TRIPOS>ATOM
      1 C           1.7344    2.9928   27.4678 C.3     1  UNL1        0.2170
      2 C           2.9832    3.8158   27.5830 C.3     1  UNL1        0.0525
      3 C           3.5269    4.1682   28.9359 C.3     1  UNL1        0.0257
      4 C           2.8219    3.6977   30.1734 C.3     1  UNL1        0.0939
      5 N           1.5731    2.8747   30.0581 N.am    1  UNL1       -0.2737
      6 C           0.8681    2.4041   31.2956 C.2     1  UNL1        0.2506
      7 O          -0.3807    1.5812   31.1804 O.2     1  UNL1       -0.2699
      8 C           1.0294    2.5223   28.7053 C.3     1  UNL1        0.1230
      9 N           3.3026   -0.2778   23.4561 N.pl3   1  UNL1       -0.3017
     10 C           2.9940   -0.4879   24.9089 C.3     1  UNL1        0.1124
     11 C           2.5742    0.6723   25.7619 C.3     1  UNL1        0.1149
     12 N           2.4628    2.0427   25.1620 N.am    1  UNL1       -0.2732
     13 C           2.0429    3.2029   26.0150 C.2     1  UNL1        0.2636
     14 O           1.9316    4.5732   25.4151 O.2     1  UNL1       -0.2711
     15 C           2.7714    2.2528   23.7092 C.3     1  UNL1        0.1149
     16 C           3.1912    1.0925   22.8562 C.3     1  UNL1        0.1124
     17 C           3.3566   -1.4710   21.1488 C.ar    1  UNL1        0.1518
     18 C           3.7765   -2.6312   20.2959 C.ar    1  UNL1        0.0382
     19 C           4.5622   -3.7586   20.8973 C.ar    1  UNL1        0.0032
     20 C           4.9281   -3.7257   22.3516 C.ar    1  UNL1        0.0015
     21 C           4.5082   -2.5654   23.2045 C.ar    1  UNL1        0.0176
     22 C           3.7225   -1.4381   22.6031 C.ar    1  UNL1        0.0824
     23 O           2.5709   -0.3436   20.5474 O.3     1  UNL1       -0.4715
     24 C           1.0984   -0.4997   20.3080 C.3     1  UNL1        0.2374
     25 C           0.2278    0.7142   20.1719 C.3     1  UNL1        0.1894
     26 C          -0.7088    2.8651   21.2884 C.3     1  UNL1        0.1743
     27 O          -0.2358    1.4458   21.3967 O.3     1  UNL1       -0.3471
     28 C           1.4118    2.7565   32.6485 C.ar    1  UNL1        0.0766
     29 C           2.3071    1.7939   33.3710 C.ar    1  UNL1        0.1033
     30 N           2.8508    2.1464   34.7239 N.ar    1  UNL1       -0.2422
     31 C           2.4994    3.4613   35.3542 C.ar    1  UNL1        0.0988
     32 C           1.6041    4.4239   34.6316 C.ar    1  UNL1        0.0247
     33 C           1.0604    4.0715   33.2789 C.ar    1  UNL1        0.0788
     34 C           0.1652    5.0341   32.5563 C.3     1  UNL1        0.4188
     35 F          -0.7302    5.9966   31.8338 F       1  UNL1       -0.1659
     36 F          -1.0341    4.2450   32.9911 F       1  UNL1       -0.1659
     37 F           1.3644    5.8232   32.1215 F       1  UNL1       -0.1659
     38 O           0.5928    2.2428   26.8479 O.3     1  UNL1       -0.4723
     39 C          -0.5963    2.9893   26.3197 C.ar    1  UNL1        0.1390
     40 C          -1.2970    2.5063   25.0846 C.ar    1  UNL1        0.0369
     41 C          -2.4860    3.2528   24.5564 C.ar    1  UNL1        0.0070
     42 C          -2.9743    4.4824   25.2633 C.ar    1  UNL1        0.0716
     43 C          -2.2735    4.9654   26.4984 C.ar    1  UNL1        0.0070
     44 C          -1.0845    4.2189   27.0267 C.ar    1  UNL1        0.0369
     45 C          -4.1633    5.2288   24.7351 C.3     1  UNL1        0.4186
     46 F          -5.3523    5.9753   24.2068 F       1  UNL1       -0.1659
     47 F          -5.0673    4.4006   25.5992 F       1  UNL1       -0.1659
     48 F          -3.2593    6.0571   23.8709 F       1  UNL1       -0.1659
     49 C          -0.2194    1.6993   28.5900 C.3     1  UNL1        0.0556
     50 C          -0.1306    0.2022   28.5565 C.3     1  UNL1        0.1390
     51 O          -1.2732   -0.2983   29.3895 O.3     1  UNL1       -0.3819
     52 H          -1.1975    0.0570   30.2890 H       1  UNL1        0.2104
@<TRIPOS>BOND
     1    26    27    1
     2    27    25    1
     3    25    24    1
     4    24    23    1
     5    23    17    1
     6    17    18   ar
     7    18    19   ar
     8    19    20   ar
     9    20    21   ar
    10    21    22   ar
    11    22     9    1
    12     9    10    1
    13    10    11    1
    14    11    12    1
    15    12    13   am
    16    13    14    2
    17    13     1    1
    18     1    38    1
    19    38    39    1
    20    39    40   ar
    21    40    41   ar
    22    41    42   ar
    23    42    45    1
    24    45    46    1
    25    45    47    1
    26    45    48    1
    27    42    43   ar
    28    43    44   ar
    29     1     2    1
    30     2     3    1
    31     3     4    1
    32     4     5    1
    33     5     6   am
    34     6     7    2
    35     6    28    1
    36    28    29   ar
    37    29    30   ar
    38    30    31   ar
    39    31    32   ar
    40    32    33   ar
    41    33    34    1
    42    34    35    1
    43    34    36    1
    44    34    37    1
    45     5     8    1
    46     8    49    1
    47    49    50    1
    48    50    51    1
    49    12    15    1
    50    15    16    1
    51    22    17   ar
    52    16     9    1
    53     8     1    1
    54    44    39   ar
    55    33    28   ar
    56    51    52    1
@<TRIPOS>MOLECULE
*****
 52 56 0 0 0
SMALL
GASTEIGER

@<TRIPOS>ATOM
      1 C           2.7390    2.3659   21.4962 C.3     1  UNL1        0.2170
      2 C           3.8217    3.3694   21.2304 C.3     1  UNL1        0.0525
      3 C           5.1725    2.9104   20.7669 C.3     1  UNL1        0.0257
      4 C           5.4405    1.4478   20.5693 C.3     1  UNL1        0.0939
      5 N           4.3577    0.4442   20.8351 N.am    1  UNL1       -0.2737
      6 C           4.6258   -1.0183   20.6374 C.2     1  UNL1        0.2506
      7 O           3.5431   -2.0218   20.9032 O.2     1  UNL1       -0.2699
      8 C           3.0070    0.9034   21.2986 C.3     1  UNL1        0.1230
      9 N          -1.3787    5.0215   19.2067 N.pl3   1  UNL1       -0.3017
     10 C          -0.6463    3.7547   18.8769 C.3     1  UNL1        0.1124
     11 C           0.4821    3.2917   19.7500 C.3     1  UNL1        0.1149
     12 N           0.8782    4.0956   20.9529 N.am    1  UNL1       -0.2732
     13 C           2.0066    3.6327   21.8260 C.2     1  UNL1        0.2636
     14 O           2.4027    4.4366   23.0288 O.2     1  UNL1       -0.2711
     15 C           0.1458    5.3625   21.2826 C.3     1  UNL1        0.1149
     16 C          -0.9826    5.8254   20.4095 C.3     1  UNL1        0.1124
     17 C          -3.7966    4.7187   18.3056 C.ar    1  UNL1        0.1518
     18 C          -4.9250    5.1816   17.4325 C.ar    1  UNL1        0.0382
     19 C          -4.7639    6.4103   16.5873 C.ar    1  UNL1        0.0032
     20 C          -3.4744    7.1760   16.6152 C.ar    1  UNL1        0.0015
     21 C          -2.3461    6.7131   17.4883 C.ar    1  UNL1        0.0176
     22 C          -2.5072    5.4844   18.3335 C.ar    1  UNL1        0.0824
     23 O          -3.9577    3.4900   19.1509 O.3     1  UNL1       -0.4715
     24 C          -4.5410    3.5986   20.5285 C.3     1  UNL1        0.2374
     25 C          -3.6377    3.6207   21.7258 C.3     1  UNL1        0.1894
     26 C          -4.2801    3.4194   24.2352 C.3     1  UNL1        0.1743
     27 O          -4.1009    4.2561   23.0032 O.3     1  UNL1       -0.3471
     28 C           5.9765   -1.4773   20.1740 C.ar    1  UNL1        0.0766
     29 C           7.0609   -1.7475   21.1745 C.ar    1  UNL1        0.1033
     30 N           8.4116   -2.2066   20.7110 N.ar    1  UNL1       -0.2422
     31 C           8.6780   -2.3954   19.2471 C.ar    1  UNL1        0.0988
     32 C           7.5936   -2.1252   18.2464 C.ar    1  UNL1        0.0247
     33 C           6.2429   -1.6662   18.7099 C.ar    1  UNL1        0.0788
     34 C           5.1585   -1.3960   17.7094 C.3     1  UNL1        0.4188
     35 F           4.0740   -1.1258   16.7088 F       1  UNL1       -0.1659
     36 F           4.6857   -2.8136   17.8390 F       1  UNL1       -0.1659
     37 F           5.6313    0.0217   17.5797 F       1  UNL1       -0.1659
     38 O           1.4020    1.8023   21.8766 O.3     1  UNL1       -0.4723
     39 C           0.9951    1.7450   23.3192 C.ar    1  UNL1        0.1390
     40 C          -0.3680    2.2142   23.7333 C.ar    1  UNL1        0.0369
     41 C          -0.7749    2.1568   25.1760 C.ar    1  UNL1        0.0070
     42 C           0.1816    1.6302   26.2045 C.ar    1  UNL1        0.0716
     43 C           1.5448    1.1610   25.7905 C.ar    1  UNL1        0.0070
     44 C           1.9516    1.2184   24.3478 C.ar    1  UNL1        0.0369
     45 C          -0.2253    1.5729   27.6471 C.3     1  UNL1        0.4186
     46 F          -0.6321    1.5156   29.0898 F       1  UNL1       -0.1659
     47 F          -1.5895    2.0789   27.2826 F       1  UNL1       -0.1659
     48 F           1.1390    1.0669   28.0117 F       1  UNL1       -0.1659
     49 C           1.9243   -0.1002   21.5644 C.3     1  UNL1        0.0556
     50 C           1.1003   -0.6328   20.4297 C.3     1  UNL1        0.1390
     51 O          -0.2662   -0.0372   20.5962 O.3     1  UNL1       -0.3819
     52 H          -0.6242   -0.2865   21.4625 H       1  UNL1        0.2104
@<TRIPOS>BOND
     1    26    27    1
     2    27    25    1
     3    25    24    1
     4    24    23    1
     5    23    17    1
     6    17    18   ar
     7    18    19   ar
     8    19    20   ar
     9    20    21   ar
    10    21    22   ar
    11    22     9    1
    12     9    10    1
    13    10    11    1
    14    11    12    1
    15    12    13   am
    16    13    14    2
    17    13     1    1
    18     1    38    1
    19    38    39    1
    20    39    40   ar
    21    40    41   ar
    22    41    42   ar
    23    42    45    1
    24    45    46    1
    25    45    47    1
    26    45    48    1
    27    42    43   ar
    28    43    44   ar
    29     1     2    1
    30     2     3    1
    31     3     4    1
    32     4     5    1
    33     5     6   am
    34     6     7    2
    35     6    28    1
    36    28    29   ar
    37    29    30   ar
    38    30    31   ar
    39    31    32   ar
    40    32    33   ar
    41    33    34    1
    42    34    35    1
    43    34    36    1
    44    34    37    1
    45     5     8    1
    46     8    49    1
    47    49    50    1
    48    50    51    1
    49    12    15    1
    50    15    16    1
    51    22    17   ar
    52    16     9    1
    53     8     1    1
    54    44    39   ar
    55    33    28   ar
    56    51    52    1
@<TRIPOS>MOLECULE
*****
 52 56 0 0 0
SMALL
GASTEIGER

@<TRIPOS>ATOM
      1 C           2.2320    2.8747   28.0195 C.3     1  UNL1        0.2170
      2 C           3.4365    3.7494   28.2041 C.3     1  UNL1        0.0525
      3 C           3.7990    4.2479   29.5716 C.3     1  UNL1        0.0257
      4 C           2.9569    3.8717   30.7546 C.3     1  UNL1        0.0939
      5 N           1.7523    2.9970   30.5700 N.am    1  UNL1       -0.2737
      6 C           0.9103    2.6208   31.7529 C.2     1  UNL1        0.2506
      7 O          -0.2942    1.7461   31.5684 O.2     1  UNL1       -0.2699
      8 C           1.3900    2.4985   29.2025 C.3     1  UNL1        0.1230
      9 N           4.4230   -0.6879   24.5906 N.pl3   1  UNL1       -0.3017
     10 C           3.9411   -0.7702   26.0087 C.3     1  UNL1        0.1124
     11 C           3.3714    0.4447   26.6790 C.3     1  UNL1        0.1149
     12 N           3.2836    1.7421   25.9311 N.am    1  UNL1       -0.2732
     13 C           2.7139    2.9570   26.6014 C.2     1  UNL1        0.2636
     14 O           2.6261    4.2543   25.8536 O.2     1  UNL1       -0.2711
     15 C           3.7654    1.8244   24.5130 C.3     1  UNL1        0.1149
     16 C           4.3351    0.6094   23.8428 C.3     1  UNL1        0.1124
     17 C           6.2394   -2.5407   24.4576 C.ar    1  UNL1        0.1518
     18 C           6.8091   -3.7556   23.7874 C.ar    1  UNL1        0.0382
     19 C           6.1319   -4.3329   22.5798 C.ar    1  UNL1        0.0032
     20 C           4.8852   -3.6951   22.0425 C.ar    1  UNL1        0.0015
     21 C           4.3155   -2.4802   22.7127 C.ar    1  UNL1        0.0176
     22 C           4.9927   -1.9029   23.9203 C.ar    1  UNL1        0.0824
     23 O           6.9166   -1.9634   25.6652 O.3     1  UNL1       -0.4715
     24 C           7.2603   -2.8479   26.8269 C.3     1  UNL1        0.2374
     25 C           6.1772   -3.3432   27.7387 C.3     1  UNL1        0.1894
     26 C           6.7314   -5.2796   29.3799 C.3     1  UNL1        0.1743
     27 O           6.1099   -4.7968   28.1029 O.3     1  UNL1       -0.3471
     28 C           1.2727    3.1193   33.1205 C.ar    1  UNL1        0.0766
     29 C           2.1183    2.2747   34.0269 C.ar    1  UNL1        0.1033
     30 N           2.4807    2.7732   35.3945 N.ar    1  UNL1       -0.2422
     31 C           1.9976    4.1163   35.8556 C.ar    1  UNL1        0.0988
     32 C           1.1520    4.9610   34.9491 C.ar    1  UNL1        0.0247
     33 C           0.7896    4.4625   33.5816 C.ar    1  UNL1        0.0788
     34 C          -0.0559    5.3071   32.6752 C.3     1  UNL1        0.4188
     35 F          -0.9016    6.1517   31.7687 F       1  UNL1       -0.1659
     36 F          -1.2790    4.5630   33.1228 F       1  UNL1       -0.1659
     37 F           1.1671    6.0512   32.2275 F       1  UNL1       -0.1659
     38 O           1.1948    2.0286   27.3424 O.3     1  UNL1       -0.4723
     39 C           0.1072    2.6763   26.5377 C.ar    1  UNL1        0.1390
     40 C          -0.5021    3.9662   27.0013 C.ar    1  UNL1        0.0369
     41 C          -1.5898    4.6139   26.1966 C.ar    1  UNL1        0.0070
     42 C          -2.0681    3.9716   24.9283 C.ar    1  UNL1        0.0716
     43 C          -1.4589    2.6817   24.4647 C.ar    1  UNL1        0.0070
     44 C          -0.3712    2.0340   25.2694 C.ar    1  UNL1        0.0369
     45 C          -3.1558    4.6193   24.1236 C.3     1  UNL1        0.4186
     46 F          -4.2435    5.2670   23.3189 F       1  UNL1       -0.1659
     47 F          -2.7078    5.9680   24.6035 F       1  UNL1       -0.1659
     48 F          -3.6038    3.2706   23.6437 F       1  UNL1       -0.1659
     49 C           0.1854    1.6238   29.0179 C.3     1  UNL1        0.0556
     50 C           0.3291    0.1312   29.0584 C.3     1  UNL1        0.1390
     51 O          -0.6496   -0.4055   28.0564 O.3     1  UNL1       -0.3819
     52 H          -1.5446   -0.1133   28.2900 H       1  UNL1        0.2104
@<TRIPOS>BOND
     1    26    27    1
     2    27    25    1
     3    25    24    1
     4    24    23    1
     5    23    17    1
     6    17    18   ar
     7    18    19   ar
     8    19    20   ar
     9    20    21   ar
    10    21    22   ar
    11    22     9    1
    12     9    10    1
    13    10    11    1
    14    11    12    1
    15    12    13   am
    16    13    14    2
    17    13     1    1
    18     1    38    1
    19    38    39    1
    20    39    40   ar
    21    40    41   ar
    22    41    42   ar
    23    42    45    1
    24    45    46    1
    25    45    47    1
    26    45    48    1
    27    42    43   ar
    28    43    44   ar
    29     1     2    1
    30     2     3    1
    31     3     4    1
    32     4     5    1
    33     5     6   am
    34     6     7    2
    35     6    28    1
    36    28    29   ar
    37    29    30   ar
    38    30    31   ar
    39    31    32   ar
    40    32    33   ar
    41    33    34    1
    42    34    35    1
    43    34    36    1
    44    34    37    1
    45     5     8    1
    46     8    49    1
    47    49    50    1
    48    50    51    1
    49    12    15    1
    50    15    16    1
    51    22    17   ar
    52    16     9    1
    53     8     1    1
    54    44    39   ar
    55    33    28   ar
    56    51    52    1
@<TRIPOS>MOLECULE
*****
 52 56 0 0 0
SMALL
GASTEIGER

@<TRIPOS>ATOM
      1 C           3.7686    1.7104   28.5635 C.3     1  UNL1        0.2170
      2 C           5.0258    2.4192   28.9723 C.3     1  UNL1        0.0525
      3 C           5.1182    3.0627   30.3242 C.3     1  UNL1        0.0257
      4 C           3.9535    2.9974   31.2671 C.3     1  UNL1        0.0939
      5 N           2.6962    2.2886   30.8582 N.am    1  UNL1       -0.2737
      6 C           1.5316    2.2233   31.8011 C.2     1  UNL1        0.2506
      7 O           0.2744    1.5145   31.3923 O.2     1  UNL1       -0.2699
      8 C           2.6039    1.6451   29.5064 C.3     1  UNL1        0.1230
      9 N           6.1715   -2.5913   26.3340 N.pl3   1  UNL1       -0.3017
     10 C           5.3435   -2.3857   27.5677 C.3     1  UNL1        0.1124
     11 C           4.8186   -1.0203   27.8997 C.3     1  UNL1        0.1149
     12 N           5.1216    0.1394   26.9978 N.am    1  UNL1       -0.2732
     13 C           4.5966    1.5048   27.3298 C.2     1  UNL1        0.2636
     14 O           4.8996    2.6644   26.4280 O.2     1  UNL1       -0.2711
     15 C           5.9496   -0.0662   25.7641 C.3     1  UNL1        0.1149
     16 C           6.4746   -1.4317   25.4322 C.3     1  UNL1        0.1124
     17 C           6.7122   -5.0295   27.0504 C.ar    1  UNL1        0.1518
     18 C           7.2372   -6.3948   26.7184 C.ar    1  UNL1        0.0382
     19 C           7.7464   -6.6874   25.3382 C.ar    1  UNL1        0.0032
     20 C           7.7307   -5.6147   24.2899 C.ar    1  UNL1        0.0015
     21 C           7.2058   -4.2494   24.6218 C.ar    1  UNL1        0.0176
     22 C           6.6965   -3.9568   26.0021 C.ar    1  UNL1        0.0824
     23 O           6.2030   -4.7369   28.4306 O.3     1  UNL1       -0.4715
     24 C           6.8150   -5.4215   29.6166 C.3     1  UNL1        0.2374
     25 C           6.9329   -4.6951   30.9236 C.3     1  UNL1        0.1894
     26 C           5.7734   -2.9585   32.4696 C.3     1  UNL1        0.1743
     27 O           6.2535   -3.3707   31.1096 O.3     1  UNL1       -0.3471
     28 C           1.6240    2.8668   33.1530 C.ar    1  UNL1        0.0766
     29 C           2.2969    2.1451   34.2827 C.ar    1  UNL1        0.1033
     30 N           2.3893    2.7886   35.6345 N.ar    1  UNL1       -0.2422
     31 C           1.8088    4.1537   35.8566 C.ar    1  UNL1        0.0988
     32 C           1.1358    4.8755   34.7268 C.ar    1  UNL1        0.0247
     33 C           1.0435    4.2320   33.3751 C.ar    1  UNL1        0.0788
     34 C           0.3706    4.9536   32.2453 C.3     1  UNL1        0.4188
     35 F          -0.3023    5.6753   31.1154 F       1  UNL1       -0.1659
     36 F           1.6991    5.4820   31.7916 F       1  UNL1       -0.1659
     37 F          -0.9580    4.4253   32.6989 F       1  UNL1       -0.1659
     38 O           2.7990    0.9302   27.7261 O.3     1  UNL1       -0.4723
     39 C           2.1518    1.5715   26.5345 C.ar    1  UNL1        0.1390
     40 C           1.8871    0.7630   25.2991 C.ar    1  UNL1        0.0369
     41 C           1.2399    1.4043   24.1075 C.ar    1  UNL1        0.0070
     42 C           0.8575    2.8540   24.1513 C.ar    1  UNL1        0.0716
     43 C           1.1222    3.6625   25.3867 C.ar    1  UNL1        0.0070
     44 C           1.7694    3.0212   26.5784 C.ar    1  UNL1        0.0369
     45 C           0.2103    3.4952   22.9597 C.3     1  UNL1        0.4186
     46 F          -0.4369    4.1364   21.7680 F       1  UNL1       -0.1659
     47 F           0.2022    4.8143   23.6737 F       1  UNL1       -0.1659
     48 F           0.2184    2.1761   22.2456 F       1  UNL1       -0.1659
     49 C           1.3467    0.9363   29.0975 C.3     1  UNL1        0.0556
     50 C           1.2597   -0.5575   29.2031 C.3     1  UNL1        0.1390
     51 O           1.8525   -0.9130   30.5343 O.3     1  UNL1       -0.3819
     52 H           2.7666   -0.5914   30.5775 H       1  UNL1        0.2104
@<TRIPOS>BOND
     1    26    27    1
     2    27    25    1
     3    25    24    1
     4    24    23    1
     5    23    17    1
     6    17    18   ar
     7    18    19   ar
     8    19    20   ar
     9    20    21   ar
    10    21    22   ar
    11    22     9    1
    12     9    10    1
    13    10    11    1
    14    11    12    1
    15    12    13   am
    16    13    14    2
    17    13     1    1
    18     1    38    1
    19    38    39    1
    20    39    40   ar
    21    40    41   ar
    22    41    42   ar
    23    42    45    1
    24    45    46    1
    25    45    47    1
    26    45    48    1
    27    42    43   ar
    28    43    44   ar
    29     1     2    1
    30     2     3    1
    31     3     4    1
    32     4     5    1
    33     5     6   am
    34     6     7    2
    35     6    28    1
    36    28    29   ar
    37    29    30   ar
    38    30    31   ar
    39    31    32   ar
    40    32    33   ar
    41    33    34    1
    42    34    35    1
    43    34    36    1
    44    34    37    1
    45     5     8    1
    46     8    49    1
    47    49    50    1
    48    50    51    1
    49    12    15    1
    50    15    16    1
    51    22    17   ar
    52    16     9    1
    53     8     1    1
    54    44    39   ar
    55    33    28   ar
    56    51    52    1
@<TRIPOS>MOLECULE
*****
 52 56 0 0 0
SMALL
GASTEIGER

@<TRIPOS>ATOM
      1 C           3.7570    2.0484   28.4225 C.3     1  UNL1        0.2170
      2 C           4.4144    3.3918   28.3077 C.3     1  UNL1        0.0525
      3 C           4.0462    4.4908   29.2599 C.3     1  UNL1        0.0257
      4 C           3.0206    4.2464   30.3268 C.3     1  UNL1        0.0939
      5 N           2.3631    2.9030   30.4416 N.am    1  UNL1       -0.2737
      6 C           1.3375    2.6586   31.5085 C.2     1  UNL1        0.2506
      7 O           0.6800    1.3153   31.6233 O.2     1  UNL1       -0.2699
      8 C           2.7314    1.8041   29.4894 C.3     1  UNL1        0.1230
      9 N           2.9201    1.0124   23.1808 N.pl3   1  UNL1       -0.3017
     10 C           2.0134    1.2651   24.3487 C.3     1  UNL1        0.1124
     11 C           2.5945    1.5262   25.7066 C.3     1  UNL1        0.1149
     12 N           4.0825    1.5347   25.8967 N.am    1  UNL1       -0.2732
     13 C           4.6637    1.7958   27.2546 C.2     1  UNL1        0.2636
     14 O           6.1515    1.8042   27.4446 O.2     1  UNL1       -0.2711
     15 C           4.9892    1.2820   24.7287 C.3     1  UNL1        0.1149
     16 C           4.4079    1.0209   23.3707 C.3     1  UNL1        0.1124
     17 C           2.4810   -0.6030   21.1939 C.ar    1  UNL1        0.1518
     18 C           1.8998   -0.8640   19.8359 C.ar    1  UNL1        0.0382
     19 C           1.1763    0.2292   19.1069 C.ar    1  UNL1        0.0032
     20 C           1.0341    1.5835   19.7359 C.ar    1  UNL1        0.0015
     21 C           1.6154    1.8446   21.0938 C.ar    1  UNL1        0.0176
     22 C           2.3388    0.7513   21.8228 C.ar    1  UNL1        0.0824
     23 O           3.2044   -1.6962   21.9228 O.3     1  UNL1       -0.4715
     24 C           4.4239   -2.3235   21.3152 C.3     1  UNL1        0.2374
     25 C           4.6429   -3.8030   21.4305 C.3     1  UNL1        0.1894
     26 C           4.5129   -4.8481   19.0554 C.3     1  UNL1        0.1743
     27 O           3.9877   -4.7363   20.4560 O.3     1  UNL1       -0.3471
     28 C           0.9692    3.7577   32.4607 C.ar    1  UNL1        0.0766
     29 C          -0.1797    4.6691   32.1458 C.ar    1  UNL1        0.1033
     30 N          -0.5479    5.7682   33.0980 N.ar    1  UNL1       -0.2422
     31 C           0.2327    5.9557   34.3650 C.ar    1  UNL1        0.0988
     32 C           1.3817    5.0441   34.6799 C.ar    1  UNL1        0.0247
     33 C           1.7499    3.9452   33.7278 C.ar    1  UNL1        0.0788
     34 C           2.8988    3.0337   34.0426 C.3     1  UNL1        0.4188
     35 F           4.0479    2.1221   34.3574 F       1  UNL1       -0.1659
     36 F           3.8524    4.0346   33.4606 F       1  UNL1       -0.1659
     37 F           1.9453    2.0326   34.6245 F       1  UNL1       -0.1659
     38 O           3.4145    0.6173   28.1316 O.3     1  UNL1       -0.4723
     39 C           4.4060   -0.4673   28.4328 C.ar    1  UNL1        0.1390
     40 C           5.1671   -0.4499   29.7251 C.ar    1  UNL1        0.0369
     41 C           6.1586   -1.5346   30.0263 C.ar    1  UNL1        0.0070
     42 C           6.3889   -2.6365   29.0349 C.ar    1  UNL1        0.0716
     43 C           5.6278   -2.6538   27.7426 C.ar    1  UNL1        0.0070
     44 C           4.6363   -1.5692   27.4414 C.ar    1  UNL1        0.0369
     45 C           7.3804   -3.7210   29.3361 C.3     1  UNL1        0.4186
     46 F           8.3719   -4.8056   29.6372 F       1  UNL1       -0.1659
     47 F           7.1030   -3.5676   30.8022 F       1  UNL1       -0.1659
     48 F           7.6578   -3.8744   27.8700 F       1  UNL1       -0.1659
     49 C           2.0739    0.4606   29.6042 C.3     1  UNL1        0.0556
     50 C           0.8730    0.1392   28.7647 C.3     1  UNL1        0.1390
     51 O          -0.0602   -0.6271   29.6547 O.3     1  UNL1       -0.3819
     52 H           0.3864   -1.4234   29.9823 H       1  UNL1        0.2104
@<TRIPOS>BOND
     1    26    27    1
     2    27    25    1
     3    25    24    1
     4    24    23    1
     5    23    17    1
     6    17    18   ar
     7    18    19   ar
     8    19    20   ar
     9    20    21   ar
    10    21    22   ar
    11    22     9    1
    12     9    10    1
    13    10    11    1
    14    11    12    1
    15    12    13   am
    16    13    14    2
    17    13     1    1
    18     1    38    1
    19    38    39    1
    20    39    40   ar
    21    40    41   ar
    22    41    42   ar
    23    42    45    1
    24    45    46    1
    25    45    47    1
    26    45    48    1
    27    42    43   ar
    28    43    44   ar
    29     1     2    1
    30     2     3    1
    31     3     4    1
    32     4     5    1
    33     5     6   am
    34     6     7    2
    35     6    28    1
    36    28    29   ar
    37    29    30   ar
    38    30    31   ar
    39    31    32   ar
    40    32    33   ar
    41    33    34    1
    42    34    35    1
    43    34    36    1
    44    34    37    1
    45     5     8    1
    46     8    49    1
    47    49    50    1
    48    50    51    1
    49    12    15    1
    50    15    16    1
    51    22    17   ar
    52    16     9    1
    53     8     1    1
    54    44    39   ar
    55    33    28   ar
    56    51    52    1
@<TRIPOS>MOLECULE
*****
 52 56 0 0 0
SMALL
GASTEIGER

@<TRIPOS>ATOM
      1 C           3.6345    1.3282   27.4920 C.3     1  UNL1        0.2170
      2 C           4.9066    2.1223   27.4608 C.3     1  UNL1        0.0525
      3 C           5.7711    2.2021   28.6841 C.3     1  UNL1        0.0257
      4 C           5.3634    1.4879   29.9385 C.3     1  UNL1        0.0939
      5 N           4.0911    0.6937   29.9697 N.am    1  UNL1       -0.2737
      6 C           3.6834   -0.0205   31.2240 C.2     1  UNL1        0.2506
      7 O           2.4112   -0.8146   31.2552 O.2     1  UNL1       -0.2699
      8 C           3.2267    0.6139   28.7464 C.3     1  UNL1        0.1230
      9 N           3.8719   -1.0841   22.6573 N.pl3   1  UNL1       -0.3017
     10 C           3.9107   -1.5827   24.0715 C.3     1  UNL1        0.1124
     11 C           3.8186   -0.6125   25.2116 C.3     1  UNL1        0.1149
     12 N           3.6878    0.8566   24.9377 N.am    1  UNL1       -0.2732
     13 C           3.5957    1.8268   26.0778 C.2     1  UNL1        0.2636
     14 O           3.4649    3.2958   25.8038 O.2     1  UNL1       -0.2711
     15 C           3.6491    1.3552   23.5235 C.3     1  UNL1        0.1149
     16 C           3.7411    0.3848   22.3833 C.3     1  UNL1        0.1124
     17 C           3.2635   -1.7606   20.2237 C.ar    1  UNL1        0.1518
     18 C           3.3556   -2.7309   19.0836 C.ar    1  UNL1        0.0382
     19 C           4.1482   -3.9952   19.2369 C.ar    1  UNL1        0.0032
     20 C           4.8488   -4.2890   20.5302 C.ar    1  UNL1        0.0015
     21 C           4.7567   -3.3187   21.6703 C.ar    1  UNL1        0.0176
     22 C           3.9640   -2.0545   21.5171 C.ar    1  UNL1        0.0824
     23 O           2.4709   -0.4964   20.0705 O.3     1  UNL1       -0.4715
     24 C           0.9726   -0.5388   20.1289 C.3     1  UNL1        0.2374
     25 C           0.1849    0.7376   20.1096 C.3     1  UNL1        0.1894
     26 C           0.5465    2.5821   21.9032 C.3     1  UNL1        0.1743
     27 O          -0.2146    1.3920   21.3989 O.3     1  UNL1       -0.3471
     28 C           4.5478    0.0593   32.4473 C.ar    1  UNL1        0.0766
     29 C           4.3752    1.1923   33.4150 C.ar    1  UNL1        0.1033
     30 N           5.2396    1.2721   34.6384 N.ar    1  UNL1       -0.2422
     31 C           6.2766    0.2189   34.8939 C.ar    1  UNL1        0.0988
     32 C           6.4493   -0.9141   33.9261 C.ar    1  UNL1        0.0247
     33 C           5.5849   -0.9939   32.7029 C.ar    1  UNL1        0.0788
     34 C           5.7575   -2.1269   31.7352 C.3     1  UNL1        0.4188
     35 F           5.9300   -3.2600   30.7674 F       1  UNL1       -0.1659
     36 F           4.7516   -2.9342   32.5009 F       1  UNL1       -0.1659
     37 F           6.7634   -1.3197   30.9694 F       1  UNL1       -0.1659
     38 O           2.3488    0.7073   27.0320 O.3     1  UNL1       -0.4723
     39 C           1.1582    1.5734   26.7450 C.ar    1  UNL1        0.1390
     40 C           0.2265    1.2200   25.6239 C.ar    1  UNL1        0.0369
     41 C          -0.9642    2.0861   25.3369 C.ar    1  UNL1        0.0070
     42 C          -1.2230    3.3056   26.1710 C.ar    1  UNL1        0.0716
     43 C          -0.2912    3.6590   27.2920 C.ar    1  UNL1        0.0070
     44 C           0.8994    2.7929   27.5791 C.ar    1  UNL1        0.0369
     45 C          -2.4136    4.1716   25.8839 C.3     1  UNL1        0.4186
     46 F          -3.6042    5.0377   25.5969 F       1  UNL1       -0.1659
     47 F          -2.8480    3.2187   24.8101 F       1  UNL1       -0.1659
     48 F          -1.9792    5.1246   26.9578 F       1  UNL1       -0.1659
     49 C           1.9545   -0.1802   28.7775 C.3     1  UNL1        0.0556
     50 C           0.7740    0.3248   29.5531 C.3     1  UNL1        0.1390
     51 O          -0.2612   -0.7584   29.4819 O.3     1  UNL1       -0.3819
     52 H          -0.4776   -0.9383   28.5536 H       1  UNL1        0.2104
@<TRIPOS>BOND
     1    26    27    1
     2    27    25    1
     3    25    24    1
     4    24    23    1
     5    23    17    1
     6    17    18   ar
     7    18    19   ar
     8    19    20   ar
     9    20    21   ar
    10    21    22   ar
    11    22     9    1
    12     9    10    1
    13    10    11    1
    14    11    12    1
    15    12    13   am
    16    13    14    2
    17    13     1    1
    18     1    38    1
    19    38    39    1
    20    39    40   ar
    21    40    41   ar
    22    41    42   ar
    23    42    45    1
    24    45    46    1
    25    45    47    1
    26    45    48    1
    27    42    43   ar
    28    43    44   ar
    29     1     2    1
    30     2     3    1
    31     3     4    1
    32     4     5    1
    33     5     6   am
    34     6     7    2
    35     6    28    1
    36    28    29   ar
    37    29    30   ar
    38    30    31   ar
    39    31    32   ar
    40    32    33   ar
    41    33    34    1
    42    34    35    1
    43    34    36    1
    44    34    37    1
    45     5     8    1
    46     8    49    1
    47    49    50    1
    48    50    51    1
    49    12    15    1
    50    15    16    1
    51    22    17   ar
    52    16     9    1
    53     8     1    1
    54    44    39   ar
    55    33    28   ar
    56    51    52    1
@<TRIPOS>MOLECULE
*****
 52 56 0 0 0
SMALL
GASTEIGER

@<TRIPOS>ATOM
      1 C           1.6179    2.8946   27.0660 C.3     1  UNL1        0.2170
      2 C           2.9266    3.6207   27.1677 C.3     1  UNL1        0.0525
      3 C           3.5387    3.8784   28.5127 C.3     1  UNL1        0.0257
      4 C           2.8423    3.4100   29.7559 C.3     1  UNL1        0.0939
      5 N           1.5336    2.6839   29.6541 N.am    1  UNL1       -0.2737
      6 C           0.8372    2.2156   30.8973 C.2     1  UNL1        0.2506
      7 O          -0.4715    1.4895   30.7956 O.2     1  UNL1       -0.2699
      8 C           0.9215    2.4263   28.3092 C.3     1  UNL1        0.1230
      9 N           3.0633   -0.2809   22.9336 N.pl3   1  UNL1       -0.3017
     10 C           2.7881   -0.5268   24.3875 C.3     1  UNL1        0.1124
     11 C           2.3981    0.6137   25.2803 C.3     1  UNL1        0.1149
     12 N           2.2832    2.0001   24.7193 N.am    1  UNL1       -0.2732
     13 C           1.8931    3.1405   25.6121 C.2     1  UNL1        0.2636
     14 O           1.7783    4.5269   25.0510 O.2     1  UNL1       -0.2711
     15 C           2.5584    2.2460   23.2654 C.3     1  UNL1        0.1149
     16 C           2.9484    1.1054   22.3725 C.3     1  UNL1        0.1124
     17 C           4.2973   -2.5394   22.5775 C.ar    1  UNL1        0.1518
     18 C           4.6873   -3.6798   21.6846 C.ar    1  UNL1        0.0382
     19 C           4.2335   -3.7024   20.2551 C.ar    1  UNL1        0.0032
     20 C           3.3896   -2.5845   19.7184 C.ar    1  UNL1        0.0015
     21 C           2.9995   -1.4440   20.6113 C.ar    1  UNL1        0.0176
     22 C           3.4534   -1.4215   22.0408 C.ar    1  UNL1        0.0824
     23 O           4.7511   -2.5168   24.0070 O.3     1  UNL1       -0.4715
     24 C           6.2116   -2.3995   24.3284 C.3     1  UNL1        0.2374
     25 C           6.9984   -1.2258   23.8250 C.3     1  UNL1        0.1894
     26 C           6.1384    0.9741   24.9070 C.3     1  UNL1        0.1743
     27 O           6.3418    0.1164   23.6933 O.3     1  UNL1       -0.3471
     28 C           1.4493    2.4732   32.2423 C.ar    1  UNL1        0.0766
     29 C           2.3356    1.4406   32.8732 C.ar    1  UNL1        0.1033
     30 N           2.9478    1.6983   34.2182 N.ar    1  UNL1       -0.2422
     31 C           2.6736    2.9886   34.9322 C.ar    1  UNL1        0.0988
     32 C           1.7873    4.0213   34.3012 C.ar    1  UNL1        0.0247
     33 C           1.1752    3.7636   32.9564 C.ar    1  UNL1        0.0788
     34 C           0.2889    4.7962   32.3254 C.3     1  UNL1        0.4188
     35 F          -0.5976    5.8289   31.6944 F       1  UNL1       -0.1659
     36 F          -0.9207    4.0644   32.8268 F       1  UNL1       -0.1659
     37 F           1.4984    5.5281   31.8240 F       1  UNL1       -0.1659
     38 O           0.4049    2.2540   26.4593 O.3     1  UNL1       -0.4723
     39 C          -0.7209    3.1073   25.9549 C.ar    1  UNL1        0.1390
     40 C          -1.4344    2.7360   24.6889 C.ar    1  UNL1        0.0369
     41 C          -2.5603    3.5893   24.1845 C.ar    1  UNL1        0.0070
     42 C          -2.9725    4.8140   24.9462 C.ar    1  UNL1        0.0716
     43 C          -2.2590    5.1853   26.2122 C.ar    1  UNL1        0.0070
     44 C          -1.1331    4.3320   26.7166 C.ar    1  UNL1        0.0369
     45 C          -4.0983    5.6673   24.4417 C.3     1  UNL1        0.4186
     46 F          -5.2241    6.5205   23.9372 F       1  UNL1       -0.1659
     47 F          -4.1312    6.3982   25.7511 F       1  UNL1       -0.1659
     48 F          -4.0655    4.9363   23.1323 F       1  UNL1       -0.1659
     49 C          -0.3872    1.7002   28.2074 C.3     1  UNL1        0.0556
     50 C          -0.4102    0.2019   28.1386 C.3     1  UNL1        0.1390
     51 O           1.0000   -0.2449   28.3871 O.3     1  UNL1       -0.3819
     52 H           1.5856    0.1473   27.7207 H       1  UNL1        0.2104
@<TRIPOS>BOND
     1    26    27    1
     2    27    25    1
     3    25    24    1
     4    24    23    1
     5    23    17    1
     6    17    18   ar
     7    18    19   ar
     8    19    20   ar
     9    20    21   ar
    10    21    22   ar
    11    22     9    1
    12     9    10    1
    13    10    11    1
    14    11    12    1
    15    12    13   am
    16    13    14    2
    17    13     1    1
    18     1    38    1
    19    38    39    1
    20    39    40   ar
    21    40    41   ar
    22    41    42   ar
    23    42    45    1
    24    45    46    1
    25    45    47    1
    26    45    48    1
    27    42    43   ar
    28    43    44   ar
    29     1     2    1
    30     2     3    1
    31     3     4    1
    32     4     5    1
    33     5     6   am
    34     6     7    2
    35     6    28    1
    36    28    29   ar
    37    29    30   ar
    38    30    31   ar
    39    31    32   ar
    40    32    33   ar
    41    33    34    1
    42    34    35    1
    43    34    36    1
    44    34    37    1
    45     5     8    1
    46     8    49    1
    47    49    50    1
    48    50    51    1
    49    12    15    1
    50    15    16    1
    51    22    17   ar
    52    16     9    1
    53     8     1    1
    54    44    39   ar
    55    33    28   ar
    56    51    52    1
@<TRIPOS>MOLECULE
*****
 52 56 0 0 0
SMALL
GASTEIGER

@<TRIPOS>ATOM
      1 C           2.4191    2.7998   27.6000 C.3     1  UNL1        0.2170
      2 C           3.6767    3.6125   27.5111 C.3     1  UNL1        0.0525
      3 C           4.4467    3.9413   28.7557 C.3     1  UNL1        0.0257
      4 C           3.9590    3.4575   30.0891 C.3     1  UNL1        0.0939
      5 N           2.7013    2.6448   30.1780 N.am    1  UNL1       -0.2737
      6 C           2.2137    2.1609   31.5114 C.2     1  UNL1        0.2506
      7 O           0.9561    1.3483   31.6003 O.2     1  UNL1       -0.2699
      8 C           1.9314    2.3160   28.9334 C.3     1  UNL1        0.1230
      9 N           3.4081   -0.3917   23.3472 N.pl3   1  UNL1       -0.3017
     10 C           3.3502   -0.6210   24.8285 C.3     1  UNL1        0.1124
     11 C           3.0398    0.5192   25.7523 C.3     1  UNL1        0.1149
     12 N           2.7873    1.8888   25.1949 N.am    1  UNL1       -0.2732
     13 C           2.4769    3.0290   26.1187 C.2     1  UNL1        0.2636
     14 O           2.2244    4.3985   25.5613 O.2     1  UNL1       -0.2711
     15 C           2.8452    2.1180   23.7136 C.3     1  UNL1        0.1149
     16 C           3.1556    0.9777   22.7898 C.3     1  UNL1        0.1124
     17 C           3.3023   -1.4657   20.9838 C.ar    1  UNL1        0.1518
     18 C           3.6127   -2.6059   20.0601 C.ar    1  UNL1        0.0382
     19 C           4.3393   -3.8126   20.5759 C.ar    1  UNL1        0.0032
     20 C           4.7555   -3.8790   22.0154 C.ar    1  UNL1        0.0015
     21 C           4.4451   -2.7387   22.9391 C.ar    1  UNL1        0.0176
     22 C           3.7185   -1.5320   22.4234 C.ar    1  UNL1        0.0824
     23 O           2.5757   -0.2590   20.4680 O.3     1  UNL1       -0.4715
     24 C           1.1468   -0.3757   20.0269 C.3     1  UNL1        0.2374
     25 C           0.1320    0.6225   20.4999 C.3     1  UNL1        0.1894
     26 C           0.6716    2.1492   18.4681 C.3     1  UNL1        0.1743
     27 O          -0.0410    1.9205   19.7681 O.3     1  UNL1       -0.3471
     28 C           2.9837    2.4898   32.7560 C.ar    1  UNL1        0.0766
     29 C           2.6788    3.7462   33.5166 C.ar    1  UNL1        0.1033
     30 N           3.4488    4.0751   34.7612 N.ar    1  UNL1       -0.2422
     31 C           4.5236    3.1475   35.2452 C.ar    1  UNL1        0.0988
     32 C           4.8285    1.8910   34.4846 C.ar    1  UNL1        0.0247
     33 C           4.0586    1.5622   33.2401 C.ar    1  UNL1        0.0788
     34 C           4.3634    0.3058   32.4795 C.3     1  UNL1        0.4188
     35 F           4.6683   -0.9506   31.7189 F       1  UNL1       -0.1659
     36 F           5.4269    1.0304   31.7089 F       1  UNL1       -0.1659
     37 F           3.2999   -0.4188   33.2502 F       1  UNL1       -0.1659
     38 O           1.1815    2.0667   27.1744 O.3     1  UNL1       -0.4723
     39 C          -0.0305    2.8334   26.7348 C.ar    1  UNL1        0.1390
     40 C          -0.4025    4.1104   27.4283 C.ar    1  UNL1        0.0369
     41 C          -1.6145    4.8771   26.9887 C.ar    1  UNL1        0.0070
     42 C          -2.4545    4.3668   25.8556 C.ar    1  UNL1        0.0716
     43 C          -2.0825    3.0899   25.1621 C.ar    1  UNL1        0.0070
     44 C          -0.8705    2.3232   25.6017 C.ar    1  UNL1        0.0369
     45 C          -3.6665    5.1335   25.4161 C.3     1  UNL1        0.4186
     46 F          -4.8785    5.9003   24.9765 F       1  UNL1       -0.1659
     47 F          -3.9978    5.4311   26.8484 F       1  UNL1       -0.1659
     48 F          -3.3352    4.8359   23.9837 F       1  UNL1       -0.1659
     49 C           0.6737    1.5032   29.0223 C.3     1  UNL1        0.0556
     50 C           0.7406    0.0068   28.9433 C.3     1  UNL1        0.1390
     51 O          -0.3942   -0.4114   28.0561 O.3     1  UNL1       -0.3819
     52 H          -1.2314   -0.0976   28.4323 H       1  UNL1        0.2104
@<TRIPOS>BOND
     1    26    27    1
     2    27    25    1
     3    25    24    1
     4    24    23    1
     5    23    17    1
     6    17    18   ar
     7    18    19   ar
     8    19    20   ar
     9    20    21   ar
    10    21    22   ar
    11    22     9    1
    12     9    10    1
    13    10    11    1
    14    11    12    1
    15    12    13   am
    16    13    14    2
    17    13     1    1
    18     1    38    1
    19    38    39    1
    20    39    40   ar
    21    40    41   ar
    22    41    42   ar
    23    42    45    1
    24    45    46    1
    25    45    47    1
    26    45    48    1
    27    42    43   ar
    28    43    44   ar
    29     1     2    1
    30     2     3    1
    31     3     4    1
    32     4     5    1
    33     5     6   am
    34     6     7    2
    35     6    28    1
    36    28    29   ar
    37    29    30   ar
    38    30    31   ar
    39    31    32   ar
    40    32    33   ar
    41    33    34    1
    42    34    35    1
    43    34    36    1
    44    34    37    1
    45     5     8    1
    46     8    49    1
    47    49    50    1
    48    50    51    1
    49    12    15    1
    50    15    16    1
    51    22    17   ar
    52    16     9    1
    53     8     1    1
    54    44    39   ar
    55    33    28   ar
    56    51    52    1
