@<TRIPOS>MOLECULE
*****
 33 36 0 0 0
SMALL
GASTEIGER

@<TRIPOS>ATOM
      1 C          -0.6328    4.7377   17.6245 C.3     1  UNL1        0.0356
      2 C          -1.6282    4.1736   18.5946 C.ar    1  UNL1        0.0291
      3 C          -3.0915    4.1965   18.2661 C.ar    1  UNL1        0.1003
      4 N          -4.0869    3.6324   19.2361 N.ar    1  UNL1       -0.2123
      5 C          -3.6189    3.0455   20.5348 C.ar    1  UNL1        0.2218
      6 N          -2.1556    3.0227   20.8633 N.ar    1  UNL1       -0.1988
      7 C          -1.1602    3.5867   19.8932 C.ar    1  UNL1        0.1326
      8 N          -4.6143    2.4815   21.5048 N.pl3   1  UNL1       -0.2825
      9 H          -5.0666    1.6298   21.3067 H       1  UNL1        0.1551
     10 C          -4.9205    3.2150   22.7769 C.ar    1  UNL1        0.0505
     11 C          -6.2102    3.9682   22.9165 C.ar    1  UNL1        0.0154
     12 C          -6.5164    4.7018   24.1885 C.ar    1  UNL1        0.0115
     13 C          -5.5330    4.6822   25.3210 C.ar    1  UNL1        0.0685
     14 C          -4.2434    3.9290   25.1814 C.ar    1  UNL1        0.0115
     15 C          -3.9371    3.1954   23.9093 C.ar    1  UNL1        0.0154
     16 C          -5.8393    5.4158   26.5930 C.1     1  UNL1        0.1004
     17 N          -6.1456    6.1493   27.8650 N.1     1  UNL1       -0.1908
     18 N           0.3033    3.5638   20.2219 N.pl3   1  UNL1       -0.2946
     19 H           0.7949    4.4088   20.3384 H       1  UNL1        0.1537
     20 C           1.0176    2.2536   20.3729 C.ar    1  UNL1        0.1049
     21 C           1.1177    1.3151   19.2069 C.ar    1  UNL1        0.1557
     22 F           0.5033    1.6870   17.8900 F       1  UNL1       -0.2028
     23 C           1.8320    0.0049   19.3579 C.ar    1  UNL1        0.0311
     24 C           2.4464   -0.3670   20.6748 C.ar    1  UNL1        0.0047
     25 C           2.3464    0.5714   21.8407 C.ar    1  UNL1        0.0311
     26 C           1.6320    1.8817   21.6898 C.ar    1  UNL1        0.1557
     27 F           1.5320    2.8201   22.8557 F       1  UNL1       -0.2028
     28 C           3.1608   -1.6773   20.8258 C.ar    1  UNL1        0.0032
     29 C           3.2319   -2.6304   19.6697 C.ar    1  UNL1        0.0207
     30 C           3.9463   -3.9406   19.8207 C.ar    1  UNL1        0.0989
     31 N           4.5895   -4.2979   21.1278 N.ar    1  UNL1       -0.2423
     32 C           4.5184   -3.3449   22.2839 C.ar    1  UNL1        0.0989
     33 C           3.8040   -2.0345   22.1330 C.ar    1  UNL1        0.0207
@<TRIPOS>BOND
     1     1     2    1
     2     2     3   ar
     3     3     4   ar
     4     4     5   ar
     5     5     8    1
     6     8    10    1
     7    10    11   ar
     8    11    12   ar
     9    12    13   ar
    10    13    16    1
    11    16    17    3
    12    13    14   ar
    13    14    15   ar
    14     5     6   ar
    15     6     7   ar
    16     7    18    1
    17    18    20    1
    18    20    21   ar
    19    21    22    1
    20    21    23   ar
    21    23    24   ar
    22    24    28    1
    23    28    29   ar
    24    29    30   ar
    25    30    31   ar
    26    31    32   ar
    27    32    33   ar
    28    24    25   ar
    29    25    26   ar
    30    26    27    1
    31     7     2   ar
    32    26    20   ar
    33    15    10   ar
    34    33    28   ar
    35     8     9    1
    36    18    19    1
@<TRIPOS>MOLECULE
*****
 33 36 0 0 0
SMALL
GASTEIGER

@<TRIPOS>ATOM
      1 C          -0.6347    4.7196   17.6167 C.3     1  UNL1        0.0356
      2 C          -1.6316    4.1614   18.5887 C.ar    1  UNL1        0.0291
      3 C          -3.0952    4.1907   18.2618 C.ar    1  UNL1        0.1003
      4 N          -4.0920    3.6325   19.2338 N.ar    1  UNL1       -0.2123
      5 C          -3.6252    3.0450   20.5326 C.ar    1  UNL1        0.2218
      6 N          -2.1616    3.0157   20.8594 N.ar    1  UNL1       -0.1988
      7 C          -1.1648    3.5739   19.8875 C.ar    1  UNL1        0.1326
      8 N          -4.6221    2.4868   21.5046 N.pl3   1  UNL1       -0.2825
      9 H          -5.0807    1.6384   21.3067 H       1  UNL1        0.1551
     10 C          -4.9201    3.2212   22.7781 C.ar    1  UNL1        0.0505
     11 C          -3.9422    3.1790   23.9148 C.ar    1  UNL1        0.0154
     12 C          -4.2403    3.9134   25.1882 C.ar    1  UNL1        0.0115
     13 C          -5.5163    4.6900   25.3251 C.ar    1  UNL1        0.0685
     14 C          -6.4942    4.7323   24.1885 C.ar    1  UNL1        0.0115
     15 C          -6.1961    3.9979   22.9149 C.ar    1  UNL1        0.0154
     16 C          -5.8144    5.4244   26.5987 C.1     1  UNL1        0.1004
     17 N          -6.1124    6.1588   27.8722 N.1     1  UNL1       -0.1908
     18 N           0.2990    3.5446   20.2143 N.pl3   1  UNL1       -0.2946
     19 H           0.7923    4.3873   20.3396 H       1  UNL1        0.1537
     20 C           1.0109    2.2314   20.3503 C.ar    1  UNL1        0.1049
     21 C           1.6239    1.8429   21.6631 C.ar    1  UNL1        0.1557
     22 F           1.5248    2.7677   22.8399 F       1  UNL1       -0.2028
     23 C           2.3358    0.5297   21.7990 C.ar    1  UNL1        0.0311
     24 C           2.4349   -0.3950   20.6222 C.ar    1  UNL1        0.0047
     25 C           1.8220   -0.0066   19.3094 C.ar    1  UNL1        0.0311
     26 C           1.1100    1.3067   19.1734 C.ar    1  UNL1        0.1557
     27 F           0.4971    1.6951   17.8606 F       1  UNL1       -0.2028
     28 C           3.1469   -1.7083   20.7581 C.ar    1  UNL1        0.0032
     29 C           3.8536   -2.0495   22.0365 C.ar    1  UNL1        0.0207
     30 C           4.5656   -3.3627   22.1724 C.ar    1  UNL1        0.0989
     31 N           4.5709   -4.3347   21.0300 N.ar    1  UNL1       -0.2423
     32 C           3.8642   -3.9936   19.7517 C.ar    1  UNL1        0.0989
     33 C           3.1522   -2.6803   19.6157 C.ar    1  UNL1        0.0207
@<TRIPOS>BOND
     1     1     2    1
     2     2     3   ar
     3     3     4   ar
     4     4     5   ar
     5     5     8    1
     6     8    10    1
     7    10    11   ar
     8    11    12   ar
     9    12    13   ar
    10    13    16    1
    11    16    17    3
    12    13    14   ar
    13    14    15   ar
    14     5     6   ar
    15     6     7   ar
    16     7    18    1
    17    18    20    1
    18    20    21   ar
    19    21    22    1
    20    21    23   ar
    21    23    24   ar
    22    24    28    1
    23    28    29   ar
    24    29    30   ar
    25    30    31   ar
    26    31    32   ar
    27    32    33   ar
    28    24    25   ar
    29    25    26   ar
    30    26    27    1
    31     7     2   ar
    32    26    20   ar
    33    15    10   ar
    34    33    28   ar
    35     8     9    1
    36    18    19    1
@<TRIPOS>MOLECULE
*****
 33 36 0 0 0
SMALL
GASTEIGER

@<TRIPOS>ATOM
      1 C          -6.1627    3.6447   19.5681 C.3     1  UNL1        0.0356
      2 C          -4.6647    3.6192   19.6426 C.ar    1  UNL1        0.0291
      3 C          -3.8477    4.1247   18.4907 C.ar    1  UNL1        0.1003
      4 N          -2.3498    4.0992   18.5653 N.ar    1  UNL1       -0.2123
      5 C          -1.6689    3.5681   19.7918 C.ar    1  UNL1        0.2218
      6 N          -2.4859    3.0626   20.9437 N.ar    1  UNL1       -0.1988
      7 C          -3.9838    3.0881   20.8691 C.ar    1  UNL1        0.1326
      8 N          -0.1709    3.5426   19.8663 N.pl3   1  UNL1       -0.2825
      9 H           0.3327    4.3854   19.9402 H       1  UNL1        0.1551
     10 C           0.5597    2.2332   19.8284 C.ar    1  UNL1        0.0505
     11 C           0.8108    1.4773   21.0996 C.ar    1  UNL1        0.0154
     12 C           1.5414    0.1679   21.0616 C.ar    1  UNL1        0.0115
     13 C           2.0210   -0.3858   19.7526 C.ar    1  UNL1        0.0685
     14 C           1.7700    0.3700   18.4816 C.ar    1  UNL1        0.0115
     15 C           1.0393    1.6796   18.5194 C.ar    1  UNL1        0.0154
     16 C           2.7516   -1.6953   19.7148 C.1     1  UNL1        0.1004
     17 N           3.4822   -3.0048   19.6769 N.1     1  UNL1       -0.1908
     18 N          -4.8008    2.5825   22.0211 N.pl3   1  UNL1       -0.2946
     19 H          -5.2229    1.6944   21.9729 H       1  UNL1        0.1537
     20 C          -4.9745    3.4300   23.2464 C.ar    1  UNL1        0.1049
     21 C          -3.8450    3.5781   24.2223 C.ar    1  UNL1        0.1557
     22 F          -2.5418    2.8785   23.9728 F       1  UNL1       -0.2028
     23 C          -4.0188    4.4256   25.4477 C.ar    1  UNL1        0.0311
     24 C          -5.3220    5.1251   25.6971 C.ar    1  UNL1        0.0047
     25 C          -6.4515    4.9771   24.7213 C.ar    1  UNL1        0.0311
     26 C          -6.2778    4.1295   23.4959 C.ar    1  UNL1        0.1557
     27 F          -7.4073    3.9816   22.5200 F       1  UNL1       -0.2028
     28 C          -5.4958    5.9726   26.9225 C.ar    1  UNL1        0.0032
     29 C          -4.3001    6.5984   27.5773 C.ar    1  UNL1        0.0207
     30 C          -4.4738    7.4459   28.8026 C.ar    1  UNL1        0.0989
     31 N          -5.8432    7.6677   29.3732 N.ar    1  UNL1       -0.2423
     32 C          -7.0389    7.0419   28.7185 C.ar    1  UNL1        0.0989
     33 C          -6.8652    6.1943   27.4931 C.ar    1  UNL1        0.0207
@<TRIPOS>BOND
     1     1     2    1
     2     2     3   ar
     3     3     4   ar
     4     4     5   ar
     5     5     8    1
     6     8    10    1
     7    10    11   ar
     8    11    12   ar
     9    12    13   ar
    10    13    16    1
    11    16    17    3
    12    13    14   ar
    13    14    15   ar
    14     5     6   ar
    15     6     7   ar
    16     7    18    1
    17    18    20    1
    18    20    21   ar
    19    21    22    1
    20    21    23   ar
    21    23    24   ar
    22    24    28    1
    23    28    29   ar
    24    29    30   ar
    25    30    31   ar
    26    31    32   ar
    27    32    33   ar
    28    24    25   ar
    29    25    26   ar
    30    26    27    1
    31     7     2   ar
    32    26    20   ar
    33    15    10   ar
    34    33    28   ar
    35     8     9    1
    36    18    19    1
@<TRIPOS>MOLECULE
*****
 33 36 0 0 0
SMALL
GASTEIGER

@<TRIPOS>ATOM
      1 C           9.0705   -7.2484   23.0996 C.3     1  UNL1        0.0356
      2 C           8.2609   -6.8217   24.2881 C.ar    1  UNL1        0.0291
      3 C           7.7381   -7.8493   25.2475 C.ar    1  UNL1        0.1003
      4 N           6.9285   -7.4226   26.4360 N.ar    1  UNL1       -0.2123
      5 C           6.6417   -5.9683   26.6650 C.ar    1  UNL1        0.2218
      6 N           7.1645   -4.9406   25.7056 N.ar    1  UNL1       -0.1988
      7 C           7.9741   -5.3673   24.5171 C.ar    1  UNL1        0.1326
      8 N           5.8320   -5.5416   27.8535 N.pl3   1  UNL1       -0.2825
      9 H           4.8695   -5.7449   27.8921 H       1  UNL1        0.1551
     10 C           6.4888   -4.8051   28.9831 C.ar    1  UNL1        0.0505
     11 C           6.6504   -3.3154   28.9138 C.ar    1  UNL1        0.0154
     12 C           7.3072   -2.5789   30.0435 C.ar    1  UNL1        0.0115
     13 C           7.8025   -3.3320   31.2424 C.ar    1  UNL1        0.0685
     14 C           7.6410   -4.8216   31.3117 C.ar    1  UNL1        0.0115
     15 C           6.9842   -5.5582   30.1820 C.ar    1  UNL1        0.0154
     16 C           8.4594   -2.5954   32.3721 C.1     1  UNL1        0.1004
     17 N           9.1162   -1.8589   33.5017 N.1     1  UNL1       -0.1908
     18 N           8.4969   -4.3395   23.5577 N.pl3   1  UNL1       -0.2946
     19 H           9.4537   -4.1075   23.5580 H       1  UNL1        0.1537
     20 C           7.5620   -3.6654   22.5978 C.ar    1  UNL1        0.1049
     21 C           6.7191   -2.5124   23.0565 C.ar    1  UNL1        0.1557
     22 F           6.8112   -2.0337   24.4751 F       1  UNL1       -0.2028
     23 C           5.7842   -1.8383   22.0967 C.ar    1  UNL1        0.0311
     24 C           5.6921   -2.3169   20.6781 C.ar    1  UNL1        0.0047
     25 C           6.5349   -3.4698   20.2194 C.ar    1  UNL1        0.0311
     26 C           7.4699   -4.1441   21.1793 C.ar    1  UNL1        0.1557
     27 F           8.3127   -5.2969   20.7205 F       1  UNL1       -0.2028
     28 C           4.7572   -1.6428   19.7183 C.ar    1  UNL1        0.0032
     29 C           3.5222   -0.9608   20.2281 C.ar    1  UNL1        0.0207
     30 C           2.5873   -0.2866   19.2682 C.ar    1  UNL1        0.0989
     31 N           2.8872   -0.2944   17.7985 N.ar    1  UNL1       -0.2423
     32 C           4.1221   -0.9763   17.2887 C.ar    1  UNL1        0.0989
     33 C           5.0571   -1.6505   18.2486 C.ar    1  UNL1        0.0207
@<TRIPOS>BOND
     1     1     2    1
     2     2     3   ar
     3     3     4   ar
     4     4     5   ar
     5     5     8    1
     6     8    10    1
     7    10    11   ar
     8    11    12   ar
     9    12    13   ar
    10    13    16    1
    11    16    17    3
    12    13    14   ar
    13    14    15   ar
    14     5     6   ar
    15     6     7   ar
    16     7    18    1
    17    18    20    1
    18    20    21   ar
    19    21    22    1
    20    21    23   ar
    21    23    24   ar
    22    24    28    1
    23    28    29   ar
    24    29    30   ar
    25    30    31   ar
    26    31    32   ar
    27    32    33   ar
    28    24    25   ar
    29    25    26   ar
    30    26    27    1
    31     7     2   ar
    32    26    20   ar
    33    15    10   ar
    34    33    28   ar
    35     8     9    1
    36    18    19    1
@<TRIPOS>MOLECULE
*****
 33 36 0 0 0
SMALL
GASTEIGER

@<TRIPOS>ATOM
      1 C          -4.4233    4.3666   18.3973 C.3     1  UNL1        0.0356
      2 C          -3.1018    3.9882   18.9977 C.ar    1  UNL1        0.0291
      3 C          -1.8273    4.4636   18.3656 C.ar    1  UNL1        0.1003
      4 N          -0.5058    4.0852   18.9660 N.ar    1  UNL1       -0.2123
      5 C          -0.4589    3.2315   20.1985 C.ar    1  UNL1        0.2218
      6 N          -1.7334    2.7562   20.8305 N.ar    1  UNL1       -0.1988
      7 C          -3.0549    3.1346   20.2301 C.ar    1  UNL1        0.1326
      8 N           0.8626    2.8531   20.7989 N.pl3   1  UNL1       -0.2825
      9 H           1.3133    3.4665   21.4233 H       1  UNL1        0.1551
     10 C           1.4974    1.5402   20.4480 C.ar    1  UNL1        0.0505
     11 C           1.7440    0.5169   21.5167 C.ar    1  UNL1        0.0154
     12 C           2.3789   -0.7960   21.1658 C.ar    1  UNL1        0.0115
     13 C           2.7671   -1.0858   19.7462 C.ar    1  UNL1        0.0685
     14 C           2.5205   -0.0626   18.6775 C.ar    1  UNL1        0.0115
     15 C           1.8857    1.2505   19.0284 C.ar    1  UNL1        0.0154
     16 C           3.4019   -2.3988   19.3953 C.1     1  UNL1        0.1004
     17 N           4.0367   -3.7117   19.0445 N.1     1  UNL1       -0.1908
     18 N          -4.3295    2.6592   20.8622 N.pl3   1  UNL1       -0.2946
     19 H          -4.7391    1.8135   20.5685 H       1  UNL1        0.1537
     20 C          -4.9801    3.4724   21.9417 C.ar    1  UNL1        0.1049
     21 C          -6.3085    4.1232   21.6931 C.ar    1  UNL1        0.1557
     22 F          -6.9864    3.9607   20.3649 F       1  UNL1       -0.2028
     23 C          -6.9591    4.9364   22.7726 C.ar    1  UNL1        0.0311
     24 C          -6.2813    5.0988   24.1008 C.ar    1  UNL1        0.0047
     25 C          -4.9529    4.4481   24.3495 C.ar    1  UNL1        0.0311
     26 C          -4.3023    3.6349   23.2700 C.ar    1  UNL1        0.1557
     27 F          -2.9739    2.9841   23.5187 F       1  UNL1       -0.2028
     28 C          -6.9319    5.9120   25.1803 C.ar    1  UNL1        0.0032
     29 C          -8.0157    6.8893   24.8332 C.ar    1  UNL1        0.0207
     30 C          -8.6663    7.7025   25.9127 C.ar    1  UNL1        0.0989
     31 N          -8.2331    7.5385   27.3394 N.ar    1  UNL1       -0.2423
     32 C          -7.1493    6.5614   27.6866 C.ar    1  UNL1        0.0989
     33 C          -6.4987    5.7481   26.6070 C.ar    1  UNL1        0.0207
@<TRIPOS>BOND
     1     1     2    1
     2     2     3   ar
     3     3     4   ar
     4     4     5   ar
     5     5     8    1
     6     8    10    1
     7    10    11   ar
     8    11    12   ar
     9    12    13   ar
    10    13    16    1
    11    16    17    3
    12    13    14   ar
    13    14    15   ar
    14     5     6   ar
    15     6     7   ar
    16     7    18    1
    17    18    20    1
    18    20    21   ar
    19    21    22    1
    20    21    23   ar
    21    23    24   ar
    22    24    28    1
    23    28    29   ar
    24    29    30   ar
    25    30    31   ar
    26    31    32   ar
    27    32    33   ar
    28    24    25   ar
    29    25    26   ar
    30    26    27    1
    31     7     2   ar
    32    26    20   ar
    33    15    10   ar
    34    33    28   ar
    35     8     9    1
    36    18    19    1
@<TRIPOS>MOLECULE
*****
 33 36 0 0 0
SMALL
GASTEIGER

@<TRIPOS>ATOM
      1 C           8.9778   -1.9731   21.2171 C.3     1  UNL1        0.0356
      2 C           8.8034   -3.1423   22.1404 C.ar    1  UNL1        0.0291
      3 C           9.5204   -3.1714   23.4576 C.ar    1  UNL1        0.1003
      4 N           9.3460   -4.3406   24.3809 N.ar    1  UNL1       -0.2123
      5 C           8.4545   -5.4808   23.9870 C.ar    1  UNL1        0.2218
      6 N           7.7374   -5.4517   22.6699 N.ar    1  UNL1       -0.1988
      7 C           7.9119   -4.2825   21.7466 C.ar    1  UNL1        0.1326
      8 N           8.2800   -6.6500   24.9103 N.pl3   1  UNL1       -0.2825
      9 H           8.3767   -7.5674   24.5665 H       1  UNL1        0.1551
     10 C           7.9584   -6.4215   26.3575 C.ar    1  UNL1        0.0505
     11 C           8.8345   -7.0111   27.4228 C.ar    1  UNL1        0.0154
     12 C           8.5129   -6.7826   28.8699 C.ar    1  UNL1        0.0115
     13 C           7.3151   -5.9643   29.2518 C.ar    1  UNL1        0.0685
     14 C           6.4390   -5.3747   28.1867 C.ar    1  UNL1        0.0115
     15 C           6.7606   -5.6032   26.7394 C.ar    1  UNL1        0.0154
     16 C           6.9935   -5.7358   30.6991 C.1     1  UNL1        0.1004
     17 N           6.6720   -5.5072   32.1462 N.1     1  UNL1       -0.1908
     18 N           7.1948   -4.2535   20.4294 N.pl3   1  UNL1       -0.2946
     19 H           7.4878   -4.8418   19.6963 H       1  UNL1        0.1537
     20 C           6.0312   -3.3283   20.2291 C.ar    1  UNL1        0.1049
     21 C           4.9449   -3.2551   21.2609 C.ar    1  UNL1        0.1557
     22 F           5.0222   -4.1071   22.4930 F       1  UNL1       -0.2028
     23 C           3.7814   -2.3299   21.0606 C.ar    1  UNL1        0.0311
     24 C           3.7041   -1.4778   19.8285 C.ar    1  UNL1        0.0047
     25 C           4.7904   -1.5510   18.7967 C.ar    1  UNL1        0.0311
     26 C           5.9540   -2.4763   18.9970 C.ar    1  UNL1        0.1557
     27 F           7.0402   -2.5494   17.9652 F       1  UNL1       -0.2028
     28 C           2.5406   -0.5526   19.6282 C.ar    1  UNL1        0.0032
     29 C           1.3772   -0.5950   20.5742 C.ar    1  UNL1        0.0207
     30 C           0.2137    0.3302   20.3739 C.ar    1  UNL1        0.0989
     31 N           0.2135    1.2979   19.2277 N.ar    1  UNL1       -0.2423
     32 C           1.3769    1.3402   18.2818 C.ar    1  UNL1        0.0989
     33 C           2.5405    0.4150   18.4821 C.ar    1  UNL1        0.0207
@<TRIPOS>BOND
     1     1     2    1
     2     2     3   ar
     3     3     4   ar
     4     4     5   ar
     5     5     8    1
     6     8    10    1
     7    10    11   ar
     8    11    12   ar
     9    12    13   ar
    10    13    16    1
    11    16    17    3
    12    13    14   ar
    13    14    15   ar
    14     5     6   ar
    15     6     7   ar
    16     7    18    1
    17    18    20    1
    18    20    21   ar
    19    21    22    1
    20    21    23   ar
    21    23    24   ar
    22    24    28    1
    23    28    29   ar
    24    29    30   ar
    25    30    31   ar
    26    31    32   ar
    27    32    33   ar
    28    24    25   ar
    29    25    26   ar
    30    26    27    1
    31     7     2   ar
    32    26    20   ar
    33    15    10   ar
    34    33    28   ar
    35     8     9    1
    36    18    19    1
@<TRIPOS>MOLECULE
*****
 33 36 0 0 0
SMALL
GASTEIGER

@<TRIPOS>ATOM
      1 C           1.6989    4.4125   21.0760 C.3     1  UNL1        0.0356
      2 C           0.2593    3.9933   21.1165 C.ar    1  UNL1        0.0291
      3 C          -0.6315    4.4756   22.2227 C.ar    1  UNL1        0.1003
      4 N          -2.0712    4.0564   22.2631 N.ar    1  UNL1       -0.2123
      5 C          -2.6200    3.1548   21.1973 C.ar    1  UNL1        0.2218
      6 N          -1.7292    2.6725   20.0911 N.ar    1  UNL1       -0.1988
      7 C          -0.2895    3.0917   20.0507 C.ar    1  UNL1        0.1326
      8 N          -4.0597    2.7356   21.2378 N.pl3   1  UNL1       -0.2825
      9 H          -4.3704    1.9875   20.6783 H       1  UNL1        0.1551
     10 C          -5.0259    3.4561   22.1306 C.ar    1  UNL1        0.0505
     11 C          -6.1114    4.3018   21.5335 C.ar    1  UNL1        0.0154
     12 C          -7.0776    5.0224   22.4263 C.ar    1  UNL1        0.0115
     13 C          -6.9583    4.8973   23.9164 C.ar    1  UNL1        0.0685
     14 C          -5.8729    4.0516   24.5135 C.ar    1  UNL1        0.0115
     15 C          -4.9066    3.3310   23.6206 C.ar    1  UNL1        0.0154
     16 C          -7.9246    5.6179   24.8092 C.1     1  UNL1        0.1004
     17 N          -8.8908    6.3385   25.7021 N.1     1  UNL1       -0.1908
     18 N           0.6013    2.6094   18.9444 N.pl3   1  UNL1       -0.2946
     19 H           0.6169    3.0845   18.0823 H       1  UNL1        0.1537
     20 C           1.4683    1.4030   19.1517 C.ar    1  UNL1        0.1049
     21 C           0.9264    0.2050   19.8736 C.ar    1  UNL1        0.1557
     22 F          -0.4825    0.2133   20.3882 F       1  UNL1       -0.2028
     23 C           1.7935   -1.0014   20.0808 C.ar    1  UNL1        0.0311
     24 C           3.2024   -1.0097   19.5662 C.ar    1  UNL1        0.0047
     25 C           3.7443    0.1882   18.8443 C.ar    1  UNL1        0.0311
     26 C           2.8773    1.3947   18.6370 C.ar    1  UNL1        0.1557
     27 F           3.4192    2.5926   17.9151 F       1  UNL1       -0.2028
     28 C           4.0694   -2.2160   19.7734 C.ar    1  UNL1        0.0032
     29 C           5.1575   -2.1893   20.8057 C.ar    1  UNL1        0.0207
     30 C           6.0245   -3.3956   21.0130 C.ar    1  UNL1        0.0989
     31 N           5.8035   -4.6287   20.1879 N.ar    1  UNL1       -0.2423
     32 C           4.7156   -4.6555   19.1557 C.ar    1  UNL1        0.0989
     33 C           3.8485   -3.4492   18.9484 C.ar    1  UNL1        0.0207
@<TRIPOS>BOND
     1     1     2    1
     2     2     3   ar
     3     3     4   ar
     4     4     5   ar
     5     5     8    1
     6     8    10    1
     7    10    11   ar
     8    11    12   ar
     9    12    13   ar
    10    13    16    1
    11    16    17    3
    12    13    14   ar
    13    14    15   ar
    14     5     6   ar
    15     6     7   ar
    16     7    18    1
    17    18    20    1
    18    20    21   ar
    19    21    22    1
    20    21    23   ar
    21    23    24   ar
    22    24    28    1
    23    28    29   ar
    24    29    30   ar
    25    30    31   ar
    26    31    32   ar
    27    32    33   ar
    28    24    25   ar
    29    25    26   ar
    30    26    27    1
    31     7     2   ar
    32    26    20   ar
    33    15    10   ar
    34    33    28   ar
    35     8     9    1
    36    18    19    1
@<TRIPOS>MOLECULE
*****
 33 36 0 0 0
SMALL
GASTEIGER

@<TRIPOS>ATOM
      1 C           2.1617    5.2288   19.1779 C.3     1  UNL1        0.0356
      2 C           1.2031    4.8666   20.2733 C.ar    1  UNL1        0.0291
      3 C           1.0004    5.7984   21.4311 C.ar    1  UNL1        0.1003
      4 N           0.0418    5.4361   22.5265 N.ar    1  UNL1       -0.2123
      5 C          -0.7141    4.1420   22.4640 C.ar    1  UNL1        0.2218
      6 N          -0.5114    3.2102   21.3062 N.ar    1  UNL1       -0.1988
      7 C           0.4473    3.5725   20.2109 C.ar    1  UNL1        0.1326
      8 N          -1.6727    3.7797   23.5594 N.pl3   1  UNL1       -0.2825
      9 H          -2.6135    4.0644   23.5043 H       1  UNL1        0.1551
     10 C          -1.1979    2.9837   24.7387 C.ar    1  UNL1        0.0505
     11 C          -0.0652    2.0129   24.5814 C.ar    1  UNL1        0.0154
     12 C           0.4096    1.2169   25.7607 C.ar    1  UNL1        0.0115
     13 C          -0.2482    1.3916   27.0974 C.ar    1  UNL1        0.0685
     14 C          -1.3808    2.3623   27.2548 C.ar    1  UNL1        0.0115
     15 C          -1.8557    3.1584   26.0754 C.ar    1  UNL1        0.0154
     16 C           0.2267    0.5955   28.2768 C.1     1  UNL1        0.1004
     17 N           0.7016   -0.2005   29.4560 N.1     1  UNL1       -0.1908
     18 N           0.6500    2.6406   19.0530 N.pl3   1  UNL1       -0.2946
     19 H           0.2319    2.8374   18.1837 H       1  UNL1        0.1537
     20 C           1.4896    1.4089   19.2197 C.ar    1  UNL1        0.1049
     21 C           2.8844    1.3717   18.6689 C.ar    1  UNL1        0.1557
     22 F           3.4395    2.5664   17.9515 F       1  UNL1       -0.2028
     23 C           3.7240    0.1400   18.8356 C.ar    1  UNL1        0.0311
     24 C           3.1690   -1.0546   19.5531 C.ar    1  UNL1        0.0047
     25 C           1.7743   -1.0175   20.1038 C.ar    1  UNL1        0.0311
     26 C           0.9346    0.2142   19.9372 C.ar    1  UNL1        0.1557
     27 F          -0.4601    0.2513   20.4879 F       1  UNL1       -0.2028
     28 C           4.0086   -2.2863   19.7198 C.ar    1  UNL1        0.0032
     29 C           3.6410   -3.5482   18.9968 C.ar    1  UNL1        0.0207
     30 C           4.4806   -4.7799   19.1635 C.ar    1  UNL1        0.0989
     31 N           5.6879   -4.7499   20.0532 N.ar    1  UNL1       -0.2423
     32 C           6.0556   -3.4881   20.7761 C.ar    1  UNL1        0.0989
     33 C           5.2159   -2.2563   20.6094 C.ar    1  UNL1        0.0207
@<TRIPOS>BOND
     1     1     2    1
     2     2     3   ar
     3     3     4   ar
     4     4     5   ar
     5     5     8    1
     6     8    10    1
     7    10    11   ar
     8    11    12   ar
     9    12    13   ar
    10    13    16    1
    11    16    17    3
    12    13    14   ar
    13    14    15   ar
    14     5     6   ar
    15     6     7   ar
    16     7    18    1
    17    18    20    1
    18    20    21   ar
    19    21    22    1
    20    21    23   ar
    21    23    24   ar
    22    24    28    1
    23    28    29   ar
    24    29    30   ar
    25    30    31   ar
    26    31    32   ar
    27    32    33   ar
    28    24    25   ar
    29    25    26   ar
    30    26    27    1
    31     7     2   ar
    32    26    20   ar
    33    15    10   ar
    34    33    28   ar
    35     8     9    1
    36    18    19    1
@<TRIPOS>MOLECULE
*****
 33 36 0 0 0
SMALL
GASTEIGER

@<TRIPOS>ATOM
      1 C           3.0762    3.6003   18.2043 C.3     1  UNL1        0.0356
      2 C           1.8011    3.4305   18.9758 C.ar    1  UNL1        0.0291
      3 C           1.2162    4.5921   19.7231 C.ar    1  UNL1        0.1003
      4 N          -0.0590    4.4222   20.4945 N.ar    1  UNL1       -0.2123
      5 C          -0.7492    3.0908   20.5187 C.ar    1  UNL1        0.2218
      6 N          -0.1644    1.9291   19.7714 N.ar    1  UNL1       -0.1988
      7 C           1.1108    2.0990   18.9999 C.ar    1  UNL1        0.1326
      8 N          -2.0244    2.9209   21.2901 N.pl3   1  UNL1       -0.2825
      9 H          -2.0070    2.5138   22.1864 H       1  UNL1        0.1551
     10 C          -3.3260    3.3713   20.6962 C.ar    1  UNL1        0.0505
     11 C          -4.5471    3.4804   21.5606 C.ar    1  UNL1        0.0154
     12 C          -5.8487    3.9309   20.9666 C.ar    1  UNL1        0.0115
     13 C          -5.9293    4.2722   19.5082 C.ar    1  UNL1        0.0685
     14 C          -4.7083    4.1632   18.6438 C.ar    1  UNL1        0.0115
     15 C          -3.4066    3.7127   19.2378 C.ar    1  UNL1        0.0154
     16 C          -7.2310    4.7227   18.9142 C.1     1  UNL1        0.1004
     17 N          -8.5327    5.1732   18.3204 N.1     1  UNL1       -0.1908
     18 N           1.6957    0.9373   18.2526 N.pl3   1  UNL1       -0.2946
     19 H           1.4545    0.7866   17.3101 H       1  UNL1        0.1537
     20 C           2.6480    0.0053   18.9414 C.ar    1  UNL1        0.1049
     21 C           4.1023    0.0126   18.5739 C.ar    1  UNL1        0.1557
     22 F           4.6042    0.9520   17.5177 F       1  UNL1       -0.2028
     23 C           5.0546   -0.9194   19.2626 C.ar    1  UNL1        0.0311
     24 C           4.5527   -1.8588   20.3188 C.ar    1  UNL1        0.0047
     25 C           3.0984   -1.8662   20.6863 C.ar    1  UNL1        0.0311
     26 C           2.1460   -0.9341   19.9976 C.ar    1  UNL1        0.1557
     27 F           0.6918   -0.9415   20.3651 F       1  UNL1       -0.2028
     28 C           5.5050   -2.7908   21.0076 C.ar    1  UNL1        0.0032
     29 C           5.2702   -3.1818   22.4366 C.ar    1  UNL1        0.0207
     30 C           6.2225   -4.1138   23.1254 C.ar    1  UNL1        0.0989
     31 N           7.4096   -4.6549   22.3851 N.ar    1  UNL1       -0.2423
     32 C           7.6444   -4.2641   20.9561 C.ar    1  UNL1        0.0989
     33 C           6.6921   -3.3320   20.2673 C.ar    1  UNL1        0.0207
@<TRIPOS>BOND
     1     1     2    1
     2     2     3   ar
     3     3     4   ar
     4     4     5   ar
     5     5     8    1
     6     8    10    1
     7    10    11   ar
     8    11    12   ar
     9    12    13   ar
    10    13    16    1
    11    16    17    3
    12    13    14   ar
    13    14    15   ar
    14     5     6   ar
    15     6     7   ar
    16     7    18    1
    17    18    20    1
    18    20    21   ar
    19    21    22    1
    20    21    23   ar
    21    23    24   ar
    22    24    28    1
    23    28    29   ar
    24    29    30   ar
    25    30    31   ar
    26    31    32   ar
    27    32    33   ar
    28    24    25   ar
    29    25    26   ar
    30    26    27    1
    31     7     2   ar
    32    26    20   ar
    33    15    10   ar
    34    33    28   ar
    35     8     9    1
    36    18    19    1
