@<TRIPOS>MOLECULE
*****
 29 33 0 0 0
SMALL
GASTEIGER

@<TRIPOS>ATOM
      1 C          -7.1139  -19.1844   20.4857 C.ar    1  UNL1        0.1052
      2 C          -7.5263  -20.0101   19.3032 C.ar    1  UNL1        0.1199
      3 N          -8.9587  -20.0196   18.8581 N.ar    1  UNL1       -0.2194
      4 C          -9.9786  -19.2036   19.5954 C.ar    1  UNL1        0.2212
      5 N         -11.4526  -19.0159   19.3905 N.ar    1  UNL1       -0.1076
      6 N         -11.9513  -18.0742   20.4463 N.ar    1  UNL1       -0.0607
      7 N         -10.7853  -17.6800   21.3038 N.ar    1  UNL1       -0.2090
      8 C          -9.5662  -18.3780   20.7779 C.ar    1  UNL1        0.1994
      9 N          -8.1338  -18.3684   21.2231 N.ar    1  UNL1       -0.2225
     10 N          -3.2570  -19.0643   20.9051 N.ar    1  UNL1       -0.2468
     11 C          -4.4833  -19.0141   20.0427 C.ar    1  UNL1        0.0983
     12 C          -5.6815  -19.1749   20.9308 C.ar    1  UNL1        0.0588
     13 C          -5.1957  -19.3245   22.3421 C.ar    1  UNL1        0.1232
     14 N          -3.6973  -19.2562   22.3262 N.ar    1  UNL1       -0.1675
     15 C          -1.8394  -18.9439   20.4298 C.3     1  UNL1        0.1591
     16 O          -1.2504  -17.8677   18.1397 O.3     1  UNL1       -0.3799
     17 C          -1.4168  -17.7502   19.6258 C.3     1  UNL1        0.1635
     18 H          -0.9756  -17.0113   17.7764 H       1  UNL1        0.2105
     19 C         -10.8306  -16.7509   22.4806 C.3     1  UNL1        0.1572
     20 C          -9.5548  -16.2648   23.1019 C.ar    1  UNL1        0.0023
     21 C          -8.4991  -15.6286   22.2471 C.ar    1  UNL1       -0.0008
     22 C          -7.2233  -15.1425   22.8684 C.ar    1  UNL1        0.0188
     23 C          -7.0031  -15.2927   24.3446 C.ar    1  UNL1        0.0813
     24 N          -5.7273  -14.8066   24.9658 N.ar    1  UNL1       -0.2438
     25 C          -5.5072  -14.9567   26.4419 C.ar    1  UNL1        0.0988
     26 C          -6.5629  -15.5930   27.2968 C.ar    1  UNL1        0.0207
     27 C          -7.8387  -16.0790   26.6755 C.ar    1  UNL1        0.0031
     28 C          -8.0588  -15.9289   25.1994 C.ar    1  UNL1        0.0174
     29 C          -9.3347  -16.4150   24.5781 C.ar    1  UNL1       -0.0008
@<TRIPOS>BOND
     1    16    17    1
     2    17    15    1
     3    15    10    1
     4    10    11   ar
     5    11    12   ar
     6    12     1    1
     7     1     2   ar
     8     2     3   ar
     9     3     4   ar
    10     4     5   ar
    11     5     6   ar
    12     6     7   ar
    13     7    19    1
    14    19    20    1
    15    20    21   ar
    16    21    22   ar
    17    22    23   ar
    18    23    24   ar
    19    24    25   ar
    20    25    26   ar
    21    26    27   ar
    22    27    28   ar
    23    28    29   ar
    24     7     8   ar
    25     8     9   ar
    26    12    13   ar
    27    13    14   ar
    28    14    10   ar
    29     9     1   ar
    30     8     4   ar
    31    29    20   ar
    32    28    23   ar
    33    16    18    1
@<TRIPOS>MOLECULE
*****
 29 33 0 0 0
SMALL
GASTEIGER

@<TRIPOS>ATOM
      1 C          -9.4861  -18.0493   23.0125 C.ar    1  UNL1        0.1052
      2 C         -10.7228  -17.6023   22.2908 C.ar    1  UNL1        0.1199
      3 N         -10.9556  -18.0232   20.8700 N.ar    1  UNL1       -0.2194
      4 C          -9.9517  -18.8911   20.1709 C.ar    1  UNL1        0.2212
      5 N          -9.9105  -19.4607   18.7839 N.ar    1  UNL1       -0.1076
      6 N          -8.6482  -20.2598   18.6482 N.ar    1  UNL1       -0.0607
      7 N          -7.9094  -20.1840   19.9515 N.ar    1  UNL1       -0.2090
      8 C          -8.7150  -19.3381   20.8925 C.ar    1  UNL1        0.1994
      9 N          -8.4822  -18.9172   22.3133 N.ar    1  UNL1       -0.2225
     10 N          -8.5672  -16.3502   26.3791 N.ar    1  UNL1       -0.2468
     11 C          -8.5859  -16.3611   24.8792 C.ar    1  UNL1        0.0983
     12 C          -9.2534  -17.6283   24.4332 C.ar    1  UNL1        0.0588
     13 C          -9.6472  -18.4005   25.6574 C.ar    1  UNL1        0.1232
     14 N          -9.2231  -17.6106   26.8600 N.ar    1  UNL1       -0.1675
     15 C          -7.9934  -15.2687   27.2458 C.3     1  UNL1        0.1591
     16 O          -5.8190  -14.4880   26.0574 O.3     1  UNL1       -0.3799
     17 C          -6.5121  -15.0342   27.2704 C.3     1  UNL1        0.1635
     18 H          -4.8707  -14.3974   26.2403 H       1  UNL1        0.2105
     19 C          -6.5956  -20.8390   20.2596 C.3     1  UNL1        0.1572
     20 C          -5.4079  -20.0006   20.6290 C.ar    1  UNL1        0.0023
     21 C          -5.2048  -19.5737   22.0525 C.ar    1  UNL1       -0.0008
     22 C          -4.0172  -18.7353   22.4220 C.ar    1  UNL1        0.0188
     23 C          -3.0325  -18.3238   21.3678 C.ar    1  UNL1        0.0813
     24 N          -1.8448  -17.4854   21.7373 N.ar    1  UNL1       -0.2438
     25 C          -0.8602  -17.0740   20.6831 C.ar    1  UNL1        0.0988
     26 C          -1.0632  -17.5010   19.2596 C.ar    1  UNL1        0.0207
     27 C          -2.2509  -18.3394   18.8902 C.ar    1  UNL1        0.0031
     28 C          -3.2355  -18.7508   19.9443 C.ar    1  UNL1        0.0174
     29 C          -4.4233  -19.5892   19.5749 C.ar    1  UNL1       -0.0008
@<TRIPOS>BOND
     1    16    17    1
     2    17    15    1
     3    15    10    1
     4    10    11   ar
     5    11    12   ar
     6    12     1    1
     7     1     2   ar
     8     2     3   ar
     9     3     4   ar
    10     4     5   ar
    11     5     6   ar
    12     6     7   ar
    13     7    19    1
    14    19    20    1
    15    20    21   ar
    16    21    22   ar
    17    22    23   ar
    18    23    24   ar
    19    24    25   ar
    20    25    26   ar
    21    26    27   ar
    22    27    28   ar
    23    28    29   ar
    24     7     8   ar
    25     8     9   ar
    26    12    13   ar
    27    13    14   ar
    28    14    10   ar
    29     9     1   ar
    30     8     4   ar
    31    29    20   ar
    32    28    23   ar
    33    16    18    1
@<TRIPOS>MOLECULE
*****
 29 33 0 0 0
SMALL
GASTEIGER

@<TRIPOS>ATOM
      1 C          -6.5078  -19.6016   20.6604 C.ar    1  UNL1        0.1052
      2 C          -5.9076  -20.8704   20.1313 C.ar    1  UNL1        0.1199
      3 N          -4.4348  -21.1187   20.2711 N.ar    1  UNL1       -0.2194
      4 C          -3.5624  -20.0983   20.9400 C.ar    1  UNL1        0.2212
      5 N          -2.0893  -20.0664   21.2206 N.ar    1  UNL1       -0.1076
      6 N          -1.7790  -18.7778   21.9231 N.ar    1  UNL1       -0.0607
      7 N          -3.0605  -18.0134   22.0767 N.ar    1  UNL1       -0.2090
      8 C          -4.1627  -18.8295   21.4691 C.ar    1  UNL1        0.1994
      9 N          -5.6353  -18.5812   21.3293 N.ar    1  UNL1       -0.2225
     10 N         -10.2745  -18.7356   21.0169 N.ar    1  UNL1       -0.2468
     11 C          -8.8911  -18.8261   21.5896 C.ar    1  UNL1        0.0983
     12 C          -7.9804  -19.3534   20.5205 C.ar    1  UNL1        0.0588
     13 C          -8.8010  -19.5887   19.2871 C.ar    1  UNL1        0.1232
     14 N         -10.2189  -19.2070   19.5938 N.ar    1  UNL1       -0.1675
     15 C         -11.4986  -18.2578   21.7401 C.3     1  UNL1        0.1591
     16 O         -12.1180  -16.7650   19.7059 O.3     1  UNL1       -0.3799
     17 C         -12.4128  -17.2618   21.0902 C.3     1  UNL1        0.1635
     18 H         -12.8018  -16.1316   19.4373 H       1  UNL1        0.2105
     19 C          -3.2129  -16.6690   22.7242 C.3     1  UNL1        0.1572
     20 C          -4.1756  -16.4885   23.8604 C.ar    1  UNL1        0.0023
     21 C          -3.7632  -16.8483   25.2570 C.ar    1  UNL1       -0.0008
     22 C          -4.7258  -16.6679   26.3932 C.ar    1  UNL1        0.0188
     23 C          -6.1008  -16.1277   26.1327 C.ar    1  UNL1        0.0813
     24 N          -7.0633  -15.9473   27.2689 N.ar    1  UNL1       -0.2438
     25 C          -8.4382  -15.4072   27.0084 C.ar    1  UNL1        0.0988
     26 C          -8.8505  -15.0474   25.6118 C.ar    1  UNL1        0.0207
     27 C          -7.8880  -15.2278   24.4757 C.ar    1  UNL1        0.0031
     28 C          -6.5131  -15.7679   24.7361 C.ar    1  UNL1        0.0174
     29 C          -5.5504  -15.9484   23.5999 C.ar    1  UNL1       -0.0008
@<TRIPOS>BOND
     1    16    17    1
     2    17    15    1
     3    15    10    1
     4    10    11   ar
     5    11    12   ar
     6    12     1    1
     7     1     2   ar
     8     2     3   ar
     9     3     4   ar
    10     4     5   ar
    11     5     6   ar
    12     6     7   ar
    13     7    19    1
    14    19    20    1
    15    20    21   ar
    16    21    22   ar
    17    22    23   ar
    18    23    24   ar
    19    24    25   ar
    20    25    26   ar
    21    26    27   ar
    22    27    28   ar
    23    28    29   ar
    24     7     8   ar
    25     8     9   ar
    26    12    13   ar
    27    13    14   ar
    28    14    10   ar
    29     9     1   ar
    30     8     4   ar
    31    29    20   ar
    32    28    23   ar
    33    16    18    1
@<TRIPOS>MOLECULE
*****
 29 33 0 0 0
SMALL
GASTEIGER

@<TRIPOS>ATOM
      1 C         -11.2962   -3.8493   18.5262 C.ar    1  UNL1        0.1052
      2 C          -9.9983   -3.9465   19.2718 C.ar    1  UNL1        0.1199
      3 N          -9.2234   -5.2309   19.2644 N.ar    1  UNL1       -0.2194
      4 C          -9.7465   -6.4179   18.5114 C.ar    1  UNL1        0.2212
      5 N          -9.2072   -7.8051   18.3242 N.ar    1  UNL1       -0.1076
      6 N         -10.1718   -8.5652   17.4630 N.ar    1  UNL1       -0.0607
      7 N         -11.3073   -7.6478   17.1178 N.ar    1  UNL1       -0.2090
      8 C         -11.0444   -6.3208   17.7658 C.ar    1  UNL1        0.1994
      9 N         -11.8193   -5.0365   17.7732 N.ar    1  UNL1       -0.2225
     10 N         -13.9006   -0.9735   18.6364 N.ar    1  UNL1       -0.2468
     11 C         -13.5575   -2.4329   18.6857 C.ar    1  UNL1        0.0983
     12 C         -12.0710   -2.5649   18.5336 C.ar    1  UNL1        0.0588
     13 C         -11.4955   -1.1872   18.3903 C.ar    1  UNL1        0.1232
     14 N         -12.6262   -0.2036   18.4538 N.ar    1  UNL1       -0.1675
     15 C         -15.2765   -0.3870   18.7498 C.3     1  UNL1        0.1591
     16 O         -16.7194   -1.9398   20.2520 O.3     1  UNL1       -0.3799
     17 C         -16.0847   -0.6053   19.9944 C.3     1  UNL1        0.1635
     18 H         -17.2017   -1.9115   21.0931 H       1  UNL1        0.2105
     19 C         -12.4968   -7.9963   16.2730 C.3     1  UNL1        0.1572
     20 C         -13.8802   -7.6791   16.7584 C.ar    1  UNL1        0.0023
     21 C         -14.7340   -6.7029   16.0048 C.ar    1  UNL1       -0.0008
     22 C         -16.1174   -6.3857   16.4901 C.ar    1  UNL1        0.0188
     23 C         -16.6471   -7.0448   17.7292 C.ar    1  UNL1        0.0813
     24 N         -18.0304   -6.7276   18.2145 N.ar    1  UNL1       -0.2438
     25 C         -18.5600   -7.3866   19.4535 C.ar    1  UNL1        0.0988
     26 C         -17.7062   -8.3629   20.2072 C.ar    1  UNL1        0.0207
     27 C         -16.3229   -8.6801   19.7218 C.ar    1  UNL1        0.0031
     28 C         -15.7933   -8.0210   18.4828 C.ar    1  UNL1        0.0174
     29 C         -14.4098   -8.3382   17.9974 C.ar    1  UNL1       -0.0008
@<TRIPOS>BOND
     1    16    17    1
     2    17    15    1
     3    15    10    1
     4    10    11   ar
     5    11    12   ar
     6    12     1    1
     7     1     2   ar
     8     2     3   ar
     9     3     4   ar
    10     4     5   ar
    11     5     6   ar
    12     6     7   ar
    13     7    19    1
    14    19    20    1
    15    20    21   ar
    16    21    22   ar
    17    22    23   ar
    18    23    24   ar
    19    24    25   ar
    20    25    26   ar
    21    26    27   ar
    22    27    28   ar
    23    28    29   ar
    24     7     8   ar
    25     8     9   ar
    26    12    13   ar
    27    13    14   ar
    28    14    10   ar
    29     9     1   ar
    30     8     4   ar
    31    29    20   ar
    32    28    23   ar
    33    16    18    1
@<TRIPOS>MOLECULE
*****
 29 33 0 0 0
SMALL
GASTEIGER

@<TRIPOS>ATOM
      1 C           7.6750   -3.7644   21.2514 C.ar    1  UNL1        0.1052
      2 C           8.8603   -3.3620   20.4248 C.ar    1  UNL1        0.1199
      3 N           8.6577   -2.6536   19.1181 N.ar    1  UNL1       -0.2194
      4 C           7.2699   -2.3476   18.6382 C.ar    1  UNL1        0.2212
      5 N           6.7629   -1.6663   17.4018 N.ar    1  UNL1       -0.1076
      6 N           5.2643   -1.6476   17.4643 N.ar    1  UNL1       -0.0607
      7 N           4.8451   -2.3174   18.7394 N.ar    1  UNL1       -0.2090
      8 C           6.0847   -2.7500   19.4649 C.ar    1  UNL1        0.1994
      9 N           6.2872   -3.4584   20.7714 N.ar    1  UNL1       -0.2225
     10 N           7.7580   -5.0540   24.9114 N.ar    1  UNL1       -0.2468
     11 C           7.2986   -4.0658   23.8805 C.ar    1  UNL1        0.0983
     12 C           7.8777   -4.4727   22.5579 C.ar    1  UNL1        0.0588
     13 C           8.6950   -5.7123   22.7714 C.ar    1  UNL1        0.1232
     14 N           8.6210   -6.0716   24.2259 N.ar    1  UNL1       -0.1675
     15 C           7.4147   -5.0290   26.3713 C.3     1  UNL1        0.1591
     16 O           5.4209   -5.9019   27.7901 O.3     1  UNL1       -0.3799
     17 C           6.6567   -6.1696   26.9832 C.3     1  UNL1        0.1635
     18 H           5.0559   -6.7414   28.1107 H       1  UNL1        0.2105
     19 C           3.4342   -2.5191   19.2068 C.3     1  UNL1        0.1572
     20 C           2.8207   -1.5544   20.1780 C.ar    1  UNL1        0.0023
     21 C           1.7110   -0.6478   19.7348 C.ar    1  UNL1       -0.0008
     22 C           1.0975    0.3169   20.7059 C.ar    1  UNL1        0.0188
     23 C           1.5937    0.3748   22.1203 C.ar    1  UNL1        0.0813
     24 N           0.9802    1.3395   23.0914 N.ar    1  UNL1       -0.2438
     25 C           1.4764    1.3974   24.5057 C.ar    1  UNL1        0.0988
     26 C           2.5861    0.4907   24.9490 C.ar    1  UNL1        0.0207
     27 C           3.1996   -0.4739   23.9779 C.ar    1  UNL1        0.0031
     28 C           2.7034   -0.5318   22.5635 C.ar    1  UNL1        0.0174
     29 C           3.3169   -1.4965   21.5923 C.ar    1  UNL1       -0.0008
@<TRIPOS>BOND
     1    16    17    1
     2    17    15    1
     3    15    10    1
     4    10    11   ar
     5    11    12   ar
     6    12     1    1
     7     1     2   ar
     8     2     3   ar
     9     3     4   ar
    10     4     5   ar
    11     5     6   ar
    12     6     7   ar
    13     7    19    1
    14    19    20    1
    15    20    21   ar
    16    21    22   ar
    17    22    23   ar
    18    23    24   ar
    19    24    25   ar
    20    25    26   ar
    21    26    27   ar
    22    27    28   ar
    23    28    29   ar
    24     7     8   ar
    25     8     9   ar
    26    12    13   ar
    27    13    14   ar
    28    14    10   ar
    29     9     1   ar
    30     8     4   ar
    31    29    20   ar
    32    28    23   ar
    33    16    18    1
@<TRIPOS>MOLECULE
*****
 29 33 0 0 0
SMALL
GASTEIGER

@<TRIPOS>ATOM
      1 C          -5.3374  -16.8069   23.8743 C.ar    1  UNL1        0.1052
      2 C          -4.5827  -15.6279   24.4130 C.ar    1  UNL1        0.1199
      3 N          -5.1411  -14.8409   25.5615 N.ar    1  UNL1       -0.2194
      4 C          -6.4542  -15.2331   26.1712 C.ar    1  UNL1        0.2212
      5 N          -7.2486  -14.6520   27.3031 N.ar    1  UNL1       -0.1076
      6 N          -8.4944  -15.4719   27.4640 N.ar    1  UNL1       -0.0607
      7 N          -8.4699  -16.5597   26.4314 N.ar    1  UNL1       -0.2090
      8 C          -7.2090  -16.4121   25.6325 C.ar    1  UNL1        0.1994
      9 N          -6.6506  -17.1990   24.4841 N.ar    1  UNL1       -0.2225
     10 N          -3.2484  -18.4880   21.0680 N.ar    1  UNL1       -0.2468
     11 C          -3.3648  -17.5441   22.2280 C.ar    1  UNL1        0.0983
     12 C          -4.7790  -17.5938   22.7259 C.ar    1  UNL1        0.0588
     13 C          -5.5365  -18.5684   21.8737 C.ar    1  UNL1        0.1232
     14 N          -4.5906  -19.1211   20.8491 N.ar    1  UNL1       -0.1675
     15 C          -2.0077  -18.7525   20.2676 C.3     1  UNL1        0.1591
     16 O          -0.3371  -17.8221   18.5089 O.3     1  UNL1       -0.3799
     17 C          -1.7408  -17.9687   19.0169 C.3     1  UNL1        0.1635
     18 H          -0.3407  -17.2903   17.6977 H       1  UNL1        0.2105
     19 C          -9.5216  -17.6106   26.2328 C.3     1  UNL1        0.1572
     20 C          -9.8436  -18.0977   24.8510 C.ar    1  UNL1        0.0023
     21 C          -9.7879  -19.5642   24.5408 C.ar    1  UNL1       -0.0008
     22 C         -10.1099  -20.0513   23.1592 C.ar    1  UNL1        0.0188
     23 C         -10.4875  -19.0719   22.0876 C.ar    1  UNL1        0.0813
     24 N         -10.8095  -19.5590   20.7060 N.ar    1  UNL1       -0.2438
     25 C         -11.1871  -18.5796   19.6345 C.ar    1  UNL1        0.0988
     26 C         -11.2427  -17.1131   19.9447 C.ar    1  UNL1        0.0207
     27 C         -10.9208  -16.6260   21.3263 C.ar    1  UNL1        0.0031
     28 C         -10.5432  -17.6054   22.3978 C.ar    1  UNL1        0.0174
     29 C         -10.2212  -17.1183   23.7796 C.ar    1  UNL1       -0.0008
@<TRIPOS>BOND
     1    16    17    1
     2    17    15    1
     3    15    10    1
     4    10    11   ar
     5    11    12   ar
     6    12     1    1
     7     1     2   ar
     8     2     3   ar
     9     3     4   ar
    10     4     5   ar
    11     5     6   ar
    12     6     7   ar
    13     7    19    1
    14    19    20    1
    15    20    21   ar
    16    21    22   ar
    17    22    23   ar
    18    23    24   ar
    19    24    25   ar
    20    25    26   ar
    21    26    27   ar
    22    27    28   ar
    23    28    29   ar
    24     7     8   ar
    25     8     9   ar
    26    12    13   ar
    27    13    14   ar
    28    14    10   ar
    29     9     1   ar
    30     8     4   ar
    31    29    20   ar
    32    28    23   ar
    33    16    18    1
@<TRIPOS>MOLECULE
*****
 29 33 0 0 0
SMALL
GASTEIGER

@<TRIPOS>ATOM
      1 C           7.8980   -6.0749   26.4792 C.ar    1  UNL1        0.1052
      2 C           8.3863   -7.4526   26.1422 C.ar    1  UNL1        0.1199
      3 N           8.6476   -7.8271   24.7133 N.ar    1  UNL1       -0.2194
      4 C           8.4207   -6.8239   23.6216 C.ar    1  UNL1        0.2212
      5 N           8.5904   -6.9043   22.1334 N.ar    1  UNL1       -0.1076
      6 N           8.2071   -5.5763   21.5506 N.ar    1  UNL1       -0.0607
      7 N           7.8004   -4.6751   22.6788 N.ar    1  UNL1       -0.2090
      8 C           7.9324   -5.4462   23.9586 C.ar    1  UNL1        0.1994
      9 N           7.6711   -5.0717   25.3874 N.ar    1  UNL1       -0.2225
     10 N           7.0061   -4.4447   29.8868 N.ar    1  UNL1       -0.2468
     11 C           7.1134   -4.3807   28.3920 C.ar    1  UNL1        0.0983
     12 C           7.6367   -5.7006   27.9080 C.ar    1  UNL1        0.0588
     13 C           7.8529   -6.5802   29.1036 C.ar    1  UNL1        0.1232
     14 N           7.4631   -5.8040   30.3267 N.ar    1  UNL1       -0.1675
     15 C           6.5261   -3.3428   30.7843 C.3     1  UNL1        0.1591
     16 O           6.2118   -5.0167   32.7462 O.3     1  UNL1       -0.3799
     17 C           6.3081   -3.6063   32.2447 C.3     1  UNL1        0.1635
     18 H           6.0715   -5.0098   33.7059 H       1  UNL1        0.2105
     19 C           7.3422   -3.2527   22.5496 C.3     1  UNL1        0.1572
     20 C           6.9184   -2.7197   21.2130 C.ar    1  UNL1        0.0023
     21 C           7.8898   -2.7026   20.0701 C.ar    1  UNL1       -0.0008
     22 C           7.4661   -2.1696   18.7336 C.ar    1  UNL1        0.0188
     23 C           6.0709   -1.6537   18.5399 C.ar    1  UNL1        0.0813
     24 N           5.6472   -1.1207   17.2034 N.ar    1  UNL1       -0.2438
     25 C           4.2521   -0.6048   17.0097 C.ar    1  UNL1        0.0988
     26 C           3.2808   -0.6219   18.1526 C.ar    1  UNL1        0.0207
     27 C           3.7045   -1.1549   19.4891 C.ar    1  UNL1        0.0031
     28 C           5.0996   -1.6708   19.6828 C.ar    1  UNL1        0.0174
     29 C           5.5234   -2.2038   21.0194 C.ar    1  UNL1       -0.0008
@<TRIPOS>BOND
     1    16    17    1
     2    17    15    1
     3    15    10    1
     4    10    11   ar
     5    11    12   ar
     6    12     1    1
     7     1     2   ar
     8     2     3   ar
     9     3     4   ar
    10     4     5   ar
    11     5     6   ar
    12     6     7   ar
    13     7    19    1
    14    19    20    1
    15    20    21   ar
    16    21    22   ar
    17    22    23   ar
    18    23    24   ar
    19    24    25   ar
    20    25    26   ar
    21    26    27   ar
    22    27    28   ar
    23    28    29   ar
    24     7     8   ar
    25     8     9   ar
    26    12    13   ar
    27    13    14   ar
    28    14    10   ar
    29     9     1   ar
    30     8     4   ar
    31    29    20   ar
    32    28    23   ar
    33    16    18    1
@<TRIPOS>MOLECULE
*****
 29 33 0 0 0
SMALL
GASTEIGER

@<TRIPOS>ATOM
      1 C           4.7624   -2.0473   24.1883 C.ar    1  UNL1        0.1052
      2 C           6.1059   -2.5457   24.6316 C.ar    1  UNL1        0.1199
      3 N           6.9352   -3.3885   23.7086 N.ar    1  UNL1       -0.2194
      4 C           6.4209   -3.7330   22.3423 C.ar    1  UNL1        0.2212
      5 N           7.0091   -4.5389   21.2223 N.ar    1  UNL1       -0.1076
      6 N           6.0290   -4.5387   20.0867 N.ar    1  UNL1       -0.0607
      7 N           4.8351   -3.7326   20.5049 N.ar    1  UNL1       -0.2090
      8 C           5.0774   -3.2347   21.8990 C.ar    1  UNL1        0.1994
      9 N           4.2481   -2.3918   22.8220 N.ar    1  UNL1       -0.2225
     10 N           2.9141   -0.2975   27.1187 N.ar    1  UNL1       -0.2468
     11 C           3.8616   -1.3401   26.6035 C.ar    1  UNL1        0.0983
     12 C           3.9331   -1.2045   25.1113 C.ar    1  UNL1        0.0588
     13 C           3.0299   -0.0782   24.7043 C.ar    1  UNL1        0.1232
     14 N           2.4001    0.4824   25.9449 N.ar    1  UNL1       -0.1675
     15 C           2.5454   -0.0741   28.5554 C.3     1  UNL1        0.1591
     16 O           0.0135   -0.2426   27.9980 O.3     1  UNL1       -0.3799
     17 C           1.1264   -0.2623   29.0035 C.3     1  UNL1        0.1635
     18 H          -0.8337   -0.3778   28.4507 H       1  UNL1        0.2105
     19 C           3.6135   -3.4705   19.6749 C.3     1  UNL1        0.1572
     20 C           3.2101   -2.0608   19.3584 C.ar    1  UNL1        0.0023
     21 C           3.9529   -1.2853   18.3111 C.ar    1  UNL1       -0.0008
     22 C           3.5495    0.1243   17.9947 C.ar    1  UNL1        0.0188
     23 C           2.4033    0.7585   18.7255 C.ar    1  UNL1        0.0813
     24 N           1.9999    2.1682   18.4091 N.ar    1  UNL1       -0.2438
     25 C           0.8538    2.8023   19.1399 C.ar    1  UNL1        0.0988
     26 C           0.1110    2.0268   20.1872 C.ar    1  UNL1        0.0207
     27 C           0.5144    0.6171   20.5037 C.ar    1  UNL1        0.0031
     28 C           1.6605   -0.0170   19.7728 C.ar    1  UNL1        0.0174
     29 C           2.0640   -1.4267   20.0893 C.ar    1  UNL1       -0.0008
@<TRIPOS>BOND
     1    16    17    1
     2    17    15    1
     3    15    10    1
     4    10    11   ar
     5    11    12   ar
     6    12     1    1
     7     1     2   ar
     8     2     3   ar
     9     3     4   ar
    10     4     5   ar
    11     5     6   ar
    12     6     7   ar
    13     7    19    1
    14    19    20    1
    15    20    21   ar
    16    21    22   ar
    17    22    23   ar
    18    23    24   ar
    19    24    25   ar
    20    25    26   ar
    21    26    27   ar
    22    27    28   ar
    23    28    29   ar
    24     7     8   ar
    25     8     9   ar
    26    12    13   ar
    27    13    14   ar
    28    14    10   ar
    29     9     1   ar
    30     8     4   ar
    31    29    20   ar
    32    28    23   ar
    33    16    18    1
@<TRIPOS>MOLECULE
*****
 29 33 0 0 0
SMALL
GASTEIGER

@<TRIPOS>ATOM
      1 C           7.4902   -5.8971   28.1574 C.ar    1  UNL1        0.1052
      2 C           7.7479   -7.3746   28.1360 C.ar    1  UNL1        0.1199
      3 N           8.0740   -8.0605   26.8424 N.ar    1  UNL1       -0.2194
      4 C           8.1423   -7.2688   25.5703 C.ar    1  UNL1        0.2212
      5 N           8.4384   -7.6672   24.1548 N.ar    1  UNL1       -0.1076
      6 N           8.3638   -6.4359   23.3013 N.ar    1  UNL1       -0.0607
      7 N           8.0214   -5.2764   24.1894 N.ar    1  UNL1       -0.2090
      8 C           7.8845   -5.7912   25.5916 C.ar    1  UNL1        0.1994
      9 N           7.5585   -5.1054   26.8852 N.ar    1  UNL1       -0.2225
     10 N           6.5007   -3.5265   31.0671 N.ar    1  UNL1       -0.2468
     11 C           6.7109   -3.7898   29.6054 C.ar    1  UNL1        0.0983
     12 C           7.1642   -5.2113   29.4510 C.ar    1  UNL1        0.0588
     13 C           7.2342   -5.8266   30.8171 C.ar    1  UNL1        0.1232
     14 N           6.8241   -4.7854   31.8161 N.ar    1  UNL1       -0.1675
     15 C           6.0469   -2.2318   31.6735 C.3     1  UNL1        0.1591
     16 O           4.3886   -3.5078   33.2136 O.3     1  UNL1       -0.3799
     17 C           4.9056   -2.2188   32.6468 C.3     1  UNL1        0.1635
     18 H           3.6557   -3.3228   33.8215 H       1  UNL1        0.2105
     19 C           7.8467   -3.8523   23.7519 C.3     1  UNL1        0.1572
     20 C           6.7618   -3.4941   22.7798 C.ar    1  UNL1        0.0023
     21 C           5.3369   -3.4154   23.2417 C.ar    1  UNL1       -0.0008
     22 C           4.2521   -3.0572   22.2697 C.ar    1  UNL1        0.0188
     23 C           4.5922   -2.7776   20.8357 C.ar    1  UNL1        0.0813
     24 N           3.5075   -2.4193   19.8637 N.ar    1  UNL1       -0.2438
     25 C           3.8476   -2.1397   18.4298 C.ar    1  UNL1        0.0988
     26 C           5.2726   -2.2183   17.9680 C.ar    1  UNL1        0.0207
     27 C           6.3574   -2.5766   18.9400 C.ar    1  UNL1        0.0031
     28 C           6.0172   -2.8562   20.3739 C.ar    1  UNL1        0.0174
     29 C           7.1020   -3.2144   21.3460 C.ar    1  UNL1       -0.0008
@<TRIPOS>BOND
     1    16    17    1
     2    17    15    1
     3    15    10    1
     4    10    11   ar
     5    11    12   ar
     6    12     1    1
     7     1     2   ar
     8     2     3   ar
     9     3     4   ar
    10     4     5   ar
    11     5     6   ar
    12     6     7   ar
    13     7    19    1
    14    19    20    1
    15    20    21   ar
    16    21    22   ar
    17    22    23   ar
    18    23    24   ar
    19    24    25   ar
    20    25    26   ar
    21    26    27   ar
    22    27    28   ar
    23    28    29   ar
    24     7     8   ar
    25     8     9   ar
    26    12    13   ar
    27    13    14   ar
    28    14    10   ar
    29     9     1   ar
    30     8     4   ar
    31    29    20   ar
    32    28    23   ar
    33    16    18    1
