@<TRIPOS>MOLECULE
*****
 39 42 0 0 0
SMALL
GASTEIGER

@<TRIPOS>ATOM
      1 C           2.1239   -0.2443   19.4309 C.3     1  UNL1        0.1532
      2 N           4.3781    0.9048   18.8404 N.am    1  UNL1       -0.2945
      3 C           3.2176    0.0408   18.4446 C.2     1  UNL1        0.2413
      4 O           3.1506   -0.5381   17.0624 O.2     1  UNL1       -0.2733
      5 H           4.4220    1.2848   19.7476 H       1  UNL1        0.1503
      6 C           5.4716    1.1898   17.8541 C.3     1  UNL1        0.1365
      7 C           6.3741    1.9552   16.9323 C.3     1  UNL1        0.0353
      8 C           5.3013    2.6719   17.6976 C.3     1  UNL1        0.0353
      9 N           6.5717   -1.5763   17.4820 N.1     1  UNL1       -0.1943
     10 C           6.0216   -0.1932   17.6680 C.1     1  UNL1        0.0896
     11 N           0.8324    0.5152   19.3590 N.am    1  UNL1       -0.2932
     12 C           0.7348    1.8872   19.9575 C.2     1  UNL1        0.2673
     13 O           1.9287    2.4997   20.6278 O.2     1  UNL1       -0.2684
     14 H           0.0488    0.1132   18.9190 H       1  UNL1        0.1502
     15 C          -0.5567    2.6467   19.8856 C.ar    1  UNL1        0.1767
     16 C          -0.9351    3.6448   18.8318 C.ar    1  UNL1        0.1476
     17 N          -2.3089    4.1564   19.1497 N.ar    1  UNL1       -0.1446
     18 N          -2.7795    3.4743   20.4001 N.ar    1  UNL1       -0.1477
     19 N          -1.6967    2.5413   20.8549 N.ar    1  UNL1       -0.1417
     20 C          -4.1010    3.6879   21.0768 C.ar    1  UNL1        0.1030
     21 C          -4.2563    3.3733   22.5352 C.ar    1  UNL1        0.0232
     22 C          -5.5778    3.5868   23.2120 C.ar    1  UNL1        0.0312
     23 C          -6.7441    4.1149   22.4303 C.ar    1  UNL1        0.1402
     24 F          -8.0657    4.3284   23.1071 F       1  UNL1       -0.2042
     25 C          -6.5888    4.4294   20.9719 C.ar    1  UNL1        0.0312
     26 C          -5.2673    4.2159   20.2952 C.ar    1  UNL1        0.0232
     27 C           2.3219   -1.2888   20.4891 C.3     1  UNL1        0.0553
     28 C           3.5400   -2.1638   20.4607 C.ar    1  UNL1       -0.0190
     29 C           4.7121   -1.8464   21.3412 C.ar    1  UNL1       -0.0010
     30 C           5.9301   -2.7213   21.3128 C.ar    1  UNL1        0.0377
     31 C           5.9759   -3.9138   20.4039 C.ar    1  UNL1        0.1572
     32 C           4.8038   -4.2312   19.5235 C.ar    1  UNL1        0.0915
     33 CL          4.8496   -5.4236   18.6146 Cl      1  UNL1       -0.0791
     34 C           3.5858   -3.3562   19.5519 C.ar    1  UNL1        0.0103
     35 O           7.1940   -4.7888   20.3755 O.3     1  UNL1       -0.4036
     36 C           8.3650   -4.4731   21.2582 C.3     1  UNL1        0.5753
     37 F           9.5360   -4.1574   22.1409 F       1  UNL1       -0.1328
     38 F           7.6754   -5.1397   22.4114 F       1  UNL1       -0.1328
     39 F           9.0545   -3.8064   20.1050 F       1  UNL1       -0.1328
@<TRIPOS>BOND
     1     9    10    3
     2    10     6    1
     3     6     2    1
     4     2     3   am
     5     3     4    2
     6     3     1    1
     7     1    27    1
     8    27    28    1
     9    28    29   ar
    10    29    30   ar
    11    30    31   ar
    12    31    35    1
    13    35    36    1
    14    36    37    1
    15    36    38    1
    16    36    39    1
    17    31    32   ar
    18    32    33    1
    19    32    34   ar
    20     1    11    1
    21    11    12   am
    22    12    13    2
    23    12    15    1
    24    15    16   ar
    25    16    17   ar
    26    17    18   ar
    27    18    20    1
    28    20    21   ar
    29    21    22   ar
    30    22    23   ar
    31    23    24    1
    32    23    25   ar
    33    25    26   ar
    34    18    19   ar
    35     6     7    1
    36     7     8    1
    37     8     6    1
    38    34    28   ar
    39    19    15   ar
    40    26    20   ar
    41     2     5    1
    42    11    14    1
@<TRIPOS>MOLECULE
*****
 39 42 0 0 0
SMALL
GASTEIGER

@<TRIPOS>ATOM
      1 C           6.1971    0.4192   34.1801 C.3     1  UNL1        0.1532
      2 N           3.6957    0.6456   33.5152 N.am    1  UNL1       -0.2945
      3 C           5.0794    1.2209   33.5815 C.2     1  UNL1        0.2413
      4 O           5.3454    2.5979   33.0493 O.2     1  UNL1       -0.2733
      5 H           3.5211   -0.2582   33.8645 H       1  UNL1        0.1503
      6 C           2.5781    1.4472   32.9167 C.3     1  UNL1        0.1365
      7 C           1.5783    1.9421   31.9139 C.3     1  UNL1        0.0353
      8 C           2.5293    0.8424   31.5448 C.3     1  UNL1        0.0353
      9 N           1.8992    3.2137   35.2445 N.1     1  UNL1       -0.1943
     10 C           2.2387    2.3304   34.0805 C.1     1  UNL1        0.0896
     11 N           6.9679   -0.5454   33.3283 N.am    1  UNL1       -0.2932
     12 C           6.3405   -1.8412   32.9074 C.2     1  UNL1        0.2673
     13 O           4.9424   -2.1725   33.3381 O.2     1  UNL1       -0.2684
     14 H           7.8855   -0.3280   33.0456 H       1  UNL1        0.1502
     15 C           7.1113   -2.8059   32.0556 C.ar    1  UNL1        0.1767
     16 C           8.5581   -3.1660   32.2200 C.ar    1  UNL1        0.1476
     17 N           8.9116   -4.1624   31.1560 N.ar    1  UNL1       -0.1446
     18 N           7.6832   -4.4181   30.3339 N.ar    1  UNL1       -0.1477
     19 N           6.5705   -3.5797   30.8899 N.ar    1  UNL1       -0.1417
     20 C           7.5848   -5.3487   29.1617 C.ar    1  UNL1        0.1030
     21 C           6.6814   -5.0138   28.0119 C.ar    1  UNL1        0.0232
     22 C           6.5830   -5.9445   26.8397 C.ar    1  UNL1        0.0312
     23 C           7.3878   -7.2100   26.8172 C.ar    1  UNL1        0.1402
     24 F           7.2894   -8.1408   25.6449 F       1  UNL1       -0.2042
     25 C           8.2911   -7.5450   27.9669 C.ar    1  UNL1        0.0312
     26 C           8.3896   -6.6143   29.1392 C.ar    1  UNL1        0.0232
     27 C           6.5439    0.5822   35.6302 C.3     1  UNL1        0.0553
     28 C           5.5119    1.0837   36.5965 C.ar    1  UNL1       -0.0190
     29 C           4.3062    0.2472   36.9072 C.ar    1  UNL1       -0.0010
     30 C           3.2743    0.7487   37.8734 C.ar    1  UNL1        0.0377
     31 C           3.4481    2.0866   38.5290 C.ar    1  UNL1        0.1572
     32 C           4.6538    2.9231   38.2183 C.ar    1  UNL1        0.0915
     33 CL          4.8276    4.2610   38.8738 Cl      1  UNL1       -0.0791
     34 C           5.6857    2.4216   37.2520 C.ar    1  UNL1        0.0103
     35 O           2.4161    2.5881   39.4952 O.3     1  UNL1       -0.4036
     36 C           0.9692    2.2504   39.2894 C.3     1  UNL1        0.5753
     37 F          -0.4778    1.9127   39.0837 F       1  UNL1       -0.1328
     38 F           1.0608    1.2050   40.3612 F       1  UNL1       -0.1328
     39 F           0.8777    3.2958   38.2177 F       1  UNL1       -0.1328
@<TRIPOS>BOND
     1     9    10    3
     2    10     6    1
     3     6     2    1
     4     2     3   am
     5     3     4    2
     6     3     1    1
     7     1    27    1
     8    27    28    1
     9    28    29   ar
    10    29    30   ar
    11    30    31   ar
    12    31    35    1
    13    35    36    1
    14    36    37    1
    15    36    38    1
    16    36    39    1
    17    31    32   ar
    18    32    33    1
    19    32    34   ar
    20     1    11    1
    21    11    12   am
    22    12    13    2
    23    12    15    1
    24    15    16   ar
    25    16    17   ar
    26    17    18   ar
    27    18    20    1
    28    20    21   ar
    29    21    22   ar
    30    22    23   ar
    31    23    24    1
    32    23    25   ar
    33    25    26   ar
    34    18    19   ar
    35     6     7    1
    36     7     8    1
    37     8     6    1
    38    34    28   ar
    39    19    15   ar
    40    26    20   ar
    41     2     5    1
    42    11    14    1
@<TRIPOS>MOLECULE
*****
 39 42 0 0 0
SMALL
GASTEIGER

@<TRIPOS>ATOM
      1 C         -13.4486   -3.8406   19.3903 C.3     1  UNL1        0.1532
      2 N         -11.0740   -3.4939   18.3948 N.am    1  UNL1       -0.2945
      3 C         -12.5622   -3.5505   18.2155 C.2     1  UNL1        0.2413
      4 O         -13.1639   -3.3171   16.8615 O.2     1  UNL1       -0.2733
      5 H         -10.6791   -3.6472   19.2835 H       1  UNL1        0.1503
      6 C         -10.1876   -3.2039   17.2200 C.3     1  UNL1        0.1365
      7 C          -9.2057   -3.4221   16.1073 C.3     1  UNL1        0.0353
      8 C          -9.6048   -4.5669   16.9907 C.3     1  UNL1        0.0353
      9 N         -10.7375   -0.2764   16.8626 N.1     1  UNL1       -0.1943
     10 C         -10.4626   -1.7402   17.0413 C.1     1  UNL1        0.0896
     11 N         -14.3495   -2.7707   19.9323 N.am    1  UNL1       -0.2932
     12 C         -15.6998   -2.5454   19.3190 C.2     1  UNL1        0.2673
     13 O         -16.1491   -3.3900   18.1637 O.2     1  UNL1       -0.2684
     14 H         -14.0546   -2.2164   20.6906 H       1  UNL1        0.1502
     15 C         -16.6007   -1.4756   19.8610 C.ar    1  UNL1        0.1767
     16 C         -18.0943   -1.5544   19.9741 C.ar    1  UNL1        0.1476
     17 N         -18.5828   -0.2666   20.5680 N.ar    1  UNL1       -0.1446
     18 N         -17.3911    0.6083   20.8220 N.ar    1  UNL1       -0.1477
     19 N         -16.1660   -0.1389   20.3850 N.ar    1  UNL1       -0.1417
     20 C         -17.4194    1.9880   21.4097 C.ar    1  UNL1        0.1030
     21 C         -17.2907    2.1744   22.8925 C.ar    1  UNL1        0.0232
     22 C         -17.3191    3.5542   23.4802 C.ar    1  UNL1        0.0312
     23 C         -17.4761    4.7476   22.5852 C.ar    1  UNL1        0.1402
     24 F         -17.5044    6.1274   23.1729 F       1  UNL1       -0.2042
     25 C         -17.6048    4.5612   21.1023 C.ar    1  UNL1        0.0312
     26 C         -17.5765    3.1814   20.5146 C.ar    1  UNL1        0.0232
     27 C         -13.4342   -5.2005   20.0231 C.3     1  UNL1        0.0553
     28 C         -14.2549   -6.3100   19.4353 C.ar    1  UNL1       -0.0190
     29 C         -13.6135   -7.3178   18.5282 C.ar    1  UNL1       -0.0010
     30 C         -14.4342   -8.4273   17.9404 C.ar    1  UNL1        0.0377
     31 C         -15.8963   -8.5289   18.2597 C.ar    1  UNL1        0.1572
     32 C         -16.5377   -7.5211   19.1668 C.ar    1  UNL1        0.0915
     33 CL        -17.9998   -7.6227   19.4861 Cl      1  UNL1       -0.0791
     34 C         -15.7170   -6.4116   19.7546 C.ar    1  UNL1        0.0103
     35 O         -16.7170   -9.6384   17.6718 O.3     1  UNL1       -0.4036
     36 C         -16.7968  -10.9634   18.3703 C.3     1  UNL1        0.5753
     37 F         -16.8766  -12.2885   19.0688 F       1  UNL1       -0.1328
     38 F         -15.4090  -11.2920   17.9057 F       1  UNL1       -0.1328
     39 F         -18.1847  -10.6349   18.8350 F       1  UNL1       -0.1328
@<TRIPOS>BOND
     1     9    10    3
     2    10     6    1
     3     6     2    1
     4     2     3   am
     5     3     4    2
     6     3     1    1
     7     1    27    1
     8    27    28    1
     9    28    29   ar
    10    29    30   ar
    11    30    31   ar
    12    31    35    1
    13    35    36    1
    14    36    37    1
    15    36    38    1
    16    36    39    1
    17    31    32   ar
    18    32    33    1
    19    32    34   ar
    20     1    11    1
    21    11    12   am
    22    12    13    2
    23    12    15    1
    24    15    16   ar
    25    16    17   ar
    26    17    18   ar
    27    18    20    1
    28    20    21   ar
    29    21    22   ar
    30    22    23   ar
    31    23    24    1
    32    23    25   ar
    33    25    26   ar
    34    18    19   ar
    35     6     7    1
    36     7     8    1
    37     8     6    1
    38    34    28   ar
    39    19    15   ar
    40    26    20   ar
    41     2     5    1
    42    11    14    1
@<TRIPOS>MOLECULE
*****
 39 42 0 0 0
SMALL
GASTEIGER

@<TRIPOS>ATOM
      1 C           6.2515   -0.1695   32.0641 C.3     1  UNL1        0.1532
      2 N           3.6679    0.0898   31.9733 N.am    1  UNL1       -0.2945
      3 C           5.0364    0.5780   31.6005 C.2     1  UNL1        0.2413
      4 O           5.1898    1.8138   30.7642 O.2     1  UNL1       -0.2733
      5 H           3.5673   -0.7213   32.5222 H       1  UNL1        0.1503
      6 C           2.4529    0.8373   31.5097 C.3     1  UNL1        0.1365
      7 C           1.3213    1.8218   31.5024 C.3     1  UNL1        0.0353
      8 C           2.2710    1.7793   32.6628 C.3     1  UNL1        0.0353
      9 N           1.9729   -0.5275   28.8816 N.1     1  UNL1       -0.1943
     10 C           2.2129    0.1549   30.1957 C.1     1  UNL1        0.0896
     11 N           6.7115   -1.3881   31.3202 N.am    1  UNL1       -0.2932
     12 C           6.0866   -2.7215   31.6058 C.2     1  UNL1        0.2673
     13 O           5.0017   -2.8363   32.6353 O.2     1  UNL1       -0.2684
     14 H           7.4235   -1.3127   30.6445 H       1  UNL1        0.1502
     15 C           6.5466   -3.9401   30.8619 C.ar    1  UNL1        0.1767
     16 C           6.9594   -5.2447   31.4764 C.ar    1  UNL1        0.1476
     17 N           7.3425   -6.1790   30.3671 N.ar    1  UNL1       -0.1446
     18 N           7.1665   -5.4518   29.0671 N.ar    1  UNL1       -0.1477
     19 N           6.6746   -4.0680   29.3728 N.ar    1  UNL1       -0.1417
     20 C           7.4351   -6.0102   27.7011 C.ar    1  UNL1        0.1030
     21 C           7.9593   -7.4077   27.5518 C.ar    1  UNL1        0.0232
     22 C           8.2280   -7.9661   26.1858 C.ar    1  UNL1        0.0312
     23 C           7.9725   -7.1270   24.9690 C.ar    1  UNL1        0.1402
     24 F           8.2411   -7.6853   23.6029 F       1  UNL1       -0.2042
     25 C           7.4483   -5.7294   25.1183 C.ar    1  UNL1        0.0312
     26 C           7.1797   -5.1710   26.4843 C.ar    1  UNL1        0.0232
     27 C           7.0065    0.3016   33.2716 C.3     1  UNL1        0.0553
     28 C           6.2707    0.6187   34.5397 C.ar    1  UNL1       -0.0190
     29 C           5.5884   -0.4764   35.3048 C.ar    1  UNL1       -0.0010
     30 C           4.8527   -0.1593   36.5728 C.ar    1  UNL1        0.0377
     31 C           4.7992    1.2528   37.0759 C.ar    1  UNL1        0.1572
     32 C           5.4814    2.3479   36.3108 C.ar    1  UNL1        0.0915
     33 CL          5.4280    3.7600   36.8139 Cl      1  UNL1       -0.0791
     34 C           6.2172    2.0308   35.0428 C.ar    1  UNL1        0.0103
     35 O           4.0634    1.5699   38.3440 O.3     1  UNL1       -0.4036
     36 C           2.6273    1.1654   38.4991 C.3     1  UNL1        0.5753
     37 F           1.1912    0.7609   38.6541 F       1  UNL1       -0.1328
     38 F           2.9896    0.3381   39.6966 F       1  UNL1       -0.1328
     39 F           2.2650    1.9928   37.3015 F       1  UNL1       -0.1328
@<TRIPOS>BOND
     1     9    10    3
     2    10     6    1
     3     6     2    1
     4     2     3   am
     5     3     4    2
     6     3     1    1
     7     1    27    1
     8    27    28    1
     9    28    29   ar
    10    29    30   ar
    11    30    31   ar
    12    31    35    1
    13    35    36    1
    14    36    37    1
    15    36    38    1
    16    36    39    1
    17    31    32   ar
    18    32    33    1
    19    32    34   ar
    20     1    11    1
    21    11    12   am
    22    12    13    2
    23    12    15    1
    24    15    16   ar
    25    16    17   ar
    26    17    18   ar
    27    18    20    1
    28    20    21   ar
    29    21    22   ar
    30    22    23   ar
    31    23    24    1
    32    23    25   ar
    33    25    26   ar
    34    18    19   ar
    35     6     7    1
    36     7     8    1
    37     8     6    1
    38    34    28   ar
    39    19    15   ar
    40    26    20   ar
    41     2     5    1
    42    11    14    1
@<TRIPOS>MOLECULE
*****
 39 42 0 0 0
SMALL
GASTEIGER

@<TRIPOS>ATOM
      1 C           3.1319    0.2537   25.7321 C.3     1  UNL1        0.1532
      2 N           0.5926    0.6709   26.0903 N.am    1  UNL1       -0.2945
      3 C           2.0204    0.9783   26.4320 C.2     1  UNL1        0.2413
      4 O           2.3369    2.0102   27.4736 O.2     1  UNL1       -0.2733
      5 H           0.3849   -0.0064   25.4066 H       1  UNL1        0.1503
      6 C          -0.5187    1.3954   26.7902 C.3     1  UNL1        0.1365
      7 C          -1.5742    2.4237   27.0705 C.3     1  UNL1        0.0353
      8 C          -0.7437    2.5217   25.8252 C.3     1  UNL1        0.0353
      9 N          -0.8407   -0.3537   29.2061 N.1     1  UNL1       -0.1943
     10 C          -0.6797    0.5209   27.9981 C.1     1  UNL1        0.0896
     11 N           3.7719   -0.9400   26.3767 N.am    1  UNL1       -0.2932
     12 C           4.9832   -0.7646   27.2439 C.2     1  UNL1        0.2673
     13 O           5.5545    0.6043   27.4665 O.2     1  UNL1       -0.2684
     14 H           3.3969   -1.8385   26.2307 H       1  UNL1        0.1502
     15 C           5.6232   -1.9583   27.8886 C.ar    1  UNL1        0.1767
     16 C           5.9661   -2.0973   29.3422 C.ar    1  UNL1        0.1476
     17 N           6.5875   -3.4475   29.5449 N.ar    1  UNL1       -0.1446
     18 N           6.6286   -4.1428   28.2164 N.ar    1  UNL1       -0.1477
     19 N           6.0327   -3.2225   27.1927 N.ar    1  UNL1       -0.1417
     20 C           7.1706   -5.5173   27.9571 C.ar    1  UNL1        0.1030
     21 C           6.7673   -6.2611   26.7185 C.ar    1  UNL1        0.0232
     22 C           7.3093   -7.6356   26.4592 C.ar    1  UNL1        0.0312
     23 C           8.2545   -8.2661   27.4385 C.ar    1  UNL1        0.1402
     24 F           8.7965   -9.6406   27.1792 F       1  UNL1       -0.2042
     25 C           8.6577   -7.5222   28.6770 C.ar    1  UNL1        0.0312
     26 C           8.1158   -6.1478   28.9364 C.ar    1  UNL1        0.0232
     27 C           3.6032    0.7228   24.3876 C.3     1  UNL1        0.0553
     28 C           3.4871   -0.1799   23.1951 C.ar    1  UNL1       -0.0190
     29 C           4.4513   -1.3150   23.0170 C.ar    1  UNL1       -0.0010
     30 C           4.3351   -2.2176   21.8246 C.ar    1  UNL1        0.0377
     31 C           3.2548   -1.9850   20.8104 C.ar    1  UNL1        0.1572
     32 C           2.2905   -0.8499   20.9885 C.ar    1  UNL1        0.0915
     33 CL          1.2102   -0.6174   19.9743 Cl      1  UNL1       -0.0791
     34 C           2.4067    0.0527   22.1809 C.ar    1  UNL1        0.0103
     35 O           3.1386   -2.8877   19.6180 O.3     1  UNL1       -0.4036
     36 C           4.3008   -3.0492   18.6835 C.3     1  UNL1        0.5753
     37 F           5.4630   -3.2108   17.7491 F       1  UNL1       -0.1328
     38 F           4.1100   -4.5369   18.7034 F       1  UNL1       -0.1328
     39 F           4.4916   -1.5615   18.6637 F       1  UNL1       -0.1328
@<TRIPOS>BOND
     1     9    10    3
     2    10     6    1
     3     6     2    1
     4     2     3   am
     5     3     4    2
     6     3     1    1
     7     1    27    1
     8    27    28    1
     9    28    29   ar
    10    29    30   ar
    11    30    31   ar
    12    31    35    1
    13    35    36    1
    14    36    37    1
    15    36    38    1
    16    36    39    1
    17    31    32   ar
    18    32    33    1
    19    32    34   ar
    20     1    11    1
    21    11    12   am
    22    12    13    2
    23    12    15    1
    24    15    16   ar
    25    16    17   ar
    26    17    18   ar
    27    18    20    1
    28    20    21   ar
    29    21    22   ar
    30    22    23   ar
    31    23    24    1
    32    23    25   ar
    33    25    26   ar
    34    18    19   ar
    35     6     7    1
    36     7     8    1
    37     8     6    1
    38    34    28   ar
    39    19    15   ar
    40    26    20   ar
    41     2     5    1
    42    11    14    1
@<TRIPOS>MOLECULE
*****
 39 42 0 0 0
SMALL
GASTEIGER

@<TRIPOS>ATOM
      1 C           8.0133   -3.3516   23.2664 C.3     1  UNL1        0.1532
      2 N           7.3469   -5.5770   24.4299 N.am    1  UNL1       -0.2945
      3 C           8.2984   -4.4284   24.2711 C.2     1  UNL1        0.2413
      4 O           9.5351   -4.3565   25.1169 O.2     1  UNL1       -0.2733
      5 H           6.5352   -5.6242   23.8747 H       1  UNL1        0.1503
      6 C           7.6321   -6.6537   25.4345 C.3     1  UNL1        0.1365
      7 C           8.1619   -7.9274   26.0236 C.3     1  UNL1        0.0353
      8 C           8.4356   -7.5948   24.5867 C.3     1  UNL1        0.0353
      9 N           6.2231   -5.5194   27.8279 N.1     1  UNL1       -0.1943
     10 C           6.9276   -6.0866   26.6312 C.1     1  UNL1        0.0896
     11 N           7.2462   -2.1290   23.6747 N.am    1  UNL1       -0.2932
     12 C           5.7543   -2.1926   23.8176 C.2     1  UNL1        0.2673
     13 O           5.0296   -3.4788   23.5521 O.2     1  UNL1       -0.2684
     14 H           7.7219   -1.2848   23.8490 H       1  UNL1        0.1502
     15 C           4.9872   -0.9700   24.2259 C.ar    1  UNL1        0.1767
     16 C           5.4746    0.4461   24.1406 C.ar    1  UNL1        0.1476
     17 N           4.3867    1.3425   24.6532 N.ar    1  UNL1       -0.1446
     18 N           3.2269    0.4805   25.0554 N.ar    1  UNL1       -0.1477
     19 N           3.5980   -0.9487   24.7913 N.ar    1  UNL1       -0.1417
     20 C           1.9245    0.9629   25.6221 C.ar    1  UNL1        0.1030
     21 C           0.8006    1.3405   24.7032 C.ar    1  UNL1        0.0232
     22 C          -0.5017    1.8229   25.2699 C.ar    1  UNL1        0.0312
     23 C          -0.6801    1.9278   26.7556 C.ar    1  UNL1        0.1402
     24 F          -1.9825    2.4102   27.3224 F       1  UNL1       -0.2042
     25 C           0.4438    1.5502   27.6745 C.ar    1  UNL1        0.0312
     26 C           1.7461    1.0678   27.1077 C.ar    1  UNL1        0.0232
     27 C           8.4953   -3.4975   21.8535 C.3     1  UNL1        0.0553
     28 C           7.5938   -3.1311   20.7119 C.ar    1  UNL1       -0.0190
     29 C           7.8447   -1.8749   19.9315 C.ar    1  UNL1       -0.0010
     30 C           6.9432   -1.5085   18.7900 C.ar    1  UNL1        0.0377
     31 C           5.7909   -2.3983   18.4289 C.ar    1  UNL1        0.1572
     32 C           5.5400   -3.6545   19.2093 C.ar    1  UNL1        0.0915
     33 CL          4.3877   -4.5442   18.8481 Cl      1  UNL1       -0.0791
     34 C           6.4415   -4.0208   20.3508 C.ar    1  UNL1        0.0103
     35 O           4.8894   -2.0319   17.2873 O.3     1  UNL1       -0.4036
     36 C           3.9891   -0.8371   17.3963 C.3     1  UNL1        0.5753
     37 F           3.0887    0.3577   17.5052 F       1  UNL1       -0.1328
     38 F           4.7383   -0.1708   16.2807 F       1  UNL1       -0.1328
     39 F           3.2399   -1.5035   18.5119 F       1  UNL1       -0.1328
@<TRIPOS>BOND
     1     9    10    3
     2    10     6    1
     3     6     2    1
     4     2     3   am
     5     3     4    2
     6     3     1    1
     7     1    27    1
     8    27    28    1
     9    28    29   ar
    10    29    30   ar
    11    30    31   ar
    12    31    35    1
    13    35    36    1
    14    36    37    1
    15    36    38    1
    16    36    39    1
    17    31    32   ar
    18    32    33    1
    19    32    34   ar
    20     1    11    1
    21    11    12   am
    22    12    13    2
    23    12    15    1
    24    15    16   ar
    25    16    17   ar
    26    17    18   ar
    27    18    20    1
    28    20    21   ar
    29    21    22   ar
    30    22    23   ar
    31    23    24    1
    32    23    25   ar
    33    25    26   ar
    34    18    19   ar
    35     6     7    1
    36     7     8    1
    37     8     6    1
    38    34    28   ar
    39    19    15   ar
    40    26    20   ar
    41     2     5    1
    42    11    14    1
@<TRIPOS>MOLECULE
*****
 39 42 0 0 0
SMALL
GASTEIGER

@<TRIPOS>ATOM
      1 C           5.7353    0.9021   32.1591 C.3     1  UNL1        0.1532
      2 N           4.4957    0.5012   34.4069 N.am    1  UNL1       -0.2945
      3 C           5.5577    1.2070   33.6170 C.2     1  UNL1        0.2413
      4 O           6.4420    2.2178   34.2851 O.2     1  UNL1       -0.2733
      5 H           3.9152   -0.1622   33.9684 H       1  UNL1        0.1503
      6 C           4.3180    0.8061   35.8647 C.3     1  UNL1        0.1365
      7 C           4.5050    0.7400   37.3516 C.3     1  UNL1        0.0353
      8 C           5.3063   -0.1562   36.4544 C.3     1  UNL1        0.0353
      9 N           2.2182    2.9422   35.6982 N.1     1  UNL1       -0.1943
     10 C           3.2682    1.8741   35.7815 C.1     1  UNL1        0.0896
     11 N           6.3294   -0.4079   31.7338 N.am    1  UNL1       -0.2932
     12 C           5.4804   -1.6444   31.7113 C.2     1  UNL1        0.2673
     13 O           4.0374   -1.5707   32.1140 O.2     1  UNL1       -0.2684
     14 H           7.2766   -0.4562   31.4695 H       1  UNL1        0.1502
     15 C           6.0745   -2.9544   31.2860 C.ar    1  UNL1        0.1767
     16 C           6.6047   -4.0199   32.1990 C.ar    1  UNL1        0.1476
     17 N           7.1006   -5.1530   31.3503 N.ar    1  UNL1       -0.1446
     18 N           6.8769   -4.7877   29.9128 N.ar    1  UNL1       -0.1477
     19 N           6.2428   -3.4289   29.8729 N.ar    1  UNL1       -0.1417
     20 C           7.2261   -5.6329   28.7237 C.ar    1  UNL1        0.1030
     21 C           6.6481   -5.3093   27.3779 C.ar    1  UNL1        0.0232
     22 C           6.9972   -6.1545   26.1888 C.ar    1  UNL1        0.0312
     23 C           7.9244   -7.3231   26.3456 C.ar    1  UNL1        0.1402
     24 F           8.2736   -8.1683   25.1566 F       1  UNL1       -0.2042
     25 C           8.5023   -7.6467   27.6915 C.ar    1  UNL1        0.0312
     26 C           8.1532   -6.8016   28.8805 C.ar    1  UNL1        0.0232
     27 C           5.3189    1.9073   31.1265 C.3     1  UNL1        0.0553
     28 C           4.1020    1.6584   30.2855 C.ar    1  UNL1       -0.0190
     29 C           2.7953    2.2991   30.6491 C.ar    1  UNL1       -0.0010
     30 C           1.5784    2.0503   29.8081 C.ar    1  UNL1        0.0377
     31 C           1.6682    1.1608   28.6036 C.ar    1  UNL1        0.1572
     32 C           2.9749    0.5201   28.2401 C.ar    1  UNL1        0.0915
     33 CL          3.0646   -0.3693   27.0356 Cl      1  UNL1       -0.0791
     34 C           4.1917    0.7690   29.0811 C.ar    1  UNL1        0.0103
     35 O           0.4512    0.9120   27.7627 O.3     1  UNL1       -0.4036
     36 C          -0.8247    0.4563   28.4062 C.3     1  UNL1        0.5753
     37 F          -2.1008    0.0005   29.0498 F       1  UNL1       -0.1328
     38 F          -0.1019   -0.7088   29.0144 F       1  UNL1       -0.1328
     39 F          -1.5476    1.6214   27.7980 F       1  UNL1       -0.1328
@<TRIPOS>BOND
     1     9    10    3
     2    10     6    1
     3     6     2    1
     4     2     3   am
     5     3     4    2
     6     3     1    1
     7     1    27    1
     8    27    28    1
     9    28    29   ar
    10    29    30   ar
    11    30    31   ar
    12    31    35    1
    13    35    36    1
    14    36    37    1
    15    36    38    1
    16    36    39    1
    17    31    32   ar
    18    32    33    1
    19    32    34   ar
    20     1    11    1
    21    11    12   am
    22    12    13    2
    23    12    15    1
    24    15    16   ar
    25    16    17   ar
    26    17    18   ar
    27    18    20    1
    28    20    21   ar
    29    21    22   ar
    30    22    23   ar
    31    23    24    1
    32    23    25   ar
    33    25    26   ar
    34    18    19   ar
    35     6     7    1
    36     7     8    1
    37     8     6    1
    38    34    28   ar
    39    19    15   ar
    40    26    20   ar
    41     2     5    1
    42    11    14    1
@<TRIPOS>MOLECULE
*****
 39 42 0 0 0
SMALL
GASTEIGER

@<TRIPOS>ATOM
      1 C         -13.3941   -3.6873   19.4540 C.3     1  UNL1        0.1532
      2 N         -10.9379   -4.0514   18.6895 N.am    1  UNL1       -0.2945
      3 C         -12.4041   -4.0137   18.3754 C.2     1  UNL1        0.2413
      4 O         -12.8805   -4.3025   16.9826 O.2     1  UNL1       -0.2733
      5 H         -10.6253   -3.8619   19.6036 H       1  UNL1        0.1503
      6 C          -9.9480   -4.3779   17.6108 C.3     1  UNL1        0.1365
      7 C          -9.0404   -4.2002   16.4299 C.3     1  UNL1        0.0353
      8 C          -9.8412   -3.0397   16.9416 C.3     1  UNL1        0.0353
      9 N          -9.4740   -7.2810   18.2000 N.1     1  UNL1       -0.1943
     10 C          -9.7110   -5.8294   17.9054 C.1     1  UNL1        0.0896
     11 N         -13.8017   -2.2634   19.6920 N.am    1  UNL1       -0.2932
     12 C         -15.1317   -1.7722   19.2024 C.2     1  UNL1        0.2673
     13 O         -16.0542   -2.7047   18.4748 O.2     1  UNL1       -0.2684
     14 H         -13.1962   -1.6514   20.1695 H       1  UNL1        0.1502
     15 C         -15.5393   -0.3483   19.4404 C.ar    1  UNL1        0.1767
     16 C         -15.1757    0.8278   18.5834 C.ar    1  UNL1        0.1476
     17 N         -15.7937    2.0524   19.1905 N.ar    1  UNL1       -0.1446
     18 N         -16.5391    1.6331   20.4227 N.ar    1  UNL1       -0.1477
     19 N         -16.3819    0.1493   20.5772 N.ar    1  UNL1       -0.1417
     20 C         -17.3070    2.5385   21.3395 C.ar    1  UNL1        0.1030
     21 C         -17.8642    3.8318   20.8228 C.ar    1  UNL1        0.0232
     22 C         -18.6321    4.7372   21.7397 C.ar    1  UNL1        0.0312
     23 C         -18.8428    4.3493   23.1732 C.ar    1  UNL1        0.1402
     24 F         -19.6107    5.2547   24.0902 F       1  UNL1       -0.2042
     25 C         -18.2856    3.0560   23.6899 C.ar    1  UNL1        0.0312
     26 C         -17.5177    2.1506   22.7731 C.ar    1  UNL1        0.0232
     27 C         -13.9765   -4.7846   20.2946 C.3     1  UNL1        0.0553
     28 C         -14.6490   -5.9546   19.6397 C.ar    1  UNL1       -0.0190
     29 C         -13.8247   -7.0688   19.0660 C.ar    1  UNL1       -0.0010
     30 C         -14.4972   -8.2387   18.4111 C.ar    1  UNL1        0.0377
     31 C         -15.9940   -8.2945   18.3300 C.ar    1  UNL1        0.1572
     32 C         -16.8182   -7.1804   18.9037 C.ar    1  UNL1        0.0915
     33 CL        -18.3150   -7.2362   18.8225 Cl      1  UNL1       -0.0791
     34 C         -16.1458   -6.0104   19.5586 C.ar    1  UNL1        0.0103
     35 O         -16.6664   -9.4646   17.6750 O.3     1  UNL1       -0.4036
     36 C         -16.7843  -10.7683   18.4074 C.3     1  UNL1        0.5753
     37 F         -16.9022  -12.0721   19.1398 F       1  UNL1       -0.1328
     38 F         -18.1126  -10.3397   18.9567 F       1  UNL1       -0.1328
     39 F         -15.4560  -11.1969   17.8581 F       1  UNL1       -0.1328
@<TRIPOS>BOND
     1     9    10    3
     2    10     6    1
     3     6     2    1
     4     2     3   am
     5     3     4    2
     6     3     1    1
     7     1    27    1
     8    27    28    1
     9    28    29   ar
    10    29    30   ar
    11    30    31   ar
    12    31    35    1
    13    35    36    1
    14    36    37    1
    15    36    38    1
    16    36    39    1
    17    31    32   ar
    18    32    33    1
    19    32    34   ar
    20     1    11    1
    21    11    12   am
    22    12    13    2
    23    12    15    1
    24    15    16   ar
    25    16    17   ar
    26    17    18   ar
    27    18    20    1
    28    20    21   ar
    29    21    22   ar
    30    22    23   ar
    31    23    24    1
    32    23    25   ar
    33    25    26   ar
    34    18    19   ar
    35     6     7    1
    36     7     8    1
    37     8     6    1
    38    34    28   ar
    39    19    15   ar
    40    26    20   ar
    41     2     5    1
    42    11    14    1
@<TRIPOS>MOLECULE
*****
 39 42 0 0 0
SMALL
GASTEIGER

@<TRIPOS>ATOM
      1 C           5.4556   -0.1499   34.5247 C.3     1  UNL1        0.1532
      2 N           3.1259    0.8888   34.0313 N.am    1  UNL1       -0.2945
      3 C           4.6227    0.9769   33.9894 C.2     1  UNL1        0.2413
      4 O           5.2866    2.1918   33.4121 O.2     1  UNL1       -0.2733
      5 H           2.6901    0.0914   34.4101 H       1  UNL1        0.1503
      6 C           2.2930    2.0156   33.4959 C.3     1  UNL1        0.1365
      7 C           1.5688    3.3278   33.4351 C.3     1  UNL1        0.0353
      8 C           2.3167    2.9407   34.6765 C.3     1  UNL1        0.0353
      9 N           1.6671    0.9481   30.7630 N.1     1  UNL1       -0.1943
     10 C           1.9801    1.4819   32.1295 C.1     1  UNL1        0.0896
     11 N           6.3451   -0.9292   33.6020 N.am    1  UNL1       -0.2932
     12 C           5.8578   -2.2123   32.9967 C.2     1  UNL1        0.2673
     13 O           4.4811   -2.7161   33.3143 O.2     1  UNL1       -0.2684
     14 H           7.2487   -0.5986   33.3936 H       1  UNL1        0.1502
     15 C           6.7473   -2.9916   32.0740 C.ar    1  UNL1        0.1767
     16 C           8.2448   -3.0518   32.1350 C.ar    1  UNL1        0.1476
     17 N           8.7185   -3.9449   31.0269 N.ar    1  UNL1       -0.1446
     18 N           7.5137   -4.4368   30.2810 N.ar    1  UNL1       -0.1477
     19 N           6.2954   -3.8477   30.9280 N.ar    1  UNL1       -0.1417
     20 C           7.5251   -5.3564   29.0960 C.ar    1  UNL1        0.1030
     21 C           8.4262   -6.5556   29.0858 C.ar    1  UNL1        0.0232
     22 C           8.4376   -7.4752   27.9008 C.ar    1  UNL1        0.0312
     23 C           7.5479   -7.1956   26.7260 C.ar    1  UNL1        0.1402
     24 F           7.5592   -8.1152   25.5409 F       1  UNL1       -0.2042
     25 C           6.6468   -5.9964   26.7361 C.ar    1  UNL1        0.0312
     26 C           6.6354   -5.0768   27.9211 C.ar    1  UNL1        0.0232
     27 C           5.3990   -0.4974   35.9828 C.3     1  UNL1        0.0553
     28 C           5.0237    0.5496   36.9893 C.ar    1  UNL1       -0.0190
     29 C           6.0536    1.5253   37.4763 C.ar    1  UNL1       -0.0010
     30 C           5.6782    2.5722   38.4827 C.ar    1  UNL1        0.0377
     31 C           4.2729    2.6434   39.0023 C.ar    1  UNL1        0.1572
     32 C           3.2429    1.6677   38.5154 C.ar    1  UNL1        0.0915
     33 CL          1.8376    1.7388   39.0349 Cl      1  UNL1       -0.0791
     34 C           3.6183    0.6208   37.5089 C.ar    1  UNL1        0.0103
     35 O           3.8975    3.6903   40.0088 O.3     1  UNL1       -0.4036
     36 C           4.0657    5.1436   39.6776 C.3     1  UNL1        0.5753
     37 F           4.2339    6.5969   39.3464 F       1  UNL1       -0.1328
     38 F           3.2801    4.9468   38.4151 F       1  UNL1       -0.1328
     39 F           4.8513    5.3404   40.9402 F       1  UNL1       -0.1328
@<TRIPOS>BOND
     1     9    10    3
     2    10     6    1
     3     6     2    1
     4     2     3   am
     5     3     4    2
     6     3     1    1
     7     1    27    1
     8    27    28    1
     9    28    29   ar
    10    29    30   ar
    11    30    31   ar
    12    31    35    1
    13    35    36    1
    14    36    37    1
    15    36    38    1
    16    36    39    1
    17    31    32   ar
    18    32    33    1
    19    32    34   ar
    20     1    11    1
    21    11    12   am
    22    12    13    2
    23    12    15    1
    24    15    16   ar
    25    16    17   ar
    26    17    18   ar
    27    18    20    1
    28    20    21   ar
    29    21    22   ar
    30    22    23   ar
    31    23    24    1
    32    23    25   ar
    33    25    26   ar
    34    18    19   ar
    35     6     7    1
    36     7     8    1
    37     8     6    1
    38    34    28   ar
    39    19    15   ar
    40    26    20   ar
    41     2     5    1
    42    11    14    1
