@<TRIPOS>MOLECULE
*****
 42 45 0 0 0
SMALL
GASTEIGER

@<TRIPOS>ATOM
      1 C           4.2771   -1.0837   26.4523 C.3     1  UNL1        0.0903
      2 C           3.1414   -0.1700   26.8061 C.3     1  UNL1        0.0923
      3 N           3.2614    0.7556   27.9803 N.3     1  UNL1       -0.2636
      4 C           4.5170    0.7673   28.8009 C.3     1  UNL1        0.0727
      5 C           5.6527   -0.1465   28.4472 C.3     1  UNL1        0.0204
      6 C           5.5327   -1.0720   27.2729 C.3     1  UNL1        0.0368
      7 N           4.1749   -2.3991   22.7094 N.am    1  UNL1       -0.2485
      8 C           4.2948   -1.4736   23.8837 C.2     1  UNL1        0.3059
      9 O           4.5523   -0.0122   23.6637 O.2     1  UNL1       -0.2524
     10 N           4.1572   -2.0093   25.2780 N.am    1  UNL1       -0.2889
     11 H           4.0060   -3.3582   22.8538 H       1  UNL1        0.1583
     12 H           3.9883   -2.9684   25.4224 H       1  UNL1        0.1510
     13 C           5.2371   -1.2710   19.1506 C.ar    1  UNL1        0.0803
     14 S           5.5469   -1.9239   20.4650 S.2     1  UNL1       -0.0488
     15 C           4.3125   -1.8633   21.3151 C.ar    1  UNL1        0.1664
     16 N           3.2398   -1.1729   20.5260 N.ar    1  UNL1       -0.2282
     17 C           3.8113   -0.8068   19.1883 C.ar    1  UNL1        0.0701
     18 C           3.0844   -0.1005   18.0825 C.3     1  UNL1        0.0528
     19 C           6.5206    0.2597   17.4895 C.3     1  UNL1        0.0779
     20 C           6.1865   -1.1104   18.0005 C.2     1  UNL1        0.1807
     21 O           6.8018   -2.3199   17.3614 O.2     1  UNL1       -0.2908
     22 C           2.1256    1.6694   28.3341 C.3     1  UNL1        0.1587
     23 C           0.9134    1.1246   29.0296 C.2     1  UNL1        0.2421
     24 O           0.9575    0.8410   30.5019 O.2     1  UNL1       -0.2734
     25 N          -0.3429    0.8635   28.2528 N.am    1  UNL1       -0.2749
     26 C          -1.5552    0.3187   28.9482 C.3     1  UNL1        0.1149
     27 C          -0.3870    1.1472   26.7804 C.3     1  UNL1        0.1149
     28 C           6.6685   -1.9859   26.9191 C.3     1  UNL1        0.0738
     29 N           6.8357   -3.2891   27.6426 N.3     1  UNL1       -0.2726
     30 C           6.9434   -4.5689   26.8674 C.3     1  UNL1        0.0721
     31 C           7.1106   -5.8721   27.5910 C.3     1  UNL1        0.0174
     32 C           7.1703   -5.8957   29.0897 C.3     1  UNL1        0.0031
     33 C           7.0626   -4.6160   29.8647 C.3     1  UNL1        0.0204
     34 C           6.8954   -3.3127   29.1412 C.3     1  UNL1        0.0724
     35 C           7.1223   -4.6396   31.3634 C.3     1  UNL1        0.0277
     36 C           6.9802   -3.3640   32.1398 C.ar    1  UNL1       -0.0220
     37 C           5.6211   -2.8914   32.5637 C.ar    1  UNL1       -0.0020
     38 C           5.4790   -1.6158   33.3400 C.ar    1  UNL1        0.0293
     39 C           6.6961   -0.8129   33.6925 C.ar    1  UNL1        0.1401
     40 F           6.5540    0.4627   34.4688 F       1  UNL1       -0.2042
     41 C           8.0551   -1.2855   33.2686 C.ar    1  UNL1        0.0293
     42 C           8.1971   -2.5610   32.4922 C.ar    1  UNL1       -0.0020
@<TRIPOS>BOND
     1    19    20    1
     2    20    21    2
     3    20    13    1
     4    13    14   ar
     5    14    15   ar
     6    15     7    1
     7     7     8   am
     8     8     9    2
     9     8    10   am
    10     1    10    1
    11     1     2    1
    12     2     3    1
    13     3    22    1
    14    22    23    1
    15    23    24    2
    16    23    25   am
    17    25    26    1
    18    25    27    1
    19     3     4    1
    20     4     5    1
    21     5     6    1
    22     6    28    1
    23    28    29    1
    24    29    30    1
    25    30    31    1
    26    31    32    1
    27    32    33    1
    28    33    35    1
    29    35    36    1
    30    36    37   ar
    31    37    38   ar
    32    38    39   ar
    33    39    40    1
    34    39    41   ar
    35    41    42   ar
    36    33    34    1
    37    15    16   ar
    38    16    17   ar
    39    17    18    1
    40    17    13   ar
    41     6     1    1
    42    34    29    1
    43    42    36   ar
    44     7    11    1
    45    10    12    1
@<TRIPOS>MOLECULE
*****
 42 45 0 0 0
SMALL
GASTEIGER

@<TRIPOS>ATOM
      1 C          -0.1072    2.2367   25.4636 C.3     1  UNL1        0.0903
      2 C          -1.3750    2.4141   26.2453 C.3     1  UNL1        0.0923
      3 N          -2.2427    3.6138   26.0048 N.3     1  UNL1       -0.2636
      4 C          -1.8425    4.6361   24.9826 C.3     1  UNL1        0.0727
      5 C          -0.5747    4.4587   24.2010 C.3     1  UNL1        0.0204
      6 C           0.2930    3.2590   24.4414 C.3     1  UNL1        0.0368
      7 N           2.4293   -0.2676   27.2084 N.am    1  UNL1       -0.2485
      8 C           1.5616    0.9320   26.9679 C.2     1  UNL1        0.3059
      9 O           1.4949    2.0267   27.9913 O.2     1  UNL1       -0.2524
     10 N           0.7606    1.0370   25.7040 N.am    1  UNL1       -0.2889
     11 H           2.4731   -0.9861   26.5367 H       1  UNL1        0.1583
     12 H           0.8043    0.3186   25.0324 H       1  UNL1        0.1510
     13 C           3.8315   -0.6337   30.8091 C.ar    1  UNL1        0.0803
     14 S           2.6793   -0.5953   29.8494 S.2     1  UNL1       -0.0488
     15 C           3.2304   -0.3726   28.4722 C.ar    1  UNL1        0.1664
     16 N           4.7232   -0.2734   28.5808 N.ar    1  UNL1       -0.2282
     17 C           5.0947   -0.4348   30.0250 C.ar    1  UNL1        0.0701
     18 C           6.4852   -0.4028   30.5866 C.3     1  UNL1        0.0528
     19 C           3.5645    0.3456   33.2007 C.3     1  UNL1        0.0779
     20 C           3.7371   -0.8356   32.2925 C.2     1  UNL1        0.1807
     21 O           3.8152   -2.2187   32.8676 O.2     1  UNL1       -0.2908
     22 C          -3.5106    3.7913   26.7865 C.3     1  UNL1        0.1587
     23 C          -4.7566    4.2632   26.0975 C.2     1  UNL1        0.2421
     24 O          -5.4712    3.3587   25.1375 O.2     1  UNL1       -0.2734
     25 N          -5.2881    5.6394   26.3684 N.am    1  UNL1       -0.2749
     26 C          -6.5342    6.1113   25.6794 C.3     1  UNL1        0.1149
     27 C          -4.5736    6.5438   27.3285 C.3     1  UNL1        0.1149
     28 C           1.5609    3.0816   23.6597 C.3     1  UNL1        0.0738
     29 N           1.6745    1.9722   22.6566 N.3     1  UNL1       -0.2726
     30 C           0.4517    1.4810   21.9398 C.3     1  UNL1        0.0721
     31 C           0.5653    0.3716   20.9367 C.3     1  UNL1        0.0174
     32 C           1.9016   -0.2467   20.6504 C.3     1  UNL1        0.0031
     33 C           3.1243    0.2444   21.3671 C.3     1  UNL1        0.0204
     34 C           3.0107    1.3538   22.3702 C.3     1  UNL1        0.0724
     35 C           4.4607   -0.3739   21.0807 C.3     1  UNL1        0.0277
     36 C           4.5397   -1.6992   20.3826 C.ar    1  UNL1       -0.0220
     37 C           4.9595   -1.7652   18.9440 C.ar    1  UNL1       -0.0020
     38 C           5.0385   -3.0904   18.2458 C.ar    1  UNL1        0.0293
     39 C           4.6978   -4.3497   18.9863 C.ar    1  UNL1        0.1401
     40 F           4.7769   -5.6750   18.2881 F       1  UNL1       -0.2042
     41 C           4.2781   -4.2837   20.4248 C.ar    1  UNL1        0.0293
     42 C           4.1990   -2.9584   21.1230 C.ar    1  UNL1       -0.0020
@<TRIPOS>BOND
     1    19    20    1
     2    20    21    2
     3    20    13    1
     4    13    14   ar
     5    14    15   ar
     6    15     7    1
     7     7     8   am
     8     8     9    2
     9     8    10   am
    10     1    10    1
    11     1     2    1
    12     2     3    1
    13     3    22    1
    14    22    23    1
    15    23    24    2
    16    23    25   am
    17    25    26    1
    18    25    27    1
    19     3     4    1
    20     4     5    1
    21     5     6    1
    22     6    28    1
    23    28    29    1
    24    29    30    1
    25    30    31    1
    26    31    32    1
    27    32    33    1
    28    33    35    1
    29    35    36    1
    30    36    37   ar
    31    37    38   ar
    32    38    39   ar
    33    39    40    1
    34    39    41   ar
    35    41    42   ar
    36    33    34    1
    37    15    16   ar
    38    16    17   ar
    39    17    18    1
    40    17    13   ar
    41     6     1    1
    42    34    29    1
    43    42    36   ar
    44     7    11    1
    45    10    12    1
@<TRIPOS>MOLECULE
*****
 42 45 0 0 0
SMALL
GASTEIGER

@<TRIPOS>ATOM
      1 C           5.1620   -1.9086   25.2416 C.3     1  UNL1        0.0903
      2 C           4.8616   -1.9520   23.7726 C.3     1  UNL1        0.0923
      3 N           5.9767   -1.8405   22.7756 N.3     1  UNL1       -0.2636
      4 C           7.3921   -1.6856   23.2475 C.3     1  UNL1        0.0727
      5 C           7.6924   -1.6422   24.7164 C.3     1  UNL1        0.0204
      6 C           6.5774   -1.7536   25.7135 C.3     1  UNL1        0.0368
      7 N           2.4487   -0.9101   27.9603 N.am    1  UNL1       -0.2485
      8 C           3.5637   -0.7987   26.9632 C.2     1  UNL1        0.3059
      9 O           4.1956    0.5342   26.6905 O.2     1  UNL1       -0.2524
     10 N           4.0469   -2.0200   26.2387 N.am    1  UNL1       -0.2889
     11 H           2.0340   -1.7849   28.1392 H       1  UNL1        0.1583
     12 H           3.6322   -2.8948   26.4177 H       1  UNL1        0.1510
     13 C           1.3670    1.8587   30.4562 C.ar    1  UNL1        0.0803
     14 S           1.9162    0.4918   30.1730 S.2     1  UNL1       -0.0488
     15 C           1.9655    0.3113   28.6847 C.ar    1  UNL1        0.1664
     16 N           1.4468    1.5665   28.0481 N.ar    1  UNL1       -0.2282
     17 C           1.0770    2.5229   29.1429 C.ar    1  UNL1        0.0701
     18 C           0.5156    3.9014   28.9570 C.3     1  UNL1        0.0528
     19 C           2.0216    2.0507   32.9631 C.3     1  UNL1        0.0779
     20 C           1.1467    2.4563   31.8142 C.2     1  UNL1        0.1807
     21 O           0.0515    3.4596   32.0233 O.2     1  UNL1       -0.2908
     22 C           5.6764   -1.8840   21.3065 C.3     1  UNL1        0.1587
     23 C           5.2249   -3.1655   20.6709 C.2     1  UNL1        0.2421
     24 O           6.0762   -4.3960   20.7772 O.2     1  UNL1       -0.2734
     25 N           3.9223   -3.2164   19.9290 N.am    1  UNL1       -0.2749
     26 C           3.4708   -4.4979   19.2934 C.3     1  UNL1        0.1149
     27 C           3.0710   -1.9859   19.8227 C.3     1  UNL1        0.1149
     28 C           6.8777   -1.7102   27.1825 C.3     1  UNL1        0.0738
     29 N           6.8373   -2.9712   27.9939 N.3     1  UNL1       -0.2726
     30 C           6.8242   -4.3048   27.3071 C.3     1  UNL1        0.0721
     31 C           6.7838   -5.5658   28.1185 C.3     1  UNL1        0.0174
     32 C           6.7566   -5.4932   29.6165 C.3     1  UNL1        0.0031
     33 C           6.7697   -4.1596   30.3032 C.3     1  UNL1        0.0204
     34 C           6.8100   -2.8987   29.4918 C.3     1  UNL1        0.0724
     35 C           6.7424   -4.0871   31.8012 C.3     1  UNL1        0.0277
     36 C           6.2783   -2.8342   32.4830 C.ar    1  UNL1       -0.0220
     37 C           7.2628   -1.7520   32.8145 C.ar    1  UNL1       -0.0020
     38 C           6.7987   -0.4991   33.4963 C.ar    1  UNL1        0.0293
     39 C           5.3501   -0.3284   33.8467 C.ar    1  UNL1        0.1401
     40 F           4.8860    0.9245   34.5285 F       1  UNL1       -0.2042
     41 C           4.3658   -1.4106   33.5152 C.ar    1  UNL1        0.0293
     42 C           4.8299   -2.6634   32.8334 C.ar    1  UNL1       -0.0020
@<TRIPOS>BOND
     1    19    20    1
     2    20    21    2
     3    20    13    1
     4    13    14   ar
     5    14    15   ar
     6    15     7    1
     7     7     8   am
     8     8     9    2
     9     8    10   am
    10     1    10    1
    11     1     2    1
    12     2     3    1
    13     3    22    1
    14    22    23    1
    15    23    24    2
    16    23    25   am
    17    25    26    1
    18    25    27    1
    19     3     4    1
    20     4     5    1
    21     5     6    1
    22     6    28    1
    23    28    29    1
    24    29    30    1
    25    30    31    1
    26    31    32    1
    27    32    33    1
    28    33    35    1
    29    35    36    1
    30    36    37   ar
    31    37    38   ar
    32    38    39   ar
    33    39    40    1
    34    39    41   ar
    35    41    42   ar
    36    33    34    1
    37    15    16   ar
    38    16    17   ar
    39    17    18    1
    40    17    13   ar
    41     6     1    1
    42    34    29    1
    43    42    36   ar
    44     7    11    1
    45    10    12    1
@<TRIPOS>MOLECULE
*****
 42 45 0 0 0
SMALL
GASTEIGER

@<TRIPOS>ATOM
      1 C           4.4754   -1.4365   26.4325 C.3     1  UNL1        0.0903
      2 C           3.3980   -1.2733   27.4632 C.3     1  UNL1        0.0923
      3 N           3.7274   -0.6949   28.8074 N.3     1  UNL1       -0.2636
      4 C           5.1343   -0.2797   29.1209 C.3     1  UNL1        0.0727
      5 C           6.2118   -0.4429   28.0902 C.3     1  UNL1        0.0204
      6 C           5.8823   -1.0213   26.7460 C.3     1  UNL1        0.0368
      7 N           3.5575   -1.6840   22.5794 N.am    1  UNL1       -0.2485
      8 C           3.8869   -1.1057   23.9237 C.2     1  UNL1        0.3059
      9 O           3.9571    0.3819   24.1034 O.2     1  UNL1       -0.2524
     10 N           4.1460   -2.0149   25.0882 N.am    1  UNL1       -0.2889
     11 H           3.5113   -2.6604   22.4615 H       1  UNL1        0.1583
     12 H           4.0999   -2.9912   24.9703 H       1  UNL1        0.1510
     13 C           3.5783    0.9307   19.7110 C.ar    1  UNL1        0.0803
     14 S           4.2443    0.2555   20.8731 S.2     1  UNL1       -0.0488
     15 C           3.2983   -0.7748   21.4149 C.ar    1  UNL1        0.1664
     16 N           2.0477   -0.7363   20.5876 N.ar    1  UNL1       -0.2282
     17 C           2.2207    0.3178   19.5345 C.ar    1  UNL1        0.0701
     18 C           1.2130    0.6930   18.4887 C.3     1  UNL1        0.0528
     19 C           5.1215    1.6930   17.7648 C.3     1  UNL1        0.0779
     20 C           4.1667    2.0266   18.8725 C.2     1  UNL1        0.1807
     21 O           3.8003    3.4559   19.1418 O.2     1  UNL1       -0.2908
     22 C           2.6499   -0.5316   29.8382 C.3     1  UNL1        0.1587
     23 C           3.0115   -0.4169   31.2894 C.2     1  UNL1        0.2421
     24 O           3.4451   -1.6332   32.0528 O.2     1  UNL1       -0.2734
     25 N           2.9396    0.9141   31.9773 N.am    1  UNL1       -0.2749
     26 C           3.3013    1.0288   33.4286 C.3     1  UNL1        0.1149
     27 C           2.5061    2.1304   31.2140 C.3     1  UNL1        0.1149
     28 C           6.9598   -1.1845   25.7152 C.3     1  UNL1        0.0738
     29 N           7.1642   -2.5122   25.0478 N.3     1  UNL1       -0.2726
     30 C           7.0610   -3.7773   25.8471 C.3     1  UNL1        0.0721
     31 C           7.2655   -5.1050   25.1797 C.3     1  UNL1        0.0174
     32 C           7.5731   -5.1676   23.7129 C.3     1  UNL1        0.0031
     33 C           7.6762   -3.9025   22.9136 C.3     1  UNL1        0.0204
     34 C           7.4718   -2.5748   23.5810 C.3     1  UNL1        0.0724
     35 C           7.9838   -3.9651   21.4467 C.3     1  UNL1        0.0277
     36 C           7.0015   -3.4239   20.4507 C.ar    1  UNL1       -0.0220
     37 C           5.6094   -3.9796   20.3922 C.ar    1  UNL1       -0.0020
     38 C           4.6271   -3.4385   19.3961 C.ar    1  UNL1        0.0293
     39 C           5.0368   -2.3415   18.4586 C.ar    1  UNL1        0.1401
     40 F           4.0544   -1.8004   17.4625 F       1  UNL1       -0.2042
     41 C           6.4288   -1.7859   18.5171 C.ar    1  UNL1        0.0293
     42 C           7.4112   -2.3270   19.5131 C.ar    1  UNL1       -0.0020
@<TRIPOS>BOND
     1    19    20    1
     2    20    21    2
     3    20    13    1
     4    13    14   ar
     5    14    15   ar
     6    15     7    1
     7     7     8   am
     8     8     9    2
     9     8    10   am
    10     1    10    1
    11     1     2    1
    12     2     3    1
    13     3    22    1
    14    22    23    1
    15    23    24    2
    16    23    25   am
    17    25    26    1
    18    25    27    1
    19     3     4    1
    20     4     5    1
    21     5     6    1
    22     6    28    1
    23    28    29    1
    24    29    30    1
    25    30    31    1
    26    31    32    1
    27    32    33    1
    28    33    35    1
    29    35    36    1
    30    36    37   ar
    31    37    38   ar
    32    38    39   ar
    33    39    40    1
    34    39    41   ar
    35    41    42   ar
    36    33    34    1
    37    15    16   ar
    38    16    17   ar
    39    17    18    1
    40    17    13   ar
    41     6     1    1
    42    34    29    1
    43    42    36   ar
    44     7    11    1
    45    10    12    1
@<TRIPOS>MOLECULE
*****
 42 45 0 0 0
SMALL
GASTEIGER

@<TRIPOS>ATOM
      1 C           1.1516    2.5114   21.4658 C.3     1  UNL1        0.0903
      2 C           2.0641    1.3497   21.2057 C.3     1  UNL1        0.0923
      3 N           2.0428    0.6632   19.8722 N.3     1  UNL1       -0.2636
      4 C           1.1089    1.1383   18.7989 C.3     1  UNL1        0.0727
      5 C           0.1963    2.3000   19.0590 C.3     1  UNL1        0.0204
      6 C           0.2177    2.9865   20.3924 C.3     1  UNL1        0.0368
      7 N           0.8864    3.1102   25.3800 N.am    1  UNL1       -0.2485
      8 C           0.8651    2.4236   24.0466 C.2     1  UNL1        0.3059
      9 O           0.5360    0.9627   23.9603 O.2     1  UNL1       -0.2524
     10 N           1.1729    3.1980   22.7993 N.am    1  UNL1       -0.2889
     11 H           1.1023    4.0690   25.4366 H       1  UNL1        0.1583
     12 H           1.3888    4.1568   22.8559 H       1  UNL1        0.1510
     13 C           0.7852    1.3084   28.8165 C.ar    1  UNL1        0.0803
     14 S           1.4983    2.1464   27.7970 S.2     1  UNL1       -0.0488
     15 C           0.5786    2.3358   26.6273 C.ar    1  UNL1        0.1664
     16 N          -0.7029    1.6149   26.9239 N.ar    1  UNL1       -0.2282
     17 C          -0.5753    0.9799   28.2768 C.ar    1  UNL1        0.0701
     18 C          -1.6239    0.1604   28.9686 C.3     1  UNL1        0.0528
     19 C           1.4247    1.8555   31.2745 C.3     1  UNL1        0.0779
     20 C           1.3359    0.8751   30.1427 C.2     1  UNL1        0.1807
     21 O           1.7978   -0.5387   30.3372 O.2     1  UNL1       -0.2908
     22 C           2.9554   -0.4986   19.6121 C.3     1  UNL1        0.1587
     23 C           4.3918   -0.2582   19.2533 C.2     1  UNL1        0.2421
     24 O           5.3628    0.1898   20.3053 O.2     1  UNL1       -0.2734
     25 N           4.8574   -0.4658   17.8426 N.am    1  UNL1       -0.2749
     26 C           6.2939   -0.2254   17.4838 C.3     1  UNL1        0.1149
     27 C           3.8865   -0.9138   16.7906 C.3     1  UNL1        0.1149
     28 C          -0.6949    4.1483   20.6526 C.3     1  UNL1        0.0738
     29 N          -2.1819    3.9517   20.6385 N.3     1  UNL1       -0.2726
     30 C          -2.9614    4.2149   19.3842 C.3     1  UNL1        0.0721
     31 C          -4.4484    4.0183   19.3701 C.3     1  UNL1        0.0174
     32 C          -5.1559    3.5586   20.6104 C.3     1  UNL1        0.0031
     33 C          -4.3764    3.2955   21.8646 C.3     1  UNL1        0.0204
     34 C          -2.8894    3.4921   21.8787 C.3     1  UNL1        0.0724
     35 C          -5.0840    2.8358   23.1049 C.3     1  UNL1        0.0277
     36 C          -5.1403    3.7270   24.3101 C.ar    1  UNL1       -0.0220
     37 C          -4.1146    3.5862   25.3956 C.ar    1  UNL1       -0.0020
     38 C          -4.1709    4.4774   26.6008 C.ar    1  UNL1        0.0293
     39 C          -5.2529    5.5093   26.7206 C.ar    1  UNL1        0.1401
     40 F          -5.3092    6.4005   27.9259 F       1  UNL1       -0.2042
     41 C          -6.2786    5.6501   25.6352 C.ar    1  UNL1        0.0293
     42 C          -6.2223    4.7589   24.4300 C.ar    1  UNL1       -0.0020
@<TRIPOS>BOND
     1    19    20    1
     2    20    21    2
     3    20    13    1
     4    13    14   ar
     5    14    15   ar
     6    15     7    1
     7     7     8   am
     8     8     9    2
     9     8    10   am
    10     1    10    1
    11     1     2    1
    12     2     3    1
    13     3    22    1
    14    22    23    1
    15    23    24    2
    16    23    25   am
    17    25    26    1
    18    25    27    1
    19     3     4    1
    20     4     5    1
    21     5     6    1
    22     6    28    1
    23    28    29    1
    24    29    30    1
    25    30    31    1
    26    31    32    1
    27    32    33    1
    28    33    35    1
    29    35    36    1
    30    36    37   ar
    31    37    38   ar
    32    38    39   ar
    33    39    40    1
    34    39    41   ar
    35    41    42   ar
    36    33    34    1
    37    15    16   ar
    38    16    17   ar
    39    17    18    1
    40    17    13   ar
    41     6     1    1
    42    34    29    1
    43    42    36   ar
    44     7    11    1
    45    10    12    1
@<TRIPOS>MOLECULE
*****
 42 45 0 0 0
SMALL
GASTEIGER

@<TRIPOS>ATOM
      1 C          -0.9278    3.3188   20.8358 C.3     1  UNL1        0.0903
      2 C          -1.8479    3.5170   19.6679 C.3     1  UNL1        0.0923
      3 N          -2.2292    4.9033   19.2403 N.3     1  UNL1       -0.2636
      4 C          -1.6903    6.0914   19.9806 C.3     1  UNL1        0.0727
      5 C          -0.7702    5.8932   21.1486 C.3     1  UNL1        0.0204
      6 C          -0.3890    4.5069   21.5762 C.3     1  UNL1        0.0368
      7 N           1.1479   -0.0369   21.2604 N.am    1  UNL1       -0.2485
      8 C           0.7666    1.3493   20.8328 C.2     1  UNL1        0.3059
      9 O           1.6985    2.1524   19.9745 O.2     1  UNL1       -0.2524
     10 N          -0.5466    1.9325   21.2635 N.am    1  UNL1       -0.2889
     11 H           0.5363   -0.5640   21.8237 H       1  UNL1        0.1583
     12 H          -1.1582    1.4054   21.8268 H       1  UNL1        0.1510
     13 C           4.1324   -1.9080   19.6302 C.ar    1  UNL1        0.0803
     14 S           2.6676   -1.5945   19.7081 S.2     1  UNL1       -0.0488
     15 C           2.4610   -0.6202   20.8297 C.ar    1  UNL1        0.1664
     16 N           3.7982   -0.3314   21.4450 N.ar    1  UNL1       -0.2282
     17 C           4.8312   -1.1273   20.7037 C.ar    1  UNL1        0.0701
     18 C           6.3043   -1.1402   20.9862 C.3     1  UNL1        0.0528
     19 C           4.6952   -4.3223   18.8530 C.3     1  UNL1        0.0779
     20 C           4.7840   -2.8387   18.6508 C.2     1  UNL1        0.1807
     21 O           5.5243   -2.2857   17.4693 O.2     1  UNL1       -0.2908
     22 C          -3.1493    5.1015   18.0723 C.3     1  UNL1        0.1587
     23 C          -4.3187    4.1832   17.8745 C.2     1  UNL1        0.2421
     24 O          -4.3382    3.2331   16.7138 O.2     1  UNL1       -0.2734
     25 N          -5.4685    4.2148   18.8372 N.am    1  UNL1       -0.2749
     26 C          -6.6378    3.2964   18.6393 C.3     1  UNL1        0.1149
     27 C          -5.4489    5.1649   19.9978 C.3     1  UNL1        0.1149
     28 C           0.5312    4.3087   22.7442 C.3     1  UNL1        0.0738
     29 N           0.0550    3.5640   23.9560 N.3     1  UNL1       -0.2726
     30 C           0.8695    2.4321   24.5088 C.3     1  UNL1        0.0721
     31 C           0.3934    1.6873   25.7207 C.3     1  UNL1        0.0174
     32 C          -0.8973    2.0745   26.3798 C.3     1  UNL1        0.0031
     33 C          -1.7117    3.2064   25.8271 C.3     1  UNL1        0.0204
     34 C          -1.2356    3.9511   24.6152 C.3     1  UNL1        0.0724
     35 C          -3.0024    3.5936   26.4862 C.3     1  UNL1        0.0277
     36 C          -4.2002    3.9314   25.6490 C.ar    1  UNL1       -0.0220
     37 C          -4.4087    3.2505   24.3287 C.ar    1  UNL1       -0.0020
     38 C          -5.6065    3.5883   23.4915 C.ar    1  UNL1        0.0293
     39 C          -6.5960    4.6070   23.9745 C.ar    1  UNL1        0.1401
     40 F          -7.7939    4.9448   23.1373 F       1  UNL1       -0.2042
     41 C          -6.3876    5.2878   25.2947 C.ar    1  UNL1        0.0293
     42 C          -5.1897    4.9500   26.1319 C.ar    1  UNL1       -0.0020
@<TRIPOS>BOND
     1    19    20    1
     2    20    21    2
     3    20    13    1
     4    13    14   ar
     5    14    15   ar
     6    15     7    1
     7     7     8   am
     8     8     9    2
     9     8    10   am
    10     1    10    1
    11     1     2    1
    12     2     3    1
    13     3    22    1
    14    22    23    1
    15    23    24    2
    16    23    25   am
    17    25    26    1
    18    25    27    1
    19     3     4    1
    20     4     5    1
    21     5     6    1
    22     6    28    1
    23    28    29    1
    24    29    30    1
    25    30    31    1
    26    31    32    1
    27    32    33    1
    28    33    35    1
    29    35    36    1
    30    36    37   ar
    31    37    38   ar
    32    38    39   ar
    33    39    40    1
    34    39    41   ar
    35    41    42   ar
    36    33    34    1
    37    15    16   ar
    38    16    17   ar
    39    17    18    1
    40    17    13   ar
    41     6     1    1
    42    34    29    1
    43    42    36   ar
    44     7    11    1
    45    10    12    1
@<TRIPOS>MOLECULE
*****
 42 45 0 0 0
SMALL
GASTEIGER

@<TRIPOS>ATOM
      1 C           2.3701    1.1984   21.6669 C.3     1  UNL1        0.0903
      2 C           2.6465    0.0584   20.7321 C.3     1  UNL1        0.0923
      3 N           3.2286   -1.2195   21.2593 N.3     1  UNL1       -0.2636
      4 C           3.5341   -1.3575   22.7214 C.3     1  UNL1        0.0727
      5 C           3.2577   -0.2175   23.6562 C.3     1  UNL1        0.0204
      6 C           2.6756    1.0605   23.1289 C.3     1  UNL1        0.0368
      7 N          -0.1934    3.7746   20.0725 N.am    1  UNL1       -0.2485
      8 C           0.3887    2.4966   20.5997 C.2     1  UNL1        0.3059
      9 O          -0.4286    1.2388   20.5871 O.2     1  UNL1       -0.2524
     10 N           1.7880    2.4764   21.1396 N.am    1  UNL1       -0.2889
     11 H           0.3430    4.6001   20.0808 H       1  UNL1        0.1583
     12 H           2.3244    3.3019   21.1480 H       1  UNL1        0.1510
     13 C          -4.0147    3.7205   19.3940 C.ar    1  UNL1        0.0803
     14 S          -2.8499    3.6362   20.3353 S.2     1  UNL1       -0.0488
     15 C          -1.5927    3.7948   19.5326 C.ar    1  UNL1        0.1664
     16 N          -1.9806    3.9771   18.0951 N.ar    1  UNL1       -0.2282
     17 C          -3.4775    3.9312   18.0095 C.ar    1  UNL1        0.0701
     18 C          -4.2937    4.0714   16.7588 C.3     1  UNL1        0.0528
     19 C          -5.9482    4.2081   21.0595 C.3     1  UNL1        0.0779
     20 C          -5.4626    3.6130   19.7711 C.2     1  UNL1        0.1807
     21 O          -6.4247    2.9105   18.8598 O.2     1  UNL1       -0.2908
     22 C           3.5051   -2.3596   20.3245 C.3     1  UNL1        0.1587
     23 C           4.6050   -3.3320   20.6323 C.2     1  UNL1        0.2421
     24 O           4.2825   -4.6540   21.2634 O.2     1  UNL1       -0.2734
     25 N           6.0273   -2.9824   20.3090 N.am    1  UNL1       -0.2749
     26 C           7.1273   -3.9547   20.6168 C.3     1  UNL1        0.1149
     27 C           6.3499   -1.6603   19.6778 C.3     1  UNL1        0.1149
     28 C           2.3991    2.2006   24.0637 C.3     1  UNL1        0.0738
     29 N           1.0894    2.2731   24.7914 N.3     1  UNL1       -0.2726
     30 C          -0.0032    3.1656   24.2819 C.3     1  UNL1        0.0721
     31 C          -1.3129    3.2381   25.0095 C.3     1  UNL1        0.0174
     32 C          -1.5300    2.4181   26.2466 C.3     1  UNL1        0.0031
     33 C          -0.4373    1.5256   26.7561 C.3     1  UNL1        0.0204
     34 C           0.8723    1.4531   26.0285 C.3     1  UNL1        0.0724
     35 C          -0.6544    0.7055   27.9932 C.3     1  UNL1        0.0277
     36 C           0.3701    0.7154   29.0889 C.ar    1  UNL1       -0.0220
     37 C           0.3741    1.8217   30.1020 C.ar    1  UNL1       -0.0020
     38 C           1.3985    1.8316   31.1976 C.ar    1  UNL1        0.0293
     39 C           2.4190    0.7352   31.2801 C.ar    1  UNL1        0.1401
     40 F           3.4434    0.7451   32.3758 F       1  UNL1       -0.2042
     41 C           2.4149   -0.3710   30.2671 C.ar    1  UNL1        0.0293
     42 C           1.3905   -0.3809   29.1715 C.ar    1  UNL1       -0.0020
@<TRIPOS>BOND
     1    19    20    1
     2    20    21    2
     3    20    13    1
     4    13    14   ar
     5    14    15   ar
     6    15     7    1
     7     7     8   am
     8     8     9    2
     9     8    10   am
    10     1    10    1
    11     1     2    1
    12     2     3    1
    13     3    22    1
    14    22    23    1
    15    23    24    2
    16    23    25   am
    17    25    26    1
    18    25    27    1
    19     3     4    1
    20     4     5    1
    21     5     6    1
    22     6    28    1
    23    28    29    1
    24    29    30    1
    25    30    31    1
    26    31    32    1
    27    32    33    1
    28    33    35    1
    29    35    36    1
    30    36    37   ar
    31    37    38   ar
    32    38    39   ar
    33    39    40    1
    34    39    41   ar
    35    41    42   ar
    36    33    34    1
    37    15    16   ar
    38    16    17   ar
    39    17    18    1
    40    17    13   ar
    41     6     1    1
    42    34    29    1
    43    42    36   ar
    44     7    11    1
    45    10    12    1
@<TRIPOS>MOLECULE
*****
 42 45 0 0 0
SMALL
GASTEIGER

@<TRIPOS>ATOM
      1 C          -0.1971    2.2179   21.0841 C.3     1  UNL1        0.0903
      2 C          -0.7092    2.8478   22.3454 C.3     1  UNL1        0.0923
      3 N          -1.2788    4.2351   22.3132 N.3     1  UNL1       -0.2636
      4 C          -1.3362    4.9924   21.0197 C.3     1  UNL1        0.0727
      5 C          -0.8240    4.3625   19.7584 C.3     1  UNL1        0.0204
      6 C          -0.2545    2.9753   19.7906 C.3     1  UNL1        0.0368
      7 N           2.3416   -0.7816   21.6393 N.am    1  UNL1       -0.2485
      8 C           1.7720    0.6057   21.6071 C.2     1  UNL1        0.3059
      9 O           2.6019    1.7680   22.0658 O.2     1  UNL1       -0.2524
     10 N           0.3726    0.8306   21.1163 N.am    1  UNL1       -0.2889
     11 H           1.7970   -1.5444   21.3382 H       1  UNL1        0.1583
     12 H          -0.1721    0.0677   20.8152 H       1  UNL1        0.1510
     13 C           5.6325   -1.7987   23.4285 C.ar    1  UNL1        0.0803
     14 S           4.1395   -1.8604   23.2972 S.2     1  UNL1       -0.0488
     15 C           3.7411   -1.0065   22.1301 C.ar    1  UNL1        0.1664
     16 N           4.9878   -0.4171   21.5401 N.ar    1  UNL1       -0.2282
     17 C           6.1568   -0.9067   22.3425 C.ar    1  UNL1        0.0701
     18 C           7.5971   -0.5643   22.1012 C.3     1  UNL1        0.0528
     19 C           6.6452   -1.8907   25.8193 C.3     1  UNL1        0.0779
     20 C           6.4565   -2.5050   24.4639 C.2     1  UNL1        0.1807
     21 O           7.0918   -3.8256   24.1440 O.2     1  UNL1       -0.2908
     22 C          -1.7910    4.8650   23.5746 C.3     1  UNL1        0.1587
     23 C          -2.8174    4.1532   24.4052 C.2     1  UNL1        0.2421
     24 O          -2.3832    3.2110   25.4886 O.2     1  UNL1       -0.2734
     25 N          -4.2778    4.3836   24.1524 N.am    1  UNL1       -0.2749
     26 C          -5.3042    3.6718   24.9830 C.3     1  UNL1        0.1149
     27 C          -4.7120    5.3258   23.0689 C.3     1  UNL1        0.1149
     28 C           0.2577    2.3453   18.5293 C.3     1  UNL1        0.0738
     29 N           1.7047    1.9670   18.4139 N.3     1  UNL1       -0.2726
     30 C           2.7706    2.9710   18.7393 C.3     1  UNL1        0.0721
     31 C           4.2175    2.5927   18.6239 C.3     1  UNL1        0.0174
     32 C           4.5985    1.2104   18.1831 C.3     1  UNL1        0.0031
     33 C           3.5325    0.2065   17.8578 C.3     1  UNL1        0.0204
     34 C           2.0856    0.5848   17.9732 C.3     1  UNL1        0.0724
     35 C           3.9135   -1.1758   17.4170 C.3     1  UNL1        0.0277
     36 C           4.7429   -2.0469   18.3132 C.ar    1  UNL1       -0.0220
     37 C           4.0778   -3.0468   19.2122 C.ar    1  UNL1       -0.0020
     38 C           4.9073   -3.9178   20.1084 C.ar    1  UNL1        0.0293
     39 C           6.4018   -3.7890   20.1057 C.ar    1  UNL1        0.1401
     40 F           7.2312   -4.6601   21.0020 F       1  UNL1       -0.2042
     41 C           7.0668   -2.7892   19.2068 C.ar    1  UNL1        0.0293
     42 C           6.2373   -1.9181   18.3106 C.ar    1  UNL1       -0.0020
@<TRIPOS>BOND
     1    19    20    1
     2    20    21    2
     3    20    13    1
     4    13    14   ar
     5    14    15   ar
     6    15     7    1
     7     7     8   am
     8     8     9    2
     9     8    10   am
    10     1    10    1
    11     1     2    1
    12     2     3    1
    13     3    22    1
    14    22    23    1
    15    23    24    2
    16    23    25   am
    17    25    26    1
    18    25    27    1
    19     3     4    1
    20     4     5    1
    21     5     6    1
    22     6    28    1
    23    28    29    1
    24    29    30    1
    25    30    31    1
    26    31    32    1
    27    32    33    1
    28    33    35    1
    29    35    36    1
    30    36    37   ar
    31    37    38   ar
    32    38    39   ar
    33    39    40    1
    34    39    41   ar
    35    41    42   ar
    36    33    34    1
    37    15    16   ar
    38    16    17   ar
    39    17    18    1
    40    17    13   ar
    41     6     1    1
    42    34    29    1
    43    42    36   ar
    44     7    11    1
    45    10    12    1
@<TRIPOS>MOLECULE
*****
 42 45 0 0 0
SMALL
GASTEIGER

@<TRIPOS>ATOM
      1 C           2.0215    1.6441   21.3328 C.3     1  UNL1        0.0903
      2 C           2.2199    0.5240   20.3551 C.3     1  UNL1        0.0923
      3 N           2.7404   -0.8009   20.8280 N.3     1  UNL1       -0.2636
      4 C           3.0625   -1.0057   22.2786 C.3     1  UNL1        0.0727
      5 C           2.8641    0.1144   23.2564 C.3     1  UNL1        0.0204
      6 C           2.3436    1.4393   22.7835 C.3     1  UNL1        0.0368
      7 N          -0.4940    4.4975   20.2014 N.am    1  UNL1       -0.2485
      8 C           0.0265    3.1726   20.6743 C.2     1  UNL1        0.3059
      9 O          -0.9275    2.0512   20.9615 O.2     1  UNL1       -0.2524
     10 N           1.5010    2.9691   20.8600 N.am    1  UNL1       -0.2889
     11 H           0.1321    5.2336   20.0130 H       1  UNL1        0.1583
     12 H           2.1271    3.7051   20.6715 H       1  UNL1        0.1510
     13 C          -4.2266    4.5536   19.1383 C.ar    1  UNL1        0.0803
     14 S          -2.8176    4.0752   18.9492 S.2     1  UNL1       -0.0488
     15 C          -1.9685    4.7011   20.0157 C.ar    1  UNL1        0.1664
     16 N          -2.8529    5.5662   20.8639 N.ar    1  UNL1       -0.2282
     17 C          -4.2484    5.4751   20.3217 C.ar    1  UNL1        0.0701
     18 C          -5.4541    6.1814   20.8670 C.3     1  UNL1        0.0528
     19 C          -5.8079    5.0434   17.1360 C.3     1  UNL1        0.0779
     20 C          -5.4067    4.1766   18.2925 C.2     1  UNL1        0.1807
     21 O          -6.1853    2.9328   18.6032 O.2     1  UNL1       -0.2908
     22 C           2.9389   -1.9210   19.8502 C.3     1  UNL1        0.1587
     23 C           4.0222   -1.8312   18.8167 C.2     1  UNL1        0.2421
     24 O           3.7469   -1.1738   17.4968 O.2     1  UNL1       -0.2734
     25 N           5.3809   -2.3988   19.1029 N.am    1  UNL1       -0.2749
     26 C           6.4642   -2.3090   18.0694 C.3     1  UNL1        0.1149
     27 C           5.6562   -3.0562   20.4229 C.3     1  UNL1        0.1149
     28 C           2.1451    2.5594   23.7612 C.3     1  UNL1        0.0738
     29 N           0.9794    2.5335   24.7049 N.3     1  UNL1       -0.2726
     30 C           0.8338    1.4084   25.6862 C.3     1  UNL1        0.0721
     31 C          -0.3319    1.3825   26.6299 C.3     1  UNL1        0.0174
     32 C          -1.3519    2.4817   26.5922 C.3     1  UNL1        0.0031
     33 C          -1.2062    3.6068   25.6110 C.3     1  UNL1        0.0204
     34 C          -0.0406    3.6327   24.6673 C.3     1  UNL1        0.0724
     35 C          -2.2263    4.7060   25.5733 C.3     1  UNL1        0.0277
     36 C          -3.5502    4.4780   24.9061 C.ar    1  UNL1       -0.0220
     37 C          -4.7535    5.2616   25.3400 C.ar    1  UNL1       -0.0020
     38 C          -6.0774    5.0337   24.6727 C.ar    1  UNL1        0.0293
     39 C          -6.1981    4.0222   23.5716 C.ar    1  UNL1        0.1401
     40 F          -7.5220    3.7942   22.9044 F       1  UNL1       -0.2042
     41 C          -4.9948    3.2387   23.1378 C.ar    1  UNL1        0.0293
     42 C          -3.6709    3.4666   23.8050 C.ar    1  UNL1       -0.0020
@<TRIPOS>BOND
     1    19    20    1
     2    20    21    2
     3    20    13    1
     4    13    14   ar
     5    14    15   ar
     6    15     7    1
     7     7     8   am
     8     8     9    2
     9     8    10   am
    10     1    10    1
    11     1     2    1
    12     2     3    1
    13     3    22    1
    14    22    23    1
    15    23    24    2
    16    23    25   am
    17    25    26    1
    18    25    27    1
    19     3     4    1
    20     4     5    1
    21     5     6    1
    22     6    28    1
    23    28    29    1
    24    29    30    1
    25    30    31    1
    26    31    32    1
    27    32    33    1
    28    33    35    1
    29    35    36    1
    30    36    37   ar
    31    37    38   ar
    32    38    39   ar
    33    39    40    1
    34    39    41   ar
    35    41    42   ar
    36    33    34    1
    37    15    16   ar
    38    16    17   ar
    39    17    18    1
    40    17    13   ar
    41     6     1    1
    42    34    29    1
    43    42    36   ar
    44     7    11    1
    45    10    12    1
