@<TRIPOS>MOLECULE
*****
 41 46 0 0 0
SMALL
GASTEIGER

@<TRIPOS>ATOM
      1 C           7.4877   -5.6756   26.2416 C.ar    1  UNL1        0.2219
      2 N           8.7380   -5.9171   25.4488 N.ar    1  UNL1       -0.2096
      3 C           8.9363   -5.2266   24.1320 C.ar    1  UNL1        0.1329
      4 C           7.8843   -4.2945   23.6081 C.ar    1  UNL1        0.1768
      5 F           8.0826   -3.6040   22.2913 F       1  UNL1       -0.2009
      6 C           6.6341   -4.0529   24.4009 C.ar    1  UNL1        0.1132
      7 N           6.4358   -4.7435   25.7176 N.ar    1  UNL1       -0.2112
      8 C           5.5821   -3.1208   23.8769 C.ar    1  UNL1        0.0238
      9 C           4.9466   -2.1166   24.7922 C.ar    1  UNL1        0.0329
     10 C           3.8947   -1.1845   24.2683 C.ar    1  UNL1        0.1591
     11 F           3.2592   -0.1803   25.1835 F       1  UNL1       -0.2025
     12 C           3.4782   -1.2565   22.8291 C.ar    1  UNL1        0.1256
     13 N           2.4756   -0.4740   22.0339 N.ar    1  UNL1       -0.2287
     14 C           2.4914   -0.9945   20.6272 C.ar    1  UNL1        0.1207
     15 C           1.6436   -0.4979   19.4938 C.3     1  UNL1        0.0718
     16 N           3.5038   -2.0987   20.5530 N.ar    1  UNL1       -0.3167
     17 C           4.1137   -2.2607   21.9138 C.ar    1  UNL1        0.0808
     18 C           5.1657   -3.1929   22.4377 C.ar    1  UNL1        0.0205
     19 C           3.8462   -2.9003   19.3322 C.3     1  UNL1        0.0867
     20 C           3.3069   -4.2909   19.1725 C.3     1  UNL1        0.0245
     21 C           4.7278   -2.3114   18.2711 C.3     1  UNL1        0.0245
     22 N           7.2894   -6.3661   27.5584 N.pl3   1  UNL1       -0.2680
     23 H           7.2673   -7.3495   27.6001 H       1  UNL1        0.1565
     24 N           6.1867   -1.7052   32.4888 N.3     1  UNL1       -0.2698
     25 C           5.9065   -1.0827   31.1532 C.3     1  UNL1        0.0786
     26 C           6.0709   -1.8904   29.9000 C.3     1  UNL1        0.0629
     27 C           6.5157   -3.3206   29.9824 C.ar    1  UNL1        0.0591
     28 N           6.6802   -4.1283   28.7291 N.ar    1  UNL1       -0.2351
     29 C           7.1249   -5.5584   28.8115 C.ar    1  UNL1        0.1339
     30 C           7.4052   -6.1809   30.1473 C.ar    1  UNL1        0.0342
     31 C           7.2407   -5.3732   31.4005 C.ar    1  UNL1        0.0011
     32 C           6.7960   -3.9431   31.3180 C.ar    1  UNL1        0.0076
     33 C           6.6315   -3.1354   32.5712 C.3     1  UNL1        0.1003
     34 N           5.6933    0.7179   36.2485 N.3     1  UNL1       -0.2726
     35 C           4.6448   -0.2807   35.8569 C.3     1  UNL1        0.0735
     36 C           4.8093   -1.0884   34.6036 C.3     1  UNL1        0.0333
     37 C           6.0222   -0.8975   33.7421 C.3     1  UNL1        0.0606
     38 C           7.0707    0.1011   34.1338 C.3     1  UNL1        0.0333
     39 C           6.9063    0.9088   35.3870 C.3     1  UNL1        0.0735
     40 C           4.2122    1.5355   38.2202 C.3     1  UNL1        0.0188
     41 C           5.5288    1.5256   37.5018 C.3     1  UNL1        0.0721
@<TRIPOS>BOND
     1    40    41    1
     2    41    34    1
     3    34    35    1
     4    35    36    1
     5    36    37    1
     6    37    24    1
     7    24    25    1
     8    25    26    1
     9    26    27    1
    10    27    28   ar
    11    28    29   ar
    12    29    22    1
    13    22     1    1
    14     1     2   ar
    15     2     3   ar
    16     3     4   ar
    17     4     5    1
    18     4     6   ar
    19     6     8    1
    20     8     9   ar
    21     9    10   ar
    22    10    11    1
    23    10    12   ar
    24    12    13   ar
    25    13    14   ar
    26    14    15    1
    27    14    16   ar
    28    16    19    1
    29    19    20    1
    30    19    21    1
    31    16    17   ar
    32    17    18   ar
    33     6     7   ar
    34    29    30   ar
    35    30    31   ar
    36    31    32   ar
    37    32    33    1
    38    37    38    1
    39    38    39    1
    40    39    34    1
    41    33    24    1
    42    32    27   ar
    43     7     1   ar
    44    18     8   ar
    45    17    12   ar
    46    22    23    1
@<TRIPOS>MOLECULE
*****
 41 46 0 0 0
SMALL
GASTEIGER

@<TRIPOS>ATOM
      1 C           7.8756   -5.4071   23.6463 C.ar    1  UNL1        0.2219
      2 N           9.2547   -5.4662   23.0594 N.ar    1  UNL1       -0.2096
      3 C           9.5360   -4.8152   21.7377 C.ar    1  UNL1        0.1329
      4 C           8.4380   -4.1049   21.0029 C.ar    1  UNL1        0.1768
      5 F           8.7192   -3.4538   19.6811 F       1  UNL1       -0.2009
      6 C           7.0589   -4.0457   21.5898 C.ar    1  UNL1        0.1132
      7 N           6.7776   -4.6968   22.9115 N.ar    1  UNL1       -0.2112
      8 C           5.9609   -3.3354   20.8548 C.ar    1  UNL1        0.0238
      9 C           4.8966   -4.1245   20.1515 C.ar    1  UNL1        0.0329
     10 C           3.7987   -3.4143   19.4166 C.ar    1  UNL1        0.1591
     11 F           2.7344   -4.2033   18.7132 F       1  UNL1       -0.2025
     12 C           3.7650   -1.9150   19.3851 C.ar    1  UNL1        0.1256
     13 N           2.8148   -0.9456   18.7469 N.ar    1  UNL1       -0.2287
     14 C           3.2918    0.4426   19.0558 C.ar    1  UNL1        0.1207
     15 C           2.6384    1.7183   18.6133 C.3     1  UNL1        0.0718
     16 N           4.5368    0.3311   19.8850 N.ar    1  UNL1       -0.3167
     17 C           4.8293   -1.1260   20.0885 C.ar    1  UNL1        0.0808
     18 C           5.9272   -1.8362   20.8233 C.ar    1  UNL1        0.0205
     19 C           5.3471    1.4758   20.4172 C.3     1  UNL1        0.0867
     20 C           4.7882    2.3507   21.4999 C.3     1  UNL1        0.0245
     21 C           6.7161    1.7456   19.8667 C.3     1  UNL1        0.0245
     22 N           7.5944   -6.0582   24.9681 N.pl3   1  UNL1       -0.2680
     23 H           7.6221   -7.0389   25.0495 H       1  UNL1        0.1565
     24 N           6.3516   -3.2841   31.1333 N.3     1  UNL1       -0.2698
     25 C           6.7259   -4.7258   31.3101 C.3     1  UNL1        0.0786
     26 C           7.0494   -5.5689   30.1124 C.3     1  UNL1        0.0629
     27 C           6.9984   -4.9704   28.7379 C.ar    1  UNL1        0.0591
     28 N           7.3219   -5.8136   27.5402 N.ar    1  UNL1       -0.2351
     29 C           7.2710   -5.2150   26.1658 C.ar    1  UNL1        0.1339
     30 C           6.8966   -3.7732   25.9890 C.ar    1  UNL1        0.0342
     31 C           6.5732   -2.9301   27.1867 C.ar    1  UNL1        0.0011
     32 C           6.6241   -3.5287   28.5611 C.ar    1  UNL1        0.0076
     33 C           6.3007   -2.6855   29.7588 C.3     1  UNL1        0.1003
     34 N           5.3812   -0.7545   34.7263 N.3     1  UNL1       -0.2726
     35 C           6.7207   -0.6318   34.0624 C.3     1  UNL1        0.0735
     36 C           7.0441   -1.4750   32.8647 C.3     1  UNL1        0.0333
     37 C           6.0282   -2.4409   32.3310 C.3     1  UNL1        0.0606
     38 C           4.6887   -2.5636   32.9949 C.3     1  UNL1        0.0333
     39 C           4.3652   -1.7204   34.1926 C.3     1  UNL1        0.0735
     40 C           6.0653    0.2471   37.0238 C.3     1  UNL1        0.0188
     41 C           5.0578    0.0887   35.9240 C.3     1  UNL1        0.0721
@<TRIPOS>BOND
     1    40    41    1
     2    41    34    1
     3    34    35    1
     4    35    36    1
     5    36    37    1
     6    37    24    1
     7    24    25    1
     8    25    26    1
     9    26    27    1
    10    27    28   ar
    11    28    29   ar
    12    29    22    1
    13    22     1    1
    14     1     2   ar
    15     2     3   ar
    16     3     4   ar
    17     4     5    1
    18     4     6   ar
    19     6     8    1
    20     8     9   ar
    21     9    10   ar
    22    10    11    1
    23    10    12   ar
    24    12    13   ar
    25    13    14   ar
    26    14    15    1
    27    14    16   ar
    28    16    19    1
    29    19    20    1
    30    19    21    1
    31    16    17   ar
    32    17    18   ar
    33     6     7   ar
    34    29    30   ar
    35    30    31   ar
    36    31    32   ar
    37    32    33    1
    38    37    38    1
    39    38    39    1
    40    39    34    1
    41    33    24    1
    42    32    27   ar
    43     7     1   ar
    44    18     8   ar
    45    17    12   ar
    46    22    23    1
@<TRIPOS>MOLECULE
*****
 41 46 0 0 0
SMALL
GASTEIGER

@<TRIPOS>ATOM
      1 C           0.1732    1.9900   21.6800 C.ar    1  UNL1        0.2219
      2 N          -0.1254    2.5445   20.3186 N.ar    1  UNL1       -0.2096
      3 C           0.5132    1.9372   19.1048 C.ar    1  UNL1        0.1329
      4 C           1.4504    0.7754   19.2523 C.ar    1  UNL1        0.1768
      5 F           2.0890    0.1680   18.0385 F       1  UNL1       -0.2009
      6 C           1.7489    0.2208   20.6137 C.ar    1  UNL1        0.1132
      7 N           1.1104    0.8281   21.8275 N.ar    1  UNL1       -0.2112
      8 C           2.6862   -0.9411   20.7612 C.ar    1  UNL1        0.0238
      9 C           2.7587   -1.9870   19.6884 C.ar    1  UNL1        0.0329
     10 C           3.6958   -3.1488   19.8359 C.ar    1  UNL1        0.1591
     11 F           3.7684   -4.1948   18.7631 F       1  UNL1       -0.2025
     12 C           4.5604   -3.2648   21.0561 C.ar    1  UNL1        0.1256
     13 N           5.5722   -4.2897   21.4756 N.ar    1  UNL1       -0.2287
     14 C           6.1250   -3.8772   22.8077 C.ar    1  UNL1        0.1207
     15 C           7.1652   -4.6150   23.5973 C.3     1  UNL1        0.0718
     16 N           5.4548   -2.5974   23.2114 N.ar    1  UNL1       -0.3167
     17 C           4.4879   -2.2189   22.1289 C.ar    1  UNL1        0.0808
     18 C           3.5507   -1.0570   21.9814 C.ar    1  UNL1        0.0205
     19 C           5.7073   -1.8307   24.4757 C.3     1  UNL1        0.0867
     20 C           7.0512   -1.2114   24.7215 C.3     1  UNL1        0.0245
     21 C           4.6160   -1.6833   25.4942 C.3     1  UNL1        0.0245
     22 N          -0.4654    2.5973   22.8938 N.pl3   1  UNL1       -0.2680
     23 H          -1.3081    3.0989   22.8078 H       1  UNL1        0.1565
     24 N           1.4129    1.2098   29.3588 N.3     1  UNL1       -0.2698
     25 C           0.0642    0.6070   29.0993 C.3     1  UNL1        0.0786
     26 C          -0.5812    0.7639   27.7544 C.3     1  UNL1        0.0629
     27 C           0.1221    1.5237   26.6690 C.ar    1  UNL1        0.0591
     28 N          -0.5233    1.6806   25.3241 N.ar    1  UNL1       -0.2351
     29 C           0.1800    2.4404   24.2387 C.ar    1  UNL1        0.1339
     30 C           1.5288    3.0433   24.4983 C.ar    1  UNL1        0.0342
     31 C           2.1742    2.8863   25.8432 C.ar    1  UNL1        0.0011
     32 C           1.4709    2.1265   26.9286 C.ar    1  UNL1        0.0076
     33 C           2.1163    1.9696   28.2735 C.3     1  UNL1        0.1003
     34 N           3.3493    0.7391   33.3936 N.3     1  UNL1       -0.2726
     35 C           3.6691   -0.2263   32.2911 C.3     1  UNL1        0.0735
     36 C           3.0236   -0.0694   30.9461 C.3     1  UNL1        0.0333
     37 C           2.0584    1.0529   30.7038 C.3     1  UNL1        0.0606
     38 C           1.7386    2.0184   31.8063 C.3     1  UNL1        0.0333
     39 C           2.3840    1.8615   33.1512 C.3     1  UNL1        0.0735
     40 C           4.7489   -0.6721   35.0667 C.3     1  UNL1        0.0188
     41 C           3.9947    0.5823   34.7385 C.3     1  UNL1        0.0721
@<TRIPOS>BOND
     1    40    41    1
     2    41    34    1
     3    34    35    1
     4    35    36    1
     5    36    37    1
     6    37    24    1
     7    24    25    1
     8    25    26    1
     9    26    27    1
    10    27    28   ar
    11    28    29   ar
    12    29    22    1
    13    22     1    1
    14     1     2   ar
    15     2     3   ar
    16     3     4   ar
    17     4     5    1
    18     4     6   ar
    19     6     8    1
    20     8     9   ar
    21     9    10   ar
    22    10    11    1
    23    10    12   ar
    24    12    13   ar
    25    13    14   ar
    26    14    15    1
    27    14    16   ar
    28    16    19    1
    29    19    20    1
    30    19    21    1
    31    16    17   ar
    32    17    18   ar
    33     6     7   ar
    34    29    30   ar
    35    30    31   ar
    36    31    32   ar
    37    32    33    1
    38    37    38    1
    39    38    39    1
    40    39    34    1
    41    33    24    1
    42    32    27   ar
    43     7     1   ar
    44    18     8   ar
    45    17    12   ar
    46    22    23    1
@<TRIPOS>MOLECULE
*****
 41 46 0 0 0
SMALL
GASTEIGER

@<TRIPOS>ATOM
      1 C           7.5484   -5.0771   24.6796 C.ar    1  UNL1        0.2219
      2 N           8.9447   -4.7226   24.2618 N.ar    1  UNL1       -0.2096
      3 C           9.1692   -3.8287   23.0783 C.ar    1  UNL1        0.1329
      4 C           7.9975   -3.2894   22.3128 C.ar    1  UNL1        0.1768
      5 F           8.2220   -2.3955   21.1293 F       1  UNL1       -0.2009
      6 C           6.6012   -3.6440   22.7306 C.ar    1  UNL1        0.1132
      7 N           6.3766   -4.5379   23.9141 N.ar    1  UNL1       -0.2112
      8 C           5.4294   -3.1047   21.9650 C.ar    1  UNL1        0.0238
      9 C           4.9922   -3.7720   20.6947 C.ar    1  UNL1        0.0329
     10 C           3.8204   -3.2327   19.9291 C.ar    1  UNL1        0.1591
     11 F           3.3832   -3.9001   18.6589 F       1  UNL1       -0.2025
     12 C           3.0860   -2.0262   20.4337 C.ar    1  UNL1        0.1256
     13 N           1.9041   -1.2737   19.8979 N.ar    1  UNL1       -0.2287
     14 C           1.6109   -0.1414   20.8370 C.ar    1  UNL1        0.1207
     15 C           0.5104    0.8666   20.6863 C.3     1  UNL1        0.0718
     16 N           2.6116   -0.1940   21.9532 N.ar    1  UNL1       -0.3167
     17 C           3.5232   -1.3589   21.7040 C.ar    1  UNL1        0.0808
     18 C           4.6949   -1.8981   22.4696 C.ar    1  UNL1        0.0205
     19 C           2.6873    0.7522   23.1147 C.3     1  UNL1        0.0867
     20 C           2.2047    0.3192   24.4673 C.3     1  UNL1        0.0245
     21 C           3.2455    2.1312   22.9236 C.3     1  UNL1        0.0245
     22 N           7.3239   -5.9710   25.8631 N.pl3   1  UNL1       -0.2680
     23 H           7.3004   -6.9481   25.7446 H       1  UNL1        0.1565
     24 N           6.0869   -2.1787   31.4611 N.3     1  UNL1       -0.2698
     25 C           5.7933   -1.3602   30.2389 C.3     1  UNL1        0.0786
     26 C           5.9820   -1.9550   28.8749 C.3     1  UNL1        0.0629
     27 C           6.4642   -3.3683   28.7331 C.ar    1  UNL1        0.0591
     28 N           6.6529   -3.9630   27.3690 N.ar    1  UNL1       -0.2351
     29 C           7.1352   -5.3763   27.2272 C.ar    1  UNL1        0.1339
     30 C           7.4287   -6.1948   28.4495 C.ar    1  UNL1        0.0342
     31 C           7.2401   -5.6000   29.8135 C.ar    1  UNL1        0.0011
     32 C           6.7578   -4.1868   29.9553 C.ar    1  UNL1        0.0076
     33 C           6.5691   -3.5920   31.3193 C.3     1  UNL1        0.1003
     34 N           5.5209   -0.3945   35.5534 N.3     1  UNL1       -0.2726
     35 C           4.4001   -1.1502   34.9032 C.3     1  UNL1        0.0735
     36 C           4.5888   -1.7449   33.5390 C.3     1  UNL1        0.0333
     37 C           5.8982   -1.5840   32.8253 C.3     1  UNL1        0.0606
     38 C           7.0190   -0.8283   33.4755 C.3     1  UNL1        0.0333
     39 C           6.8303   -0.2336   34.8396 C.3     1  UNL1        0.0735
     40 C           4.3633    1.3278   37.1165 C.3     1  UNL1        0.0188
     41 C           5.3322    0.2002   36.9175 C.3     1  UNL1        0.0721
@<TRIPOS>BOND
     1    40    41    1
     2    41    34    1
     3    34    35    1
     4    35    36    1
     5    36    37    1
     6    37    24    1
     7    24    25    1
     8    25    26    1
     9    26    27    1
    10    27    28   ar
    11    28    29   ar
    12    29    22    1
    13    22     1    1
    14     1     2   ar
    15     2     3   ar
    16     3     4   ar
    17     4     5    1
    18     4     6   ar
    19     6     8    1
    20     8     9   ar
    21     9    10   ar
    22    10    11    1
    23    10    12   ar
    24    12    13   ar
    25    13    14   ar
    26    14    15    1
    27    14    16   ar
    28    16    19    1
    29    19    20    1
    30    19    21    1
    31    16    17   ar
    32    17    18   ar
    33     6     7   ar
    34    29    30   ar
    35    30    31   ar
    36    31    32   ar
    37    32    33    1
    38    37    38    1
    39    38    39    1
    40    39    34    1
    41    33    24    1
    42    32    27   ar
    43     7     1   ar
    44    18     8   ar
    45    17    12   ar
    46    22    23    1
@<TRIPOS>MOLECULE
*****
 41 46 0 0 0
SMALL
GASTEIGER

@<TRIPOS>ATOM
      1 C           3.1999    1.1192   33.5199 C.ar    1  UNL1        0.2219
      2 N           4.0639    1.5906   34.6519 N.ar    1  UNL1       -0.2096
      3 C           5.4255    0.9951   34.8544 C.ar    1  UNL1        0.1329
      4 C           5.9233   -0.0719   33.9250 C.ar    1  UNL1        0.1768
      5 F           7.2850   -0.6675   34.1274 F       1  UNL1       -0.2009
      6 C           5.0593   -0.5432   32.7930 C.ar    1  UNL1        0.1132
      7 N           3.6976    0.0523   32.5905 N.ar    1  UNL1       -0.2112
      8 C           5.5571   -1.6102   31.8635 C.ar    1  UNL1        0.0238
      9 C           6.0650   -2.9089   32.4161 C.ar    1  UNL1        0.0329
     10 C           6.5628   -3.9759   31.4867 C.ar    1  UNL1        0.1591
     11 F           7.0708   -5.2746   32.0392 F       1  UNL1       -0.2025
     12 C           6.5526   -3.7441   30.0048 C.ar    1  UNL1        0.1256
     13 N           6.9773   -4.6040   28.8514 N.ar    1  UNL1       -0.2287
     14 C           6.7318   -3.8368   27.5861 C.ar    1  UNL1        0.1207
     15 C           7.0133   -4.3190   26.1939 C.3     1  UNL1        0.0718
     16 N           6.1554   -2.5027   27.9574 N.ar    1  UNL1       -0.3167
     17 C           6.0446   -2.4454   29.4522 C.ar    1  UNL1        0.0808
     18 C           5.5469   -1.3785   30.3816 C.ar    1  UNL1        0.0205
     19 C           5.7593   -1.4166   27.0016 C.3     1  UNL1        0.0867
     20 C           6.7726   -0.4054   26.5538 C.3     1  UNL1        0.0245
     21 C           4.3499   -1.3416   26.4937 C.3     1  UNL1        0.0245
     22 N           1.8381    1.7148   33.3174 N.pl3   1  UNL1       -0.2680
     23 H           1.2359    1.8391   34.0863 H       1  UNL1        0.1565
     24 N          -0.4681    2.3095   26.8694 N.3     1  UNL1       -0.2698
     25 C          -0.5536    0.8725   27.2908 C.3     1  UNL1        0.0786
     26 C          -0.1094    0.4662   28.6647 C.3     1  UNL1        0.0629
     27 C           0.4202    1.4968   29.6171 C.ar    1  UNL1        0.0591
     28 N           0.8644    1.0905   30.9911 N.ar    1  UNL1       -0.2351
     29 C           1.3940    2.1212   31.9435 C.ar    1  UNL1        0.1339
     30 C           1.4794    3.5582   31.5220 C.ar    1  UNL1        0.0342
     31 C           1.0353    3.9646   30.1482 C.ar    1  UNL1        0.0011
     32 C           0.5057    2.9339   29.1957 C.ar    1  UNL1        0.0076
     33 C           0.0615    3.3402   27.8218 C.3     1  UNL1        0.1003
     34 N          -1.8005    3.5286   22.7476 N.3     1  UNL1       -0.2726
     35 C          -2.7109    3.7350   23.9217 C.3     1  UNL1        0.0735
     36 C          -2.2667    3.3286   25.2957 C.3     1  UNL1        0.0333
     37 C          -0.9122    2.7159   25.4954 C.3     1  UNL1        0.0606
     38 C          -0.0019    2.5094   24.3213 C.3     1  UNL1        0.0333
     39 C          -0.4460    2.9158   22.9474 C.3     1  UNL1        0.0735
     40 C          -3.5272    3.3984   20.8108 C.3     1  UNL1        0.0188
     41 C          -2.2446    3.9349   21.3737 C.3     1  UNL1        0.0721
@<TRIPOS>BOND
     1    40    41    1
     2    41    34    1
     3    34    35    1
     4    35    36    1
     5    36    37    1
     6    37    24    1
     7    24    25    1
     8    25    26    1
     9    26    27    1
    10    27    28   ar
    11    28    29   ar
    12    29    22    1
    13    22     1    1
    14     1     2   ar
    15     2     3   ar
    16     3     4   ar
    17     4     5    1
    18     4     6   ar
    19     6     8    1
    20     8     9   ar
    21     9    10   ar
    22    10    11    1
    23    10    12   ar
    24    12    13   ar
    25    13    14   ar
    26    14    15    1
    27    14    16   ar
    28    16    19    1
    29    19    20    1
    30    19    21    1
    31    16    17   ar
    32    17    18   ar
    33     6     7   ar
    34    29    30   ar
    35    30    31   ar
    36    31    32   ar
    37    32    33    1
    38    37    38    1
    39    38    39    1
    40    39    34    1
    41    33    24    1
    42    32    27   ar
    43     7     1   ar
    44    18     8   ar
    45    17    12   ar
    46    22    23    1
@<TRIPOS>MOLECULE
*****
 41 46 0 0 0
SMALL
GASTEIGER

@<TRIPOS>ATOM
      1 C           2.8154   -0.1024   28.0452 C.ar    1  UNL1        0.2219
      2 N           3.0494    1.3727   27.9066 N.ar    1  UNL1       -0.2096
      3 C           3.7124    1.9144   26.6750 C.ar    1  UNL1        0.1329
      4 C           4.1414    0.9810   25.5820 C.ar    1  UNL1        0.1768
      5 F           4.8045    1.5227   24.3503 F       1  UNL1       -0.2009
      6 C           3.9074   -0.4941   25.7206 C.ar    1  UNL1        0.1132
      7 N           3.2444   -1.0359   26.9522 N.ar    1  UNL1       -0.2112
      8 C           4.3364   -1.4276   24.6275 C.ar    1  UNL1        0.0238
      9 C           5.2466   -2.5786   24.9385 C.ar    1  UNL1        0.0329
     10 C           5.6757   -3.5120   23.8455 C.ar    1  UNL1        0.1591
     11 F           6.5858   -4.6630   24.1565 F       1  UNL1       -0.2025
     12 C           5.1945   -3.2944   22.4416 C.ar    1  UNL1        0.1256
     13 N           5.4471   -4.0431   21.1666 N.ar    1  UNL1       -0.2287
     14 C           4.6931   -3.3549   20.0676 C.ar    1  UNL1        0.1207
     15 C           4.6630   -3.7681   18.6260 C.3     1  UNL1        0.0718
     16 N           3.9745   -2.1808   20.6635 N.ar    1  UNL1       -0.3167
     17 C           4.2843   -2.1434   22.1306 C.ar    1  UNL1        0.0808
     18 C           3.8553   -1.2100   23.2236 C.ar    1  UNL1        0.0205
     19 C           3.0995   -1.2138   19.9222 C.3     1  UNL1        0.0867
     20 C           1.6396   -1.1178   20.2530 C.3     1  UNL1        0.0245
     21 C           3.6844   -0.3428   18.8501 C.3     1  UNL1        0.0245
     22 N           2.1524   -0.6441   29.2769 N.pl3   1  UNL1       -0.2680
     23 H           1.4304   -1.3085   29.1956 H       1  UNL1        0.1565
     24 N           3.2242    2.4143   35.3388 N.3     1  UNL1       -0.2698
     25 C           2.1111    3.1201   34.6229 C.3     1  UNL1        0.0786
     26 C           1.6741    2.6495   33.2673 C.3     1  UNL1        0.0629
     27 C           2.3502    1.4732   32.6277 C.ar    1  UNL1        0.0591
     28 N           1.9132    1.0027   31.2721 N.ar    1  UNL1       -0.2351
     29 C           2.5894   -0.1736   30.6325 C.ar    1  UNL1        0.1339
     30 C           3.7026   -0.8794   31.3485 C.ar    1  UNL1        0.0342
     31 C           4.1396   -0.4089   32.7041 C.ar    1  UNL1        0.0011
     32 C           3.4634    0.7674   33.3437 C.ar    1  UNL1        0.0076
     33 C           3.9004    1.2380   34.6992 C.3     1  UNL1        0.1003
     34 N           4.5354    3.8257   39.4057 N.3     1  UNL1       -0.2726
     35 C           3.9939    4.8078   38.4095 C.3     1  UNL1        0.0735
     36 C           3.5568    4.3373   37.0539 C.3     1  UNL1        0.0333
     37 C           3.6613    2.8848   36.6945 C.3     1  UNL1        0.0606
     38 C           4.2027    1.9027   37.6906 C.3     1  UNL1        0.0333
     39 C           4.6398    2.3731   39.0462 C.3     1  UNL1        0.0735
     40 C           4.0085    5.0270   41.6482 C.3     1  UNL1        0.0188
     41 C           4.9724    4.2962   40.7613 C.3     1  UNL1        0.0721
@<TRIPOS>BOND
     1    40    41    1
     2    41    34    1
     3    34    35    1
     4    35    36    1
     5    36    37    1
     6    37    24    1
     7    24    25    1
     8    25    26    1
     9    26    27    1
    10    27    28   ar
    11    28    29   ar
    12    29    22    1
    13    22     1    1
    14     1     2   ar
    15     2     3   ar
    16     3     4   ar
    17     4     5    1
    18     4     6   ar
    19     6     8    1
    20     8     9   ar
    21     9    10   ar
    22    10    11    1
    23    10    12   ar
    24    12    13   ar
    25    13    14   ar
    26    14    15    1
    27    14    16   ar
    28    16    19    1
    29    19    20    1
    30    19    21    1
    31    16    17   ar
    32    17    18   ar
    33     6     7   ar
    34    29    30   ar
    35    30    31   ar
    36    31    32   ar
    37    32    33    1
    38    37    38    1
    39    38    39    1
    40    39    34    1
    41    33    24    1
    42    32    27   ar
    43     7     1   ar
    44    18     8   ar
    45    17    12   ar
    46    22    23    1
@<TRIPOS>MOLECULE
*****
 41 46 0 0 0
SMALL
GASTEIGER

@<TRIPOS>ATOM
      1 C           1.3778   -0.1562   28.9785 C.ar    1  UNL1        0.2219
      2 N          -0.0831   -0.0932   29.3127 N.ar    1  UNL1       -0.2096
      3 C          -1.0304    0.6300   28.4019 C.ar    1  UNL1        0.1329
      4 C          -0.5167    1.2900   27.1567 C.ar    1  UNL1        0.1768
      5 F          -1.4640    2.0132   26.2458 F       1  UNL1       -0.2009
      6 C           0.9442    1.2270   26.8225 C.ar    1  UNL1        0.1132
      7 N           1.8915    0.5038   27.7333 N.ar    1  UNL1       -0.2112
      8 C           1.4578    1.8871   25.5772 C.ar    1  UNL1        0.0238
      9 C           1.8265    3.3409   25.5966 C.ar    1  UNL1        0.0329
     10 C           2.3401    4.0011   24.3514 C.ar    1  UNL1        0.1591
     11 F           2.7088    5.4549   24.3708 F       1  UNL1       -0.2025
     12 C           2.4851    3.2073   23.0870 C.ar    1  UNL1        0.1256
     13 N           2.9606    3.5832   21.7149 N.ar    1  UNL1       -0.2287
     14 C           2.8858    2.3617   20.8475 C.ar    1  UNL1        0.1207
     15 C           3.2660    2.2845   19.3986 C.3     1  UNL1        0.0718
     16 N           2.3641    1.2309   21.6836 N.ar    1  UNL1       -0.3167
     17 C           2.1164    1.7535   23.0676 C.ar    1  UNL1        0.0808
     18 C           1.6028    1.0933   24.3128 C.ar    1  UNL1        0.0205
     19 C           2.1309   -0.1757   21.2174 C.3     1  UNL1        0.0867
     20 C           0.9233   -0.5008   20.3891 C.3     1  UNL1        0.0245
     21 C           3.1053   -1.2571   21.5794 C.3     1  UNL1        0.0245
     22 N           2.3251   -0.8794   29.8894 N.pl3   1  UNL1       -0.2680
     23 H           2.6533   -1.7755   29.6473 H       1  UNL1        0.1565
     24 N           4.8618    0.8843   36.0297 N.3     1  UNL1       -0.2698
     25 C           5.1627   -0.5622   35.7713 C.3     1  UNL1        0.0786
     26 C           4.7155   -1.2043   34.4916 C.3     1  UNL1        0.0629
     27 C           3.9675   -0.3998   33.4703 C.ar    1  UNL1        0.0591
     28 N           3.5203   -1.0419   32.1905 N.ar    1  UNL1       -0.2351
     29 C           2.7722   -0.2374   31.1691 C.ar    1  UNL1        0.1339
     30 C           2.4714    1.2093   31.4276 C.ar    1  UNL1        0.0342
     31 C           2.9185    1.8513   32.7073 C.ar    1  UNL1        0.0011
     32 C           3.6666    1.0468   33.7287 C.ar    1  UNL1        0.0076
     33 C           4.1138    1.6889   35.0084 C.3     1  UNL1        0.1003
     34 N           6.2034    2.8107   39.8690 N.3     1  UNL1       -0.2726
     35 C           4.7415    2.6023   39.6053 C.3     1  UNL1        0.0735
     36 C           4.2943    1.9602   38.3255 C.3     1  UNL1        0.0333
     37 C           5.3090    1.5265   37.3095 C.3     1  UNL1        0.0606
     38 C           6.7708    1.7348   37.5732 C.3     1  UNL1        0.0333
     39 C           7.2180    2.3769   38.8529 C.3     1  UNL1        0.0735
     40 C           5.7808    4.4746   41.8190 C.3     1  UNL1        0.0188
     41 C           6.6505    3.4528   41.1487 C.3     1  UNL1        0.0721
@<TRIPOS>BOND
     1    40    41    1
     2    41    34    1
     3    34    35    1
     4    35    36    1
     5    36    37    1
     6    37    24    1
     7    24    25    1
     8    25    26    1
     9    26    27    1
    10    27    28   ar
    11    28    29   ar
    12    29    22    1
    13    22     1    1
    14     1     2   ar
    15     2     3   ar
    16     3     4   ar
    17     4     5    1
    18     4     6   ar
    19     6     8    1
    20     8     9   ar
    21     9    10   ar
    22    10    11    1
    23    10    12   ar
    24    12    13   ar
    25    13    14   ar
    26    14    15    1
    27    14    16   ar
    28    16    19    1
    29    19    20    1
    30    19    21    1
    31    16    17   ar
    32    17    18   ar
    33     6     7   ar
    34    29    30   ar
    35    30    31   ar
    36    31    32   ar
    37    32    33    1
    38    37    38    1
    39    38    39    1
    40    39    34    1
    41    33    24    1
    42    32    27   ar
    43     7     1   ar
    44    18     8   ar
    45    17    12   ar
    46    22    23    1
@<TRIPOS>MOLECULE
*****
 41 46 0 0 0
SMALL
GASTEIGER

@<TRIPOS>ATOM
      1 C           5.9948   -3.6760   20.4308 C.ar    1  UNL1        0.2219
      2 N           7.3857   -3.6472   19.8699 N.ar    1  UNL1       -0.2096
      3 C           8.5660   -3.5924   20.7939 C.ar    1  UNL1        0.1329
      4 C           8.3554   -3.5664   22.2788 C.ar    1  UNL1        0.1768
      5 F           9.5358   -3.5116   23.2028 F       1  UNL1       -0.2009
      6 C           6.9645   -3.5953   22.8397 C.ar    1  UNL1        0.1132
      7 N           5.7842   -3.6501   21.9157 N.ar    1  UNL1       -0.2112
      8 C           6.7540   -3.5693   24.3246 C.ar    1  UNL1        0.0238
      9 C           6.1271   -2.3704   24.9724 C.ar    1  UNL1        0.0329
     10 C           5.9165   -2.3444   26.4573 C.ar    1  UNL1        0.1591
     11 F           5.2896   -1.1455   27.1050 F       1  UNL1       -0.2025
     12 C           6.3329   -3.5173   27.2944 C.ar    1  UNL1        0.1256
     13 N           6.2522   -3.7766   28.7696 N.ar    1  UNL1       -0.2287
     14 C           6.8293   -5.1358   29.0336 C.ar    1  UNL1        0.1207
     15 C           6.9481   -5.7980   30.3743 C.3     1  UNL1        0.0718
     16 N           7.2666   -5.7165   27.7216 N.ar    1  UNL1       -0.3167
     17 C           6.9598   -4.7162   26.6467 C.ar    1  UNL1        0.0808
     18 C           7.1704   -4.7422   25.1618 C.ar    1  UNL1        0.0205
     19 C           7.8996   -7.0614   27.5199 C.3     1  UNL1        0.0867
     20 C           7.3689   -7.9898   26.4681 C.3     1  UNL1        0.0245
     21 C           9.0632   -7.4778   28.3699 C.3     1  UNL1        0.0245
     22 N           4.8144   -3.7308   19.5067 N.pl3   1  UNL1       -0.2680
     23 H           4.5502   -4.5856   19.0958 H       1  UNL1        0.1565
     24 N           0.5725    1.6698   19.2103 N.3     1  UNL1       -0.2698
     25 C           0.2192    0.8331   20.4040 C.3     1  UNL1        0.0786
     26 C           0.9970   -0.4144   20.7020 C.3     1  UNL1        0.0629
     27 C           2.1280   -0.8251   19.8063 C.ar    1  UNL1        0.0591
     28 N           2.9057   -2.0727   20.1044 N.ar    1  UNL1       -0.2351
     29 C           4.0367   -2.4834   19.2087 C.ar    1  UNL1        0.1339
     30 C           4.3899   -1.6465   18.0149 C.ar    1  UNL1        0.0342
     31 C           3.6122   -0.3990   17.7169 C.ar    1  UNL1        0.0011
     32 C           2.4812    0.0117   18.6126 C.ar    1  UNL1        0.0076
     33 C           1.7034    1.2592   18.3146 C.3     1  UNL1        0.1003
     34 N          -1.7607    5.4124   18.3160 N.3     1  UNL1       -0.2726
     35 C          -1.7966    4.8172   19.6924 C.3     1  UNL1        0.0735
     36 C          -1.0189    3.5696   19.9904 C.3     1  UNL1        0.0333
     37 C          -0.2053    2.9174   18.9122 C.3     1  UNL1        0.0606
     38 C          -0.1694    3.5127   17.5358 C.3     1  UNL1        0.0333
     39 C          -0.9471    4.7602   17.2377 C.3     1  UNL1        0.0735
     40 C          -3.3657    6.7477   16.7697 C.3     1  UNL1        0.0188
     41 C          -2.5384    6.6599   18.0179 C.3     1  UNL1        0.0721
@<TRIPOS>BOND
     1    40    41    1
     2    41    34    1
     3    34    35    1
     4    35    36    1
     5    36    37    1
     6    37    24    1
     7    24    25    1
     8    25    26    1
     9    26    27    1
    10    27    28   ar
    11    28    29   ar
    12    29    22    1
    13    22     1    1
    14     1     2   ar
    15     2     3   ar
    16     3     4   ar
    17     4     5    1
    18     4     6   ar
    19     6     8    1
    20     8     9   ar
    21     9    10   ar
    22    10    11    1
    23    10    12   ar
    24    12    13   ar
    25    13    14   ar
    26    14    15    1
    27    14    16   ar
    28    16    19    1
    29    19    20    1
    30    19    21    1
    31    16    17   ar
    32    17    18   ar
    33     6     7   ar
    34    29    30   ar
    35    30    31   ar
    36    31    32   ar
    37    32    33    1
    38    37    38    1
    39    38    39    1
    40    39    34    1
    41    33    24    1
    42    32    27   ar
    43     7     1   ar
    44    18     8   ar
    45    17    12   ar
    46    22    23    1
@<TRIPOS>MOLECULE
*****
 41 46 0 0 0
SMALL
GASTEIGER

@<TRIPOS>ATOM
      1 C           4.0500   -0.2429   30.8991 C.ar    1  UNL1        0.2219
      2 N           4.6963   -1.5081   31.3805 N.ar    1  UNL1       -0.2096
      3 C           4.8701   -1.7491   32.8507 C.ar    1  UNL1        0.1329
      4 C           4.3978   -0.7249   33.8396 C.ar    1  UNL1        0.1768
      5 F           4.5716   -0.9659   35.3099 F       1  UNL1       -0.2009
      6 C           3.7515    0.5403   33.3582 C.ar    1  UNL1        0.1132
      7 N           3.5777    0.7813   31.8880 N.ar    1  UNL1       -0.2112
      8 C           3.2791    1.5645   34.3472 C.ar    1  UNL1        0.0238
      9 C           3.6656    1.4463   35.7917 C.ar    1  UNL1        0.0329
     10 C           3.1933    2.4704   36.7807 C.ar    1  UNL1        0.1591
     11 F           3.5797    2.3522   38.2252 F       1  UNL1       -0.2025
     12 C           2.3345    3.6127   36.3251 C.ar    1  UNL1        0.1256
     13 N           1.7229    4.7658   37.0643 N.ar    1  UNL1       -0.2287
     14 C           0.9585    5.5966   36.0767 C.ar    1  UNL1        0.1207
     15 C           0.1900    6.8474   36.3846 C.3     1  UNL1        0.0718
     16 N           1.0976    4.9570   34.7270 N.ar    1  UNL1       -0.3167
     17 C           1.9480    3.7309   34.8805 C.ar    1  UNL1        0.0808
     18 C           2.4203    2.7067   33.8916 C.ar    1  UNL1        0.0205
     19 C           0.4926    5.4559   33.4484 C.3     1  UNL1        0.0867
     20 C           1.3237    6.2511   32.4856 C.3     1  UNL1        0.0245
     21 C          -0.9436    5.1598   33.1325 C.3     1  UNL1        0.0245
     22 N           3.8762   -0.0019   29.4288 N.pl3   1  UNL1       -0.2680
     23 H           4.6300   -0.1501   28.8132 H       1  UNL1        0.1565
     24 N          -1.5034    3.1572   26.5426 N.3     1  UNL1       -0.2698
     25 C          -0.2710    3.9822   26.3179 C.3     1  UNL1        0.0786
     26 C           1.0514    3.5154   26.8502 C.3     1  UNL1        0.0629
     27 C           1.1414    2.2236   27.6072 C.ar    1  UNL1        0.0591
     28 N           2.4638    1.7568   28.1395 N.ar    1  UNL1       -0.2351
     29 C           2.5538    0.4649   28.8965 C.ar    1  UNL1        0.1339
     30 C           1.3213   -0.3601   29.1212 C.ar    1  UNL1        0.0342
     31 C          -0.0010    0.1067   28.5889 C.ar    1  UNL1        0.0011
     32 C          -0.0910    1.3985   27.8319 C.ar    1  UNL1        0.0076
     33 C          -1.4134    1.8654   27.2996 C.3     1  UNL1        0.1003
     34 N          -5.4707    4.5576   24.9458 N.3     1  UNL1       -0.2726
     35 C          -4.5125    3.8355   24.0455 C.3     1  UNL1        0.0735
     36 C          -3.1901    3.3687   24.5778 C.3     1  UNL1        0.0333
     37 C          -2.8258    3.6240   26.0103 C.3     1  UNL1        0.0606
     38 C          -3.7840    4.3461   26.9106 C.3     1  UNL1        0.0333
     39 C          -5.1064    4.8129   26.3784 C.3     1  UNL1        0.0735
     40 C          -7.3424    4.4354   23.1482 C.3     1  UNL1        0.0188
     41 C          -6.7931    5.0244   24.4136 C.3     1  UNL1        0.0721
@<TRIPOS>BOND
     1    40    41    1
     2    41    34    1
     3    34    35    1
     4    35    36    1
     5    36    37    1
     6    37    24    1
     7    24    25    1
     8    25    26    1
     9    26    27    1
    10    27    28   ar
    11    28    29   ar
    12    29    22    1
    13    22     1    1
    14     1     2   ar
    15     2     3   ar
    16     3     4   ar
    17     4     5    1
    18     4     6   ar
    19     6     8    1
    20     8     9   ar
    21     9    10   ar
    22    10    11    1
    23    10    12   ar
    24    12    13   ar
    25    13    14   ar
    26    14    15    1
    27    14    16   ar
    28    16    19    1
    29    19    20    1
    30    19    21    1
    31    16    17   ar
    32    17    18   ar
    33     6     7   ar
    34    29    30   ar
    35    30    31   ar
    36    31    32   ar
    37    32    33    1
    38    37    38    1
    39    38    39    1
    40    39    34    1
    41    33    24    1
    42    32    27   ar
    43     7     1   ar
    44    18     8   ar
    45    17    12   ar
    46    22    23    1
