@<TRIPOS>MOLECULE
*****
 19 20 0 0 0
SMALL
GASTEIGER

@<TRIPOS>ATOM
      1 C         -10.9723  -18.5821   22.2288 C.ar    1  UNL1       -0.0228
      2 C         -11.0011  -18.9634   20.7784 C.ar    1  UNL1       -0.0038
      3 C          -9.7251  -19.3027   20.0666 C.ar    1  UNL1        0.0058
      4 C          -8.4202  -19.2607   20.8053 C.ar    1  UNL1        0.0252
      5 C          -8.3914  -18.8794   22.2557 C.ar    1  UNL1        0.0058
      6 C          -9.6674  -18.5401   22.9675 C.ar    1  UNL1       -0.0038
      7 C         -11.6596  -18.7336   24.2300 C.3     1  UNL1        0.0044
      8 C         -12.2483  -18.2428   22.9406 C.3     1  UNL1        0.0189
      9 C         -12.8370  -17.7519   21.6512 C.3     1  UNL1        0.0044
     10 C         -13.5243  -17.9034   23.6524 C.3     1  UNL1        0.0044
     11 S          -7.1442  -19.6000   20.0935 S.3     1  UNL1       -0.1133
     12 C          -5.9264  -19.9853   20.8798 C.3     1  UNL1        0.0685
     13 C          -4.7008  -20.4797   20.1702 C.3     1  UNL1        0.0572
     14 C          -3.4016  -19.7442   20.3163 C.ar    1  UNL1        0.0550
     15 C          -2.5277  -19.7317   21.5354 C.ar    1  UNL1        0.1131
     16 N          -1.3343  -18.8719   21.2415 N.ar    1  UNL1       -0.2229
     17 C          -1.4706  -18.3529   19.8406 C.ar    1  UNL1        0.1748
     18 N          -2.7483  -18.8920   19.2689 N.ar    1  UNL1       -0.3382
     19 H          -3.0968  -18.7173   18.3649 H       1  UNL1        0.1672
@<TRIPOS>BOND
     1     7     8    1
     2     8     9    1
     3     8    10    1
     4     8     1    1
     5     1     2   ar
     6     2     3   ar
     7     3     4   ar
     8     4    11    1
     9    11    12    1
    10    12    13    1
    11    13    14    1
    12    14    15   ar
    13    15    16   ar
    14    16    17   ar
    15    17    18   ar
    16     4     5   ar
    17     5     6   ar
    18     6     1   ar
    19    18    14   ar
    20    18    19    1
@<TRIPOS>MOLECULE
*****
 19 20 0 0 0
SMALL
GASTEIGER

@<TRIPOS>ATOM
      1 C          -9.4957  -19.0172   21.2513 C.ar    1  UNL1       -0.0228
      2 C          -8.5307  -19.1070   22.3961 C.ar    1  UNL1       -0.0038
      3 C          -7.1036  -19.4951   22.1454 C.ar    1  UNL1        0.0058
      4 C          -6.6416  -19.7934   20.7499 C.ar    1  UNL1        0.0252
      5 C          -7.6066  -19.7037   19.6051 C.ar    1  UNL1        0.0058
      6 C          -9.0336  -19.3155   19.8558 C.ar    1  UNL1       -0.0038
      7 C         -11.2144  -20.0170   21.9906 C.3     1  UNL1        0.0044
      8 C         -10.9228  -18.6291   21.5019 C.3     1  UNL1        0.0189
      9 C         -10.6311  -17.2412   21.0133 C.3     1  UNL1        0.0044
     10 C         -12.3498  -18.2410   21.7526 C.3     1  UNL1        0.0044
     11 S          -5.2145  -20.1816   20.4992 S.3     1  UNL1       -0.1133
     12 C          -4.1595  -19.8569   21.5148 C.3     1  UNL1        0.0685
     13 C          -3.6731  -18.4460   21.6663 C.3     1  UNL1        0.0572
     14 C          -2.3974  -18.0172   21.0038 C.ar    1  UNL1        0.0550
     15 C          -1.7433  -16.6739   21.1366 C.ar    1  UNL1        0.1131
     16 N          -0.4935  -16.6829   20.3072 N.ar    1  UNL1       -0.2229
     17 C          -0.3752  -18.0319   19.6618 C.ar    1  UNL1        0.1748
     18 N          -1.5519  -18.8565   20.0924 N.ar    1  UNL1       -0.3382
     19 H          -1.7368  -19.7854   19.8239 H       1  UNL1        0.1672
@<TRIPOS>BOND
     1     7     8    1
     2     8     9    1
     3     8    10    1
     4     8     1    1
     5     1     2   ar
     6     2     3   ar
     7     3     4   ar
     8     4    11    1
     9    11    12    1
    10    12    13    1
    11    13    14    1
    12    14    15   ar
    13    15    16   ar
    14    16    17   ar
    15    17    18   ar
    16     4     5   ar
    17     5     6   ar
    18     6     1   ar
    19    18    14   ar
    20    18    19    1
@<TRIPOS>MOLECULE
*****
 19 20 0 0 0
SMALL
GASTEIGER

@<TRIPOS>ATOM
      1 C         -15.7569   -7.5078   19.2675 C.ar    1  UNL1       -0.0228
      2 C         -15.0947   -8.5018   18.3601 C.ar    1  UNL1       -0.0038
      3 C         -13.6874   -8.2714   17.8950 C.ar    1  UNL1        0.0058
      4 C         -12.9422   -7.0471   18.3372 C.ar    1  UNL1        0.0252
      5 C         -13.6044   -6.0531   19.2446 C.ar    1  UNL1        0.0058
      6 C         -15.0117   -6.2834   19.7098 C.ar    1  UNL1       -0.0038
      7 C         -17.4992   -6.3083   19.4273 C.3     1  UNL1        0.0044
      8 C         -17.1642   -7.7382   19.7327 C.3     1  UNL1        0.0189
      9 C         -16.8292   -9.1680   20.0381 C.3     1  UNL1        0.0044
     10 C         -18.5715   -7.9685   20.1979 C.3     1  UNL1        0.0044
     11 S         -11.5349   -6.8167   17.8720 S.3     1  UNL1       -0.1133
     12 C         -10.4269   -6.6793   18.8737 C.3     1  UNL1        0.0685
     13 C          -9.5745   -5.4451   18.8846 C.3     1  UNL1        0.0572
     14 C         -10.1641   -4.1228   18.4923 C.ar    1  UNL1        0.0550
     15 C          -9.8878   -3.3766   17.2207 C.ar    1  UNL1        0.1131
     16 N         -10.6865   -2.1072   17.2452 N.ar    1  UNL1       -0.2229
     17 C         -11.4565   -2.0688   18.5320 C.ar    1  UNL1        0.1748
     18 N         -11.1336   -3.3145   19.3027 N.ar    1  UNL1       -0.3382
     19 H         -11.4947   -3.5588   20.1854 H       1  UNL1        0.1672
@<TRIPOS>BOND
     1     7     8    1
     2     8     9    1
     3     8    10    1
     4     8     1    1
     5     1     2   ar
     6     2     3   ar
     7     3     4   ar
     8     4    11    1
     9    11    12    1
    10    12    13    1
    11    13    14    1
    12    14    15   ar
    13    15    16   ar
    14    16    17   ar
    15    17    18   ar
    16     4     5   ar
    17     5     6   ar
    18     6     1   ar
    19    18    14   ar
    20    18    19    1
@<TRIPOS>MOLECULE
*****
 19 20 0 0 0
SMALL
GASTEIGER

@<TRIPOS>ATOM
      1 C         -15.0402   -6.8222   19.2099 C.ar    1  UNL1       -0.0228
      2 C         -14.3164   -7.8655   18.4114 C.ar    1  UNL1       -0.0038
      3 C         -12.8308   -7.7718   18.2266 C.ar    1  UNL1        0.0058
      4 C         -12.0689   -6.6349   18.8405 C.ar    1  UNL1        0.0252
      5 C         -12.7927   -5.5916   19.6391 C.ar    1  UNL1        0.0058
      6 C         -14.2783   -5.6853   19.8238 C.ar    1  UNL1       -0.0038
      7 C         -16.6578   -5.4566   19.0738 C.3     1  UNL1        0.0044
      8 C         -16.5258   -6.9159   19.3947 C.3     1  UNL1        0.0189
      9 C         -16.3939   -8.3752   19.7155 C.3     1  UNL1        0.0044
     10 C         -18.0115   -7.0096   19.5794 C.3     1  UNL1        0.0044
     11 S         -10.5833   -6.5412   18.6558 S.3     1  UNL1       -0.1133
     12 C          -9.9049   -5.2041   18.6998 C.3     1  UNL1        0.0685
     13 C          -9.9287   -4.3109   17.4950 C.3     1  UNL1        0.0572
     14 C         -10.4277   -2.9015   17.6160 C.ar    1  UNL1        0.0550
     15 C         -11.4048   -2.3967   18.6360 C.ar    1  UNL1        0.1131
     16 N         -11.6183   -0.9327   18.3887 N.ar    1  UNL1       -0.2229
     17 C         -10.7731   -0.5328   17.2157 C.ar    1  UNL1        0.1748
     18 N         -10.0373   -1.7496   16.7382 N.ar    1  UNL1       -0.3382
     19 H          -9.4086   -1.7858   15.9814 H       1  UNL1        0.1672
@<TRIPOS>BOND
     1     7     8    1
     2     8     9    1
     3     8    10    1
     4     8     1    1
     5     1     2   ar
     6     2     3   ar
     7     3     4   ar
     8     4    11    1
     9    11    12    1
    10    12    13    1
    11    13    14    1
    12    14    15   ar
    13    15    16   ar
    14    16    17   ar
    15    17    18   ar
    16     4     5   ar
    17     5     6   ar
    18     6     1   ar
    19    18    14   ar
    20    18    19    1
@<TRIPOS>MOLECULE
*****
 19 20 0 0 0
SMALL
GASTEIGER

@<TRIPOS>ATOM
      1 C         -12.5460   -5.8723   18.5195 C.ar    1  UNL1       -0.0228
      2 C         -13.1510   -5.4888   19.8374 C.ar    1  UNL1       -0.0038
      3 C         -14.6374   -5.3304   19.9625 C.ar    1  UNL1        0.0058
      4 C         -15.5187   -5.5555   18.7698 C.ar    1  UNL1        0.0252
      5 C         -14.9136   -5.9391   17.4520 C.ar    1  UNL1        0.0058
      6 C         -13.4273   -6.0975   17.3268 C.ar    1  UNL1       -0.0038
      7 C         -11.2555   -7.3866   17.7835 C.3     1  UNL1        0.0044
      8 C         -11.0596   -6.0307   18.3944 C.3     1  UNL1        0.0189
      9 C         -10.8637   -4.6748   19.0052 C.3     1  UNL1        0.0044
     10 C          -9.5732   -6.1891   18.2692 C.3     1  UNL1        0.0044
     11 S         -17.0050   -5.3972   18.8950 S.3     1  UNL1       -0.1133
     12 C         -17.8777   -6.6071   19.0513 C.3     1  UNL1        0.0685
     13 C         -17.4602   -7.7198   19.9665 C.3     1  UNL1        0.0572
     14 C         -16.9705   -9.0173   19.3947 C.ar    1  UNL1        0.0550
     15 C         -15.6574   -9.2365   18.7036 C.ar    1  UNL1        0.1131
     16 N         -15.5833  -10.6780   18.2955 N.ar    1  UNL1       -0.2229
     17 C         -16.8506  -11.3497   18.7345 C.ar    1  UNL1        0.1748
     18 N         -17.7080  -10.3234   19.4138 N.ar    1  UNL1       -0.3382
     19 H         -18.5983  -10.4795   19.8038 H       1  UNL1        0.1672
@<TRIPOS>BOND
     1     7     8    1
     2     8     9    1
     3     8    10    1
     4     8     1    1
     5     1     2   ar
     6     2     3   ar
     7     3     4   ar
     8     4    11    1
     9    11    12    1
    10    12    13    1
    11    13    14    1
    12    14    15   ar
    13    15    16   ar
    14    16    17   ar
    15    17    18   ar
    16     4     5   ar
    17     5     6   ar
    18     6     1   ar
    19    18    14   ar
    20    18    19    1
@<TRIPOS>MOLECULE
*****
 19 20 0 0 0
SMALL
GASTEIGER

@<TRIPOS>ATOM
      1 C          -9.2291  -17.3584   22.0981 C.ar    1  UNL1       -0.0228
      2 C          -8.9843  -16.1390   22.9366 C.ar    1  UNL1       -0.0038
      3 C          -7.6304  -15.9009   23.5367 C.ar    1  UNL1        0.0058
      4 C          -6.5212  -16.8822   23.2983 C.ar    1  UNL1        0.0252
      5 C          -6.7660  -18.1016   22.4598 C.ar    1  UNL1        0.0058
      6 C          -8.1200  -18.3397   21.8597 C.ar    1  UNL1       -0.0038
      7 C          -9.9989  -18.6421   20.5949 C.3     1  UNL1        0.0044
      8 C         -10.5830  -17.5965   21.4979 C.3     1  UNL1        0.0189
      9 C         -11.1672  -16.5510   22.4010 C.3     1  UNL1        0.0044
     10 C         -11.9370  -17.8347   20.8978 C.3     1  UNL1        0.0044
     11 S          -5.1673  -16.6440   23.8984 S.3     1  UNL1       -0.1133
     12 C          -3.9932  -16.3566   23.0102 C.3     1  UNL1        0.0685
     13 C          -2.9794  -17.4278   22.7372 C.3     1  UNL1        0.0572
     14 C          -3.1617  -18.3534   21.5708 C.ar    1  UNL1        0.0550
     15 C          -2.7003  -18.1026   20.1658 C.ar    1  UNL1        0.1131
     16 N          -3.0909  -19.2863   19.3313 N.ar    1  UNL1       -0.2229
     17 C          -3.7937  -20.2686   20.2208 C.ar    1  UNL1        0.1748
     18 N          -3.8375  -19.6920   21.6048 N.ar    1  UNL1       -0.3382
     19 H          -4.2393  -20.1175   22.3965 H       1  UNL1        0.1672
@<TRIPOS>BOND
     1     7     8    1
     2     8     9    1
     3     8    10    1
     4     8     1    1
     5     1     2   ar
     6     2     3   ar
     7     3     4   ar
     8     4    11    1
     9    11    12    1
    10    12    13    1
    11    13    14    1
    12    14    15   ar
    13    15    16   ar
    14    16    17   ar
    15    17    18   ar
    16     4     5   ar
    17     5     6   ar
    18     6     1   ar
    19    18    14   ar
    20    18    19    1
@<TRIPOS>MOLECULE
*****
 19 20 0 0 0
SMALL
GASTEIGER

@<TRIPOS>ATOM
      1 C           0.8946    0.9423   29.4553 C.ar    1  UNL1       -0.0228
      2 C           1.6943   -0.2976   29.1850 C.ar    1  UNL1       -0.0038
      3 C           2.7181   -0.7612   30.1784 C.ar    1  UNL1        0.0058
      4 C           2.9421    0.0150   31.4422 C.ar    1  UNL1        0.0252
      5 C           2.1424    1.2549   31.7125 C.ar    1  UNL1        0.0058
      6 C           1.1186    1.7185   30.7191 C.ar    1  UNL1       -0.0038
      7 C          -1.0183    0.2595   28.8431 C.3     1  UNL1        0.0044
      8 C          -0.1292    1.4059   28.4619 C.3     1  UNL1        0.0189
      9 C           0.7598    2.5523   28.0807 C.3     1  UNL1        0.0044
     10 C          -1.1530    1.8696   27.4685 C.3     1  UNL1        0.0044
     11 S           3.9659   -0.4486   32.4356 S.3     1  UNL1       -0.1133
     12 C           4.2439   -1.9136   32.5978 C.3     1  UNL1        0.0685
     13 C           5.6455   -2.3885   32.8430 C.3     1  UNL1        0.0572
     14 C           6.2036   -3.5253   32.0392 C.ar    1  UNL1        0.0550
     15 C           6.6398   -3.4608   30.6054 C.ar    1  UNL1        0.1131
     16 N           7.1293   -4.8218   30.2081 N.ar    1  UNL1       -0.2229
     17 C           6.9957   -5.7276   31.3963 C.ar    1  UNL1        0.1748
     18 N           6.4236   -4.9263   32.5280 N.ar    1  UNL1       -0.3382
     19 H           6.2271   -5.2611   33.4327 H       1  UNL1        0.1672
@<TRIPOS>BOND
     1     7     8    1
     2     8     9    1
     3     8    10    1
     4     8     1    1
     5     1     2   ar
     6     2     3   ar
     7     3     4   ar
     8     4    11    1
     9    11    12    1
    10    12    13    1
    11    13    14    1
    12    14    15   ar
    13    15    16   ar
    14    16    17   ar
    15    17    18   ar
    16     4     5   ar
    17     5     6   ar
    18     6     1   ar
    19    18    14   ar
    20    18    19    1
@<TRIPOS>MOLECULE
*****
 19 20 0 0 0
SMALL
GASTEIGER

@<TRIPOS>ATOM
      1 C           2.6780   -0.5321   19.0799 C.ar    1  UNL1       -0.0228
      2 C           1.6763   -0.9395   20.1195 C.ar    1  UNL1       -0.0038
      3 C           0.6304    0.0342   20.5756 C.ar    1  UNL1        0.0058
      4 C           0.5862    1.4153   19.9921 C.ar    1  UNL1        0.0252
      5 C           1.5879    1.8227   18.9526 C.ar    1  UNL1        0.0058
      6 C           2.6337    0.8490   18.4965 C.ar    1  UNL1       -0.0038
      7 C           3.8741   -0.7434   17.3408 C.3     1  UNL1        0.0044
      8 C           3.7238   -1.5058   18.6239 C.3     1  UNL1        0.0189
      9 C           3.5735   -2.2682   19.9069 C.3     1  UNL1        0.0044
     10 C           4.7697   -2.4796   18.1678 C.3     1  UNL1        0.0044
     11 S          -0.4597    2.3890   20.4482 S.3     1  UNL1       -0.1133
     12 C          -0.9853    3.4246   19.4988 C.3     1  UNL1        0.0685
     13 C          -2.4614    3.6732   19.4022 C.3     1  UNL1        0.0572
     14 C          -3.3038    3.6789   20.6434 C.ar    1  UNL1        0.0550
     15 C          -3.2646    4.7114   21.7308 C.ar    1  UNL1        0.1131
     16 N          -4.2698    4.3237   22.7745 N.ar    1  UNL1       -0.2229
     17 C          -4.9302    3.0516   22.3320 C.ar    1  UNL1        0.1748
     18 N          -4.3331    2.6531   21.0150 N.ar    1  UNL1       -0.3382
     19 H          -4.5745    1.8579   20.4871 H       1  UNL1        0.1672
@<TRIPOS>BOND
     1     7     8    1
     2     8     9    1
     3     8    10    1
     4     8     1    1
     5     1     2   ar
     6     2     3   ar
     7     3     4   ar
     8     4    11    1
     9    11    12    1
    10    12    13    1
    11    13    14    1
    12    14    15   ar
    13    15    16   ar
    14    16    17   ar
    15    17    18   ar
    16     4     5   ar
    17     5     6   ar
    18     6     1   ar
    19    18    14   ar
    20    18    19    1
@<TRIPOS>MOLECULE
*****
 19 20 0 0 0
SMALL
GASTEIGER

@<TRIPOS>ATOM
      1 C           3.6202   -2.0839   18.8925 C.ar    1  UNL1       -0.0228
      2 C           3.7717   -1.0350   17.8310 C.ar    1  UNL1       -0.0038
      3 C           3.0251    0.2610   17.9454 C.ar    1  UNL1        0.0058
      4 C           2.1270    0.5080   19.1211 C.ar    1  UNL1        0.0252
      5 C           1.9756   -0.5409   20.1826 C.ar    1  UNL1        0.0058
      6 C           2.7222   -1.8369   20.0682 C.ar    1  UNL1       -0.0038
      7 C           3.1575   -4.1198   19.2682 C.3     1  UNL1        0.0044
      8 C           4.3668   -3.3799   18.7782 C.3     1  UNL1        0.0189
      9 C           5.5761   -2.6400   18.2881 C.3     1  UNL1        0.0044
     10 C           5.1134   -4.6758   18.6638 C.3     1  UNL1        0.0044
     11 S           1.3805    1.8040   19.2354 S.3     1  UNL1       -0.1133
     12 C           0.1291    1.8785   20.0592 C.3     1  UNL1        0.0685
     13 C          -0.8139    3.0324   19.8880 C.3     1  UNL1        0.0572
     14 C          -1.9862    3.1862   20.8111 C.ar    1  UNL1        0.0550
     15 C          -1.9373    3.6962   22.2209 C.ar    1  UNL1        0.1131
     16 N          -3.3341    3.6823   22.7676 N.ar    1  UNL1       -0.2229
     17 C          -4.2462    3.1637   21.6956 C.ar    1  UNL1        0.1748
     18 N          -3.4132    2.8572   20.4864 N.ar    1  UNL1       -0.3382
     19 H          -3.7448    2.5023   19.6301 H       1  UNL1        0.1672
@<TRIPOS>BOND
     1     7     8    1
     2     8     9    1
     3     8    10    1
     4     8     1    1
     5     1     2   ar
     6     2     3   ar
     7     3     4   ar
     8     4    11    1
     9    11    12    1
    10    12    13    1
    11    13    14    1
    12    14    15   ar
    13    15    16   ar
    14    16    17   ar
    15    17    18   ar
    16     4     5   ar
    17     5     6   ar
    18     6     1   ar
    19    18    14   ar
    20    18    19    1
