@<TRIPOS>MOLECULE
*****
 28 31 0 0 0
SMALL
GASTEIGER

@<TRIPOS>ATOM
      1 C           5.6798   -0.7083   17.4488 C.3     1  UNL1        0.0307
      2 C           4.4080   -0.5387   18.2260 C.ar    1  UNL1       -0.0248
      3 C           3.5708    0.6912   18.0351 C.ar    1  UNL1       -0.0074
      4 C           2.2990    0.8608   18.8122 C.ar    1  UNL1       -0.0066
      5 C           1.8645   -0.1994   19.7803 C.ar    1  UNL1       -0.0231
      6 C           2.7018   -1.4293   19.9712 C.ar    1  UNL1       -0.0077
      7 C           3.9735   -1.5989   19.1940 C.ar    1  UNL1       -0.0104
      8 C           0.5928   -0.0298   20.5574 C.3     1  UNL1        0.0476
      9 C          -0.2444    1.2000   20.3665 C.3     1  UNL1        0.0987
     10 N           0.1901    2.2603   19.3985 N.am    1  UNL1       -0.2705
     11 C          -0.6472    3.4902   19.2076 C.2     1  UNL1        0.2652
     12 O          -0.2127    4.5504   18.2396 O.2     1  UNL1       -0.2683
     13 C           1.4618    2.0907   18.6213 C.3     1  UNL1        0.1202
     14 C          -1.9189    3.6598   19.9847 C.ar    1  UNL1        0.1143
     15 C          -2.0425    3.6818   21.4795 C.ar    1  UNL1        0.0233
     16 C          -3.4902    3.8728   21.8222 C.ar    1  UNL1        0.0182
     17 C          -4.2060    3.9717   23.1366 C.ar    1  UNL1        0.0129
     18 C          -5.6929    4.1666   23.1682 C.ar    1  UNL1        0.0578
     19 CL         -6.4087    4.2655   24.4827 Cl      1  UNL1       -0.0822
     20 C          -6.4641    4.2626   21.8852 C.ar    1  UNL1        0.0129
     21 C          -5.7484    4.1637   20.5707 C.ar    1  UNL1        0.0181
     22 C          -4.2614    3.9688   20.5391 C.ar    1  UNL1        0.0601
     23 N          -3.2903    3.8371   19.4036 N.ar    1  UNL1       -0.3216
     24 C          -3.6308    3.8760   17.9433 C.3     1  UNL1        0.1306
     25 C           4.8108   -2.8288   19.3849 C.3     1  UNL1        0.0989
     26 N           4.3165   -3.9447   20.2569 N.3     1  UNL1       -0.2665
     27 C           4.6054   -3.9307   21.7287 C.3     1  UNL1        0.0899
     28 C           3.5331   -5.0746   19.6571 C.3     1  UNL1        0.0899
@<TRIPOS>BOND
     1     1     2    1
     2     2     3   ar
     3     3     4   ar
     4     4     5   ar
     5     5     6   ar
     6     6     7   ar
     7     7    25    1
     8    25    26    1
     9    26    27    1
    10    26    28    1
    11     5     8    1
    12     8     9    1
    13     9    10    1
    14    10    11   am
    15    11    12    2
    16    11    14    1
    17    14    15   ar
    18    15    16   ar
    19    16    17   ar
    20    17    18   ar
    21    18    19    1
    22    18    20   ar
    23    20    21   ar
    24    21    22   ar
    25    22    23   ar
    26    23    24    1
    27    10    13    1
    28     7     2   ar
    29    23    14   ar
    30    13     4    1
    31    22    16   ar
@<TRIPOS>MOLECULE
*****
 28 31 0 0 0
SMALL
GASTEIGER

@<TRIPOS>ATOM
      1 C           8.8820   -7.6038   29.0684 C.3     1  UNL1        0.0307
      2 C           8.2491   -6.6409   28.1079 C.ar    1  UNL1       -0.0248
      3 C           8.6063   -6.6900   26.6520 C.ar    1  UNL1       -0.0074
      4 C           7.9734   -5.7270   25.6915 C.ar    1  UNL1       -0.0066
      5 C           6.9833   -4.7151   26.1872 C.ar    1  UNL1       -0.0231
      6 C           6.6261   -4.6660   27.6433 C.ar    1  UNL1       -0.0077
      7 C           7.2590   -5.6289   28.6036 C.ar    1  UNL1       -0.0104
      8 C           6.3504   -3.7522   25.2269 C.3     1  UNL1        0.0476
      9 C           6.7076   -3.8013   23.7709 C.3     1  UNL1        0.0987
     10 N           7.6976   -4.8132   23.2752 N.am    1  UNL1       -0.2705
     11 C           8.0548   -4.8623   21.8192 C.2     1  UNL1        0.2652
     12 O           9.0449   -5.8742   21.3235 O.2     1  UNL1       -0.2683
     13 C           8.3305   -5.7761   24.2356 C.3     1  UNL1        0.1202
     14 C           7.4219   -3.8994   20.8588 C.ar    1  UNL1        0.1143
     15 C           6.1105   -4.0891   20.1557 C.ar    1  UNL1        0.0233
     16 C           5.8674   -2.8847   19.2953 C.ar    1  UNL1        0.0182
     17 C           4.7388   -2.5178   18.3780 C.ar    1  UNL1        0.0129
     18 C           4.7712   -1.2168   17.6320 C.ar    1  UNL1        0.0578
     19 CL          3.6426   -0.8499   16.7147 Cl      1  UNL1       -0.0822
     20 C           5.9323   -0.2828   17.8034 C.ar    1  UNL1        0.0129
     21 C           7.0610   -0.6496   18.7208 C.ar    1  UNL1        0.0181
     22 C           7.0286   -1.9506   19.4667 C.ar    1  UNL1        0.0601
     23 N           7.9893   -2.5777   20.4330 N.ar    1  UNL1       -0.3216
     24 C           9.2891   -1.9869   20.8927 C.3     1  UNL1        0.1306
     25 C           6.9019   -5.5799   30.0597 C.3     1  UNL1        0.0989
     26 N           7.4619   -4.4967   30.9332 N.3     1  UNL1       -0.2665
     27 C           8.9461   -4.3002   31.0259 C.3     1  UNL1        0.0899
     28 C           6.5378   -3.6099   31.7141 C.3     1  UNL1        0.0899
@<TRIPOS>BOND
     1     1     2    1
     2     2     3   ar
     3     3     4   ar
     4     4     5   ar
     5     5     6   ar
     6     6     7   ar
     7     7    25    1
     8    25    26    1
     9    26    27    1
    10    26    28    1
    11     5     8    1
    12     8     9    1
    13     9    10    1
    14    10    11   am
    15    11    12    2
    16    11    14    1
    17    14    15   ar
    18    15    16   ar
    19    16    17   ar
    20    17    18   ar
    21    18    19    1
    22    18    20   ar
    23    20    21   ar
    24    21    22   ar
    25    22    23   ar
    26    23    24    1
    27    10    13    1
    28     7     2   ar
    29    23    14   ar
    30    13     4    1
    31    22    16   ar
@<TRIPOS>MOLECULE
*****
 28 31 0 0 0
SMALL
GASTEIGER

@<TRIPOS>ATOM
      1 C           8.8258   -6.5327   27.4293 C.3     1  UNL1        0.0307
      2 C           8.1152   -5.3715   26.7994 C.ar    1  UNL1       -0.0248
      3 C           7.6983   -5.4386   25.3601 C.ar    1  UNL1       -0.0074
      4 C           6.9876   -4.2774   24.7302 C.ar    1  UNL1       -0.0066
      5 C           6.6940   -3.0492   25.5397 C.ar    1  UNL1       -0.0231
      6 C           7.1110   -2.9822   26.9791 C.ar    1  UNL1       -0.0077
      7 C           7.8215   -4.1433   27.6089 C.ar    1  UNL1       -0.0104
      8 C           5.9834   -1.8880   24.9099 C.3     1  UNL1        0.0476
      9 C           5.5665   -1.9551   23.4706 C.3     1  UNL1        0.0987
     10 N           5.8601   -3.1833   22.6611 N.am    1  UNL1       -0.2705
     11 C           5.4431   -3.2503   21.2217 C.2     1  UNL1        0.2652
     12 O           5.7368   -4.4785   20.4123 O.2     1  UNL1       -0.2683
     13 C           6.5707   -4.3445   23.2909 C.3     1  UNL1        0.1202
     14 C           4.7326   -2.0892   20.5919 C.ar    1  UNL1        0.1143
     15 C           3.2496   -1.9570   20.4088 C.ar    1  UNL1        0.0233
     16 C           2.9807   -0.6424   19.7383 C.ar    1  UNL1        0.0182
     17 C           1.7070    0.0231   19.3085 C.ar    1  UNL1        0.0129
     18 C           1.7500    1.3688   18.6474 C.ar    1  UNL1        0.0578
     19 CL          0.4763    2.0343   18.2176 Cl      1  UNL1       -0.0822
     20 C           3.0666    2.0491   18.4161 C.ar    1  UNL1        0.0129
     21 C           4.3404    1.3836   18.8460 C.ar    1  UNL1        0.0181
     22 C           4.2974    0.0379   19.5071 C.ar    1  UNL1        0.0601
     23 N           5.3801   -0.8563   20.0346 N.ar    1  UNL1       -0.3216
     24 C           6.8519   -0.5681   20.0093 C.3     1  UNL1        0.1306
     25 C           8.2385   -4.0763   29.0483 C.3     1  UNL1        0.0989
     26 N           7.2310   -4.3178   30.1330 N.3     1  UNL1       -0.2665
     27 C           6.9726   -5.7129   30.6196 C.3     1  UNL1        0.0899
     28 C           6.4818   -3.1640   30.7311 C.3     1  UNL1        0.0899
@<TRIPOS>BOND
     1     1     2    1
     2     2     3   ar
     3     3     4   ar
     4     4     5   ar
     5     5     6   ar
     6     6     7   ar
     7     7    25    1
     8    25    26    1
     9    26    27    1
    10    26    28    1
    11     5     8    1
    12     8     9    1
    13     9    10    1
    14    10    11   am
    15    11    12    2
    16    11    14    1
    17    14    15   ar
    18    15    16   ar
    19    16    17   ar
    20    17    18   ar
    21    18    19    1
    22    18    20   ar
    23    20    21   ar
    24    21    22   ar
    25    22    23   ar
    26    23    24    1
    27    10    13    1
    28     7     2   ar
    29    23    14   ar
    30    13     4    1
    31    22    16   ar
@<TRIPOS>MOLECULE
*****
 28 31 0 0 0
SMALL
GASTEIGER

@<TRIPOS>ATOM
      1 C           8.7506   -7.8554   28.3214 C.3     1  UNL1        0.0307
      2 C           8.1003   -6.7357   27.5641 C.ar    1  UNL1       -0.0248
      3 C           8.2579   -6.6466   26.0751 C.ar    1  UNL1       -0.0074
      4 C           7.6076   -5.5269   25.3177 C.ar    1  UNL1       -0.0066
      5 C           6.7997   -4.4964   26.0495 C.ar    1  UNL1       -0.0231
      6 C           6.6421   -4.5856   27.5385 C.ar    1  UNL1       -0.0077
      7 C           7.2924   -5.7053   28.2958 C.ar    1  UNL1       -0.0104
      8 C           6.1494   -3.3768   25.2922 C.3     1  UNL1        0.0476
      9 C           6.3070   -3.2876   23.8032 C.3     1  UNL1        0.0987
     10 N           7.1149   -4.3181   23.0715 N.am    1  UNL1       -0.2705
     11 C           7.2724   -4.2289   21.5824 C.2     1  UNL1        0.2652
     12 O           8.0803   -5.2594   20.8506 O.2     1  UNL1       -0.2683
     13 C           7.7652   -5.4377   23.8287 C.3     1  UNL1        0.1202
     14 C           6.6221   -3.1093   20.8251 C.ar    1  UNL1        0.1143
     15 C           7.2458   -1.7835   20.5032 C.ar    1  UNL1        0.0233
     16 C           6.2431   -0.9737   19.7359 C.ar    1  UNL1        0.0182
     17 C           6.3015    0.4085   19.1563 C.ar    1  UNL1        0.0129
     18 C           5.1166    0.9656   18.4243 C.ar    1  UNL1        0.0578
     19 CL          5.1751    2.3478   17.8447 Cl      1  UNL1       -0.0822
     20 C           3.8733    0.1404   18.2720 C.ar    1  UNL1        0.0129
     21 C           3.8148   -1.2419   18.8517 C.ar    1  UNL1        0.0181
     22 C           4.9997   -1.7989   19.5837 C.ar    1  UNL1        0.0601
     23 N           5.2340   -3.1187   20.2568 N.ar    1  UNL1       -0.3216
     24 C           4.2525   -4.2495   20.3460 C.3     1  UNL1        0.1306
     25 C           7.1349   -5.7945   29.7849 C.3     1  UNL1        0.0989
     26 N           7.6594   -4.6962   30.6617 N.3     1  UNL1       -0.2665
     27 C           6.7077   -3.8499   31.4541 C.3     1  UNL1        0.0899
     28 C           9.1358   -4.4443   30.7460 C.3     1  UNL1        0.0899
@<TRIPOS>BOND
     1     1     2    1
     2     2     3   ar
     3     3     4   ar
     4     4     5   ar
     5     5     6   ar
     6     6     7   ar
     7     7    25    1
     8    25    26    1
     9    26    27    1
    10    26    28    1
    11     5     8    1
    12     8     9    1
    13     9    10    1
    14    10    11   am
    15    11    12    2
    16    11    14    1
    17    14    15   ar
    18    15    16   ar
    19    16    17   ar
    20    17    18   ar
    21    18    19    1
    22    18    20   ar
    23    20    21   ar
    24    21    22   ar
    25    22    23   ar
    26    23    24    1
    27    10    13    1
    28     7     2   ar
    29    23    14   ar
    30    13     4    1
    31    22    16   ar
@<TRIPOS>MOLECULE
*****
 28 31 0 0 0
SMALL
GASTEIGER

@<TRIPOS>ATOM
      1 C           1.3137    0.2190   18.9710 C.3     1  UNL1        0.0307
      2 C           1.9694   -0.1915   20.2562 C.ar    1  UNL1       -0.0248
      3 C           1.5874    0.4812   21.5413 C.ar    1  UNL1       -0.0074
      4 C           2.2431    0.0707   22.8265 C.ar    1  UNL1       -0.0066
      5 C           3.2808   -1.0125   22.8265 C.ar    1  UNL1       -0.0231
      6 C           3.6628   -1.6851   21.5413 C.ar    1  UNL1       -0.0077
      7 C           3.0071   -1.2746   20.2562 C.ar    1  UNL1       -0.0104
      8 C           3.9365   -1.4230   24.1116 C.3     1  UNL1        0.0476
      9 C           3.5545   -0.7503   25.3967 C.3     1  UNL1        0.0987
     10 N           2.5168    0.3328   25.3967 N.am    1  UNL1       -0.2705
     11 C           2.1348    1.0054   26.6820 C.2     1  UNL1        0.2652
     12 O           1.0971    2.0886   26.6820 O.2     1  UNL1       -0.2683
     13 C           1.8611    0.7433   24.1117 C.3     1  UNL1        0.1202
     14 C           2.7905    0.5949   27.9671 C.ar    1  UNL1        0.1143
     15 C           2.2359   -0.3729   28.9700 C.ar    1  UNL1        0.0233
     16 C           3.2185   -0.4858   30.0977 C.ar    1  UNL1        0.0182
     17 C           3.2055   -1.2903   31.3636 C.ar    1  UNL1        0.0129
     18 C           4.3543   -1.1968   32.3235 C.ar    1  UNL1        0.0578
     19 CL          4.3412   -2.0013   33.5894 Cl      1  UNL1       -0.0822
     20 C           5.5161   -0.2988   32.0176 C.ar    1  UNL1        0.0129
     21 C           5.5292    0.5058   30.7516 C.ar    1  UNL1        0.0181
     22 C           4.3804    0.4123   29.7916 C.ar    1  UNL1        0.0601
     23 N           4.1158    1.0802   28.4749 N.ar    1  UNL1       -0.3216
     24 C           5.0182    2.0611   27.7868 C.3     1  UNL1        0.1306
     25 C           3.3891   -1.9473   18.9710 C.3     1  UNL1        0.0989
     26 N           4.1998   -3.2090   18.9970 N.3     1  UNL1       -0.2665
     27 C           3.5371   -4.5202   19.2992 C.3     1  UNL1        0.0899
     28 C           5.6734   -3.1595   18.7207 C.3     1  UNL1        0.0899
@<TRIPOS>BOND
     1     1     2    1
     2     2     3   ar
     3     3     4   ar
     4     4     5   ar
     5     5     6   ar
     6     6     7   ar
     7     7    25    1
     8    25    26    1
     9    26    27    1
    10    26    28    1
    11     5     8    1
    12     8     9    1
    13     9    10    1
    14    10    11   am
    15    11    12    2
    16    11    14    1
    17    14    15   ar
    18    15    16   ar
    19    16    17   ar
    20    17    18   ar
    21    18    19    1
    22    18    20   ar
    23    20    21   ar
    24    21    22   ar
    25    22    23   ar
    26    23    24    1
    27    10    13    1
    28     7     2   ar
    29    23    14   ar
    30    13     4    1
    31    22    16   ar
@<TRIPOS>MOLECULE
*****
 28 31 0 0 0
SMALL
GASTEIGER

@<TRIPOS>ATOM
      1 C           8.1674   -6.1334   30.4157 C.3     1  UNL1        0.0307
      2 C           7.5179   -5.1515   29.4862 C.ar    1  UNL1       -0.0248
      3 C           7.5587   -5.3813   28.0045 C.ar    1  UNL1       -0.0074
      4 C           6.9092   -4.3994   27.0750 C.ar    1  UNL1       -0.0066
      5 C           6.2189   -3.1875   27.6272 C.ar    1  UNL1       -0.0231
      6 C           6.1781   -2.9577   29.1090 C.ar    1  UNL1       -0.0077
      7 C           6.8276   -3.9396   30.0384 C.ar    1  UNL1       -0.0104
      8 C           5.5694   -2.2056   26.6978 C.3     1  UNL1        0.0476
      9 C           5.6102   -2.4355   25.2161 C.3     1  UNL1        0.0987
     10 N           6.3005   -3.6473   24.6638 N.am    1  UNL1       -0.2705
     11 C           6.3413   -3.8772   23.1821 C.2     1  UNL1        0.2652
     12 O           7.0315   -5.0890   22.6298 O.2     1  UNL1       -0.2683
     13 C           6.9500   -4.6293   25.5933 C.3     1  UNL1        0.1202
     14 C           5.6918   -2.8952   22.2526 C.ar    1  UNL1        0.1143
     15 C           4.2653   -2.9297   21.7900 C.ar    1  UNL1        0.0233
     16 C           4.0466   -1.7622   20.8741 C.ar    1  UNL1        0.0182
     17 C           2.8385   -1.2898   20.1209 C.ar    1  UNL1        0.0129
     18 C           2.9217   -0.0613   19.2642 C.ar    1  UNL1        0.0578
     19 CL          1.7137    0.4110   18.5110 Cl      1  UNL1       -0.0822
     20 C           4.2130    0.6948   19.1607 C.ar    1  UNL1        0.0129
     21 C           5.4212    0.2225   19.9140 C.ar    1  UNL1        0.0181
     22 C           5.3380   -1.0060   20.7706 C.ar    1  UNL1        0.0601
     23 N           6.3547   -1.7063   21.6226 N.ar    1  UNL1       -0.3216
     24 C           7.7835   -1.2906   21.8114 C.3     1  UNL1        0.1306
     25 C           6.7868   -3.7098   31.5202 C.3     1  UNL1        0.0989
     26 N           7.7299   -2.7301   32.1534 N.3     1  UNL1       -0.2665
     27 C           9.1962   -3.0382   32.2229 C.3     1  UNL1        0.0899
     28 C           7.2065   -1.4423   32.7171 C.3     1  UNL1        0.0899
@<TRIPOS>BOND
     1     1     2    1
     2     2     3   ar
     3     3     4   ar
     4     4     5   ar
     5     5     6   ar
     6     6     7   ar
     7     7    25    1
     8    25    26    1
     9    26    27    1
    10    26    28    1
    11     5     8    1
    12     8     9    1
    13     9    10    1
    14    10    11   am
    15    11    12    2
    16    11    14    1
    17    14    15   ar
    18    15    16   ar
    19    16    17   ar
    20    17    18   ar
    21    18    19    1
    22    18    20   ar
    23    20    21   ar
    24    21    22   ar
    25    22    23   ar
    26    23    24    1
    27    10    13    1
    28     7     2   ar
    29    23    14   ar
    30    13     4    1
    31    22    16   ar
@<TRIPOS>MOLECULE
*****
 28 31 0 0 0
SMALL
GASTEIGER

@<TRIPOS>ATOM
      1 C           9.4333   -6.7526   23.5971 C.3     1  UNL1        0.0307
      2 C           8.5109   -5.5812   23.4322 C.ar    1  UNL1       -0.0248
      3 C           8.1212   -5.1210   22.0588 C.ar    1  UNL1       -0.0074
      4 C           7.1989   -3.9495   21.8938 C.ar    1  UNL1       -0.0066
      5 C           6.6662   -3.2384   23.1024 C.ar    1  UNL1       -0.0231
      6 C           7.0560   -3.6987   24.4758 C.ar    1  UNL1       -0.0077
      7 C           7.9783   -4.8700   24.6407 C.ar    1  UNL1       -0.0104
      8 C           5.7439   -2.0670   22.9375 C.3     1  UNL1        0.0476
      9 C           5.3542   -1.6068   21.5641 C.3     1  UNL1        0.0987
     10 N           5.8869   -2.3180   20.3555 N.am    1  UNL1       -0.2705
     11 C           5.4971   -1.8577   18.9821 C.2     1  UNL1        0.2652
     12 O           6.0298   -2.5689   17.7735 O.2     1  UNL1       -0.2683
     13 C           6.8092   -3.4893   20.5204 C.3     1  UNL1        0.1202
     14 C           4.5748   -0.6864   18.8172 C.ar    1  UNL1        0.1143
     15 C           3.0793   -0.7486   18.7196 C.ar    1  UNL1        0.0233
     16 C           2.5662    0.6522   18.5631 C.ar    1  UNL1        0.0182
     17 C           1.1783    1.2027   18.4199 C.ar    1  UNL1        0.0129
     18 C           0.9688    2.6811   18.2775 C.ar    1  UNL1        0.0578
     19 CL         -0.4192    3.2316   18.1343 Cl      1  UNL1       -0.0822
     20 C           2.1472    3.6091   18.2784 C.ar    1  UNL1        0.0129
     21 C           3.5353    3.0587   18.4216 C.ar    1  UNL1        0.0181
     22 C           3.7448    1.5802   18.5639 C.ar    1  UNL1        0.0601
     23 N           4.9861    0.7529   18.7210 N.ar    1  UNL1       -0.3216
     24 C           6.3919    1.2736   18.7727 C.3     1  UNL1        0.1306
     25 C           8.3680   -5.3303   26.0142 C.3     1  UNL1        0.0989
     26 N           7.4673   -6.2539   26.7793 N.3     1  UNL1       -0.2665
     27 C           7.3037   -7.6781   26.3379 C.3     1  UNL1        0.0899
     28 C           6.7300   -5.7534   27.9860 C.3     1  UNL1        0.0899
@<TRIPOS>BOND
     1     1     2    1
     2     2     3   ar
     3     3     4   ar
     4     4     5   ar
     5     5     6   ar
     6     6     7   ar
     7     7    25    1
     8    25    26    1
     9    26    27    1
    10    26    28    1
    11     5     8    1
    12     8     9    1
    13     9    10    1
    14    10    11   am
    15    11    12    2
    16    11    14    1
    17    14    15   ar
    18    15    16   ar
    19    16    17   ar
    20    17    18   ar
    21    18    19    1
    22    18    20   ar
    23    20    21   ar
    24    21    22   ar
    25    22    23   ar
    26    23    24    1
    27    10    13    1
    28     7     2   ar
    29    23    14   ar
    30    13     4    1
    31    22    16   ar
@<TRIPOS>MOLECULE
*****
 28 31 0 0 0
SMALL
GASTEIGER

@<TRIPOS>ATOM
      1 C           5.1161   -0.4634   35.8630 C.3     1  UNL1        0.0307
      2 C           4.2441    0.2922   34.9044 C.ar    1  UNL1       -0.0248
      3 C           4.0060   -0.2447   33.5242 C.ar    1  UNL1       -0.0074
      4 C           3.1340    0.5109   32.5657 C.ar    1  UNL1       -0.0066
      5 C           2.5001    1.8033   32.9874 C.ar    1  UNL1       -0.0231
      6 C           2.7382    2.3401   34.3677 C.ar    1  UNL1       -0.0077
      7 C           3.6102    1.5846   35.3262 C.ar    1  UNL1       -0.0104
      8 C           1.6281    2.5589   32.0290 C.3     1  UNL1        0.0476
      9 C           1.3900    2.0220   30.6487 C.3     1  UNL1        0.0987
     10 N           2.0239    0.7296   30.2270 N.am    1  UNL1       -0.2705
     11 C           1.7857    0.1928   28.8466 C.2     1  UNL1        0.2652
     12 O           2.4196   -1.0996   28.4249 O.2     1  UNL1       -0.2683
     13 C           2.8959   -0.0259   31.1854 C.3     1  UNL1        0.1202
     14 C           0.9137    0.9484   27.8882 C.ar    1  UNL1        0.1143
     15 C          -0.4680    1.4603   28.1690 C.ar    1  UNL1        0.0233
     16 C          -0.9653    2.1530   26.9350 C.ar    1  UNL1        0.0182
     17 C          -2.2576    2.8493   26.6266 C.ar    1  UNL1        0.0129
     18 C          -2.4757    3.4617   25.2748 C.ar    1  UNL1        0.0578
     19 CL         -3.7680    4.1580   24.9664 Cl      1  UNL1       -0.0822
     20 C          -1.4014    3.3779   24.2313 C.ar    1  UNL1        0.0129
     21 C          -0.1090    2.6816   24.5397 C.ar    1  UNL1        0.0181
     22 C           0.1090    2.0691   25.8915 C.ar    1  UNL1        0.0601
     23 N           1.2703    1.3246   26.4806 N.ar    1  UNL1       -0.3216
     24 C           2.5615    1.0114   25.7844 C.3     1  UNL1        0.1306
     25 C           3.8483    2.1214   36.7065 C.3     1  UNL1        0.0989
     26 N           2.7294    2.1456   37.7052 N.3     1  UNL1       -0.2665
     27 C           1.9254    3.3968   37.9005 C.3     1  UNL1        0.0899
     28 C           2.4144    0.9186   38.5085 C.3     1  UNL1        0.0899
@<TRIPOS>BOND
     1     1     2    1
     2     2     3   ar
     3     3     4   ar
     4     4     5   ar
     5     5     6   ar
     6     6     7   ar
     7     7    25    1
     8    25    26    1
     9    26    27    1
    10    26    28    1
    11     5     8    1
    12     8     9    1
    13     9    10    1
    14    10    11   am
    15    11    12    2
    16    11    14    1
    17    14    15   ar
    18    15    16   ar
    19    16    17   ar
    20    17    18   ar
    21    18    19    1
    22    18    20   ar
    23    20    21   ar
    24    21    22   ar
    25    22    23   ar
    26    23    24    1
    27    10    13    1
    28     7     2   ar
    29    23    14   ar
    30    13     4    1
    31    22    16   ar
@<TRIPOS>MOLECULE
*****
 28 31 0 0 0
SMALL
GASTEIGER

@<TRIPOS>ATOM
      1 C           4.6390    2.5869   39.2310 C.3     1  UNL1        0.0307
      2 C           5.4186    1.9958   38.0940 C.ar    1  UNL1       -0.0248
      3 C           4.7912    0.9540   37.2159 C.ar    1  UNL1       -0.0074
      4 C           5.5709    0.3629   36.0789 C.ar    1  UNL1       -0.0066
      5 C           6.9779    0.8136   35.8199 C.ar    1  UNL1       -0.0231
      6 C           7.6053    1.8555   36.6980 C.ar    1  UNL1       -0.0077
      7 C           6.8257    2.4466   37.8350 C.ar    1  UNL1       -0.0104
      8 C           7.7576    0.2226   34.6830 C.3     1  UNL1        0.0476
      9 C           7.1302   -0.8192   33.8049 C.3     1  UNL1        0.0987
     10 N           5.7231   -1.2700   34.0639 N.am    1  UNL1       -0.2705
     11 C           5.0958   -2.3119   33.1858 C.2     1  UNL1        0.2652
     12 O           3.6887   -2.7626   33.4448 O.2     1  UNL1       -0.2683
     13 C           4.9435   -0.6789   35.2009 C.3     1  UNL1        0.1202
     14 C           5.8754   -2.9029   32.0488 C.ar    1  UNL1        0.1143
     15 C           6.6355   -4.1957   32.0789 C.ar    1  UNL1        0.0233
     16 C           7.2617   -4.3968   30.7308 C.ar    1  UNL1        0.0182
     17 C           8.1235   -5.4929   30.1778 C.ar    1  UNL1        0.0129
     18 C           8.6121   -5.4205   28.7614 C.ar    1  UNL1        0.0578
     19 CL          9.4738   -6.5166   28.2084 Cl      1  UNL1       -0.0822
     20 C           8.2391   -4.2519   27.8982 C.ar    1  UNL1        0.0129
     21 C           7.3773   -3.1557   28.4512 C.ar    1  UNL1        0.0181
     22 C           6.8886   -3.2281   29.8675 C.ar    1  UNL1        0.0601
     23 N           6.0319   -2.3049   30.6821 N.ar    1  UNL1       -0.3216
     24 C           5.4361   -1.0109   30.2124 C.3     1  UNL1        0.1306
     25 C           7.4530    3.4884   38.7131 C.3     1  UNL1        0.0989
     26 N           8.0978    3.0892   40.0073 N.3     1  UNL1       -0.2665
     27 C           9.2196    2.0935   40.0105 C.3     1  UNL1        0.0899
     28 C           7.6207    3.6858   41.2983 C.3     1  UNL1        0.0899
@<TRIPOS>BOND
     1     1     2    1
     2     2     3   ar
     3     3     4   ar
     4     4     5   ar
     5     5     6   ar
     6     6     7   ar
     7     7    25    1
     8    25    26    1
     9    26    27    1
    10    26    28    1
    11     5     8    1
    12     8     9    1
    13     9    10    1
    14    10    11   am
    15    11    12    2
    16    11    14    1
    17    14    15   ar
    18    15    16   ar
    19    16    17   ar
    20    17    18   ar
    21    18    19    1
    22    18    20   ar
    23    20    21   ar
    24    21    22   ar
    25    22    23   ar
    26    23    24    1
    27    10    13    1
    28     7     2   ar
    29    23    14   ar
    30    13     4    1
    31    22    16   ar
