@<TRIPOS>MOLECULE
*****
 31 34 0 0 0
SMALL
GASTEIGER

@<TRIPOS>ATOM
      1 C          -0.4309    2.6865   20.0338 C.ar    1  UNL1       -0.0025
      2 C           0.2400    2.5480   18.6994 C.ar    1  UNL1       -0.0013
      3 C           1.2231    1.4395   18.4657 C.ar    1  UNL1        0.0185
      4 C           1.5353    0.4695   19.5664 C.ar    1  UNL1        0.1103
      5 C           0.8644    0.6080   20.9009 C.ar    1  UNL1        0.0185
      6 C          -0.1188    1.7166   21.1346 C.ar    1  UNL1       -0.0013
      7 S           2.5184   -0.6391   19.3327 S.O2    1  UNL1        0.0276
      8 O           2.2465   -1.1704   20.7089 O.2     1  UNL1       -0.1642
      9 O           2.7904   -0.1077   17.9565 O.2     1  UNL1       -0.1642
     10 C           3.5015   -1.7475   19.0989 C.ar    1  UNL1        0.1148
     11 C           4.8600   -1.4402   18.5420 C.ar    1  UNL1        0.0485
     12 C           5.8432   -2.5486   18.3082 C.ar    1  UNL1        0.1437
     13 F           7.2016   -2.2411   17.7513 F       1  UNL1       -0.2041
     14 C           5.4680   -3.9645   18.6313 C.ar    1  UNL1        0.0593
     15 C           4.1095   -4.2720   19.1882 C.ar    1  UNL1        0.1437
     16 F           3.7343   -5.6879   19.5113 F       1  UNL1       -0.2041
     17 C           3.1263   -3.1634   19.4220 C.ar    1  UNL1        0.0485
     18 C          -1.4140    3.7952   20.2675 C.3     1  UNL1        0.1166
     19 O          -4.0203    2.7564   21.3295 O.2     1  UNL1       -0.2701
     20 C          -3.1467    3.6153   22.1949 C.2     1  UNL1        0.2475
     21 N          -1.8436    4.1347   21.6640 N.am    1  UNL1       -0.2969
     22 H          -1.2702    4.6984   22.2320 H       1  UNL1        0.1501
     23 C          -3.5762    3.9548   23.5915 C.ar    1  UNL1        0.0710
     24 C          -2.7932    3.4407   24.7629 C.ar    1  UNL1        0.0091
     25 C          -3.2227    3.7803   26.1595 C.ar    1  UNL1        0.0376
     26 C          -4.4353    4.6340   26.3845 C.ar    1  UNL1        0.1479
     27 N          -5.0950    5.1303   27.6369 N.ar    1  UNL1       -0.2248
     28 C          -6.2858    5.9513   27.2393 C.ar    1  UNL1        0.1195
     29 C          -6.3621    5.9623   25.7413 C.ar    1  UNL1        0.1022
     30 N          -5.2184    5.1482   25.2130 N.ar    1  UNL1       -0.2873
     31 C          -4.7889    4.8086   23.8165 C.ar    1  UNL1        0.0860
@<TRIPOS>BOND
     1    19    20    2
     2    20    21   am
     3    21    18    1
     4    18     1    1
     5     1     2   ar
     6     2     3   ar
     7     3     4   ar
     8     4     7    1
     9     7     8    2
    10     7     9    2
    11     7    10    1
    12    10    11   ar
    13    11    12   ar
    14    12    13    1
    15    12    14   ar
    16    14    15   ar
    17    15    16    1
    18    15    17   ar
    19     4     5   ar
    20     5     6   ar
    21    20    23    1
    22    23    24   ar
    23    24    25   ar
    24    25    26   ar
    25    26    27   ar
    26    27    28   ar
    27    28    29   ar
    28    29    30   ar
    29    30    31   ar
    30     6     1   ar
    31    31    23   ar
    32    17    10   ar
    33    30    26   ar
    34    21    22    1
@<TRIPOS>MOLECULE
*****
 31 34 0 0 0
SMALL
GASTEIGER

@<TRIPOS>ATOM
      1 C          -0.3823    2.6914   20.0416 C.ar    1  UNL1       -0.0025
      2 C          -0.0007    1.7834   21.1728 C.ar    1  UNL1       -0.0013
      3 C           0.9709    0.6643   20.9413 C.ar    1  UNL1        0.0185
      4 C           1.5608    0.4532   19.5784 C.ar    1  UNL1        0.1103
      5 C           1.1791    1.3612   18.4471 C.ar    1  UNL1        0.0185
      6 C           0.2075    2.4804   18.6787 C.ar    1  UNL1       -0.0013
      7 S           2.5324   -0.6659   19.3468 S.O2    1  UNL1        0.0276
      8 O           2.9716   -0.0196   18.0665 O.2     1  UNL1       -0.1642
      9 O           2.0931   -1.3122   20.6272 O.2     1  UNL1       -0.1642
     10 C           3.5039   -1.7850   19.1153 C.ar    1  UNL1        0.1148
     11 C           3.1159   -3.1956   19.4466 C.ar    1  UNL1        0.0485
     12 C           4.0874   -4.3148   19.2151 C.ar    1  UNL1        0.1437
     13 F           3.6993   -5.7254   19.5464 F       1  UNL1       -0.2041
     14 C           5.4469   -4.0235   18.6523 C.ar    1  UNL1        0.0593
     15 C           5.8350   -2.6129   18.3210 C.ar    1  UNL1        0.1437
     16 F           7.1945   -2.3216   17.7583 F       1  UNL1       -0.2041
     17 C           4.8634   -1.4937   18.5525 C.ar    1  UNL1        0.0485
     18 C          -1.3540    3.8105   20.2733 C.3     1  UNL1        0.1166
     19 O          -3.9814    2.7937   21.3039 O.2     1  UNL1       -0.2701
     20 C          -3.1069    3.6375   22.1830 C.2     1  UNL1        0.2475
     21 N          -1.7931    4.1459   21.6678 N.am    1  UNL1       -0.2969
     22 H          -1.2191    4.6998   22.2448 H       1  UNL1        0.1501
     23 C          -3.5460    3.9729   23.5776 C.ar    1  UNL1        0.0710
     24 C          -2.7482    3.4889   24.7520 C.ar    1  UNL1        0.0091
     25 C          -3.1873    3.8244   26.1465 C.ar    1  UNL1        0.0376
     26 C          -4.4243    4.6439   26.3666 C.ar    1  UNL1        0.1479
     27 N          -5.0980    5.1284   27.6161 N.ar    1  UNL1       -0.2248
     28 C          -6.3122    5.9119   27.2138 C.ar    1  UNL1        0.1195
     29 C          -6.3889    5.9116   25.7158 C.ar    1  UNL1        0.1022
     30 N          -5.2220    5.1279   25.1921 N.ar    1  UNL1       -0.2873
     31 C          -4.7829    4.7924   23.7977 C.ar    1  UNL1        0.0860
@<TRIPOS>BOND
     1    19    20    2
     2    20    21   am
     3    21    18    1
     4    18     1    1
     5     1     2   ar
     6     2     3   ar
     7     3     4   ar
     8     4     7    1
     9     7     8    2
    10     7     9    2
    11     7    10    1
    12    10    11   ar
    13    11    12   ar
    14    12    13    1
    15    12    14   ar
    16    14    15   ar
    17    15    16    1
    18    15    17   ar
    19     4     5   ar
    20     5     6   ar
    21    20    23    1
    22    23    24   ar
    23    24    25   ar
    24    25    26   ar
    25    26    27   ar
    26    27    28   ar
    27    28    29   ar
    28    29    30   ar
    29    30    31   ar
    30     6     1   ar
    31    31    23   ar
    32    17    10   ar
    33    30    26   ar
    34    21    22    1
@<TRIPOS>MOLECULE
*****
 31 34 0 0 0
SMALL
GASTEIGER

@<TRIPOS>ATOM
      1 C           0.8973    1.6398   25.7925 C.ar    1  UNL1       -0.0025
      2 C          -0.0141    1.7554   26.9781 C.ar    1  UNL1       -0.0013
      3 C          -1.3618    2.3968   26.8284 C.ar    1  UNL1        0.0185
      4 C          -1.7979    2.9227   25.4930 C.ar    1  UNL1        0.1103
      5 C          -0.8864    2.8071   24.3073 C.ar    1  UNL1        0.0185
      6 C           0.4613    2.1657   24.4571 C.ar    1  UNL1       -0.0013
      7 S          -3.1455    3.5641   25.3433 S.O2    1  UNL1        0.0276
      8 O          -2.9819    3.5600   23.8523 O.2     1  UNL1       -0.1642
      9 O          -3.3092    3.5682   26.8344 O.2     1  UNL1       -0.1642
     10 C          -4.4932    4.2055   25.1937 C.ar    1  UNL1        0.1148
     11 C          -5.3349    3.9096   23.9879 C.ar    1  UNL1        0.0485
     12 C          -6.6826    4.5510   23.8382 C.ar    1  UNL1        0.1437
     13 F          -7.5243    4.2551   22.6324 F       1  UNL1       -0.2041
     14 C          -7.1886    5.4883   24.8944 C.ar    1  UNL1        0.0593
     15 C          -6.3469    5.7842   26.1002 C.ar    1  UNL1        0.1437
     16 F          -6.8529    6.7215   27.1564 F       1  UNL1       -0.2041
     17 C          -4.9992    5.1428   26.2499 C.ar    1  UNL1        0.0485
     18 C           2.2451    0.9984   25.9422 C.3     1  UNL1        0.1166
     19 O           3.9118    1.3289   23.4698 O.2     1  UNL1       -0.2701
     20 C           3.4353   -0.0339   23.8764 C.2     1  UNL1        0.2475
     21 N           2.6020   -0.1993   25.1126 N.am    1  UNL1       -0.2969
     22 H           2.2893   -1.0938   25.3795 H       1  UNL1        0.1501
     23 C           3.7922   -1.2317   23.0468 C.ar    1  UNL1        0.0710
     24 C           4.5438   -2.3740   23.6633 C.ar    1  UNL1        0.0091
     25 C           4.9007   -3.5717   22.8337 C.ar    1  UNL1        0.0376
     26 C           4.5059   -3.6270   21.3876 C.ar    1  UNL1        0.1479
     27 N           4.7174   -4.6680   20.3286 N.ar    1  UNL1       -0.2248
     28 C           4.0964   -4.1690   19.0576 C.ar    1  UNL1        0.1195
     29 C           3.5012   -2.8196   19.3311 C.ar    1  UNL1        0.1022
     30 N           3.7543   -2.4846   20.7712 N.ar    1  UNL1       -0.2873
     31 C           3.3974   -1.2869   21.6008 C.ar    1  UNL1        0.0860
@<TRIPOS>BOND
     1    19    20    2
     2    20    21   am
     3    21    18    1
     4    18     1    1
     5     1     2   ar
     6     2     3   ar
     7     3     4   ar
     8     4     7    1
     9     7     8    2
    10     7     9    2
    11     7    10    1
    12    10    11   ar
    13    11    12   ar
    14    12    13    1
    15    12    14   ar
    16    14    15   ar
    17    15    16    1
    18    15    17   ar
    19     4     5   ar
    20     5     6   ar
    21    20    23    1
    22    23    24   ar
    23    24    25   ar
    24    25    26   ar
    25    26    27   ar
    26    27    28   ar
    27    28    29   ar
    28    29    30   ar
    29    30    31   ar
    30     6     1   ar
    31    31    23   ar
    32    17    10   ar
    33    30    26   ar
    34    21    22    1
@<TRIPOS>MOLECULE
*****
 31 34 0 0 0
SMALL
GASTEIGER

@<TRIPOS>ATOM
      1 C           0.3070    1.9871   23.5998 C.ar    1  UNL1       -0.0025
      2 C           1.3483    1.0727   24.1736 C.ar    1  UNL1       -0.0013
      3 C           2.2047    0.2453   23.2615 C.ar    1  UNL1        0.0185
      4 C           2.0197    0.3323   21.7755 C.ar    1  UNL1        0.1103
      5 C           0.9783    1.2468   21.2016 C.ar    1  UNL1        0.0185
      6 C           0.1219    2.0743   22.1138 C.ar    1  UNL1       -0.0013
      7 S           2.8761   -0.4951   20.8634 S.O2    1  UNL1        0.0276
      8 O           4.0962   -0.0757   21.6286 O.2     1  UNL1       -0.1642
      9 O           1.6559   -0.9145   20.0983 O.2     1  UNL1       -0.1642
     10 C           3.7324   -1.3225   19.9513 C.ar    1  UNL1        0.1148
     11 C           4.8304   -0.6746   19.1610 C.ar    1  UNL1        0.0485
     12 C           5.6868   -1.5020   18.2488 C.ar    1  UNL1        0.1437
     13 F           6.7848   -0.8540   17.4585 F       1  UNL1       -0.2041
     14 C           5.4452   -2.9774   18.1269 C.ar    1  UNL1        0.0593
     15 C           4.3472   -3.6254   18.9172 C.ar    1  UNL1        0.1437
     16 F           4.1056   -5.1008   18.7954 F       1  UNL1       -0.2041
     17 C           3.4908   -2.7979   19.8294 C.ar    1  UNL1        0.0485
     18 C          -0.5495    2.8146   24.5119 C.3     1  UNL1        0.1166
     19 O          -2.6677    3.3759   26.5608 O.2     1  UNL1       -0.2701
     20 C          -2.9812    3.5145   25.1006 C.2     1  UNL1        0.2475
     21 N          -1.9221    3.2339   24.0761 N.am    1  UNL1       -0.2969
     22 H          -2.1280    3.3249   23.1177 H       1  UNL1        0.1501
     23 C          -4.3539    3.9338   24.6648 C.ar    1  UNL1        0.0710
     24 C          -4.8982    3.4660   23.3477 C.ar    1  UNL1        0.0091
     25 C          -6.2709    3.8853   22.9118 C.ar    1  UNL1        0.0376
     26 C          -7.0993    4.7724   23.7932 C.ar    1  UNL1        0.1479
     27 N          -8.4761    5.3452   23.6307 N.ar    1  UNL1       -0.2248
     28 C          -8.7826    6.1671   24.8475 C.ar    1  UNL1        0.1195
     29 C          -7.5953    6.1023   25.7619 C.ar    1  UNL1        0.1022
     30 N          -6.5550    5.2403   25.1103 N.ar    1  UNL1       -0.2873
     31 C          -5.1823    4.8210   25.5461 C.ar    1  UNL1        0.0860
@<TRIPOS>BOND
     1    19    20    2
     2    20    21   am
     3    21    18    1
     4    18     1    1
     5     1     2   ar
     6     2     3   ar
     7     3     4   ar
     8     4     7    1
     9     7     8    2
    10     7     9    2
    11     7    10    1
    12    10    11   ar
    13    11    12   ar
    14    12    13    1
    15    12    14   ar
    16    14    15   ar
    17    15    16    1
    18    15    17   ar
    19     4     5   ar
    20     5     6   ar
    21    20    23    1
    22    23    24   ar
    23    24    25   ar
    24    25    26   ar
    25    26    27   ar
    26    27    28   ar
    27    28    29   ar
    28    29    30   ar
    29    30    31   ar
    30     6     1   ar
    31    31    23   ar
    32    17    10   ar
    33    30    26   ar
    34    21    22    1
@<TRIPOS>MOLECULE
*****
 31 34 0 0 0
SMALL
GASTEIGER

@<TRIPOS>ATOM
      1 C           1.2092    1.0786   24.7067 C.ar    1  UNL1       -0.0025
      2 C           0.7707    1.2956   23.2889 C.ar    1  UNL1       -0.0013
      3 C           1.5120    0.6343   22.1650 C.ar    1  UNL1        0.0185
      4 C           2.6918   -0.2441   22.4591 C.ar    1  UNL1        0.1103
      5 C           3.1303   -0.4611   23.8770 C.ar    1  UNL1        0.0185
      6 C           2.3890    0.2003   25.0009 C.ar    1  UNL1       -0.0013
      7 S           3.4330   -0.9054   21.3352 S.O2    1  UNL1        0.0276
      8 O           2.1380   -1.1272   20.6115 O.2     1  UNL1       -0.1642
      9 O           4.7282   -0.6836   22.0589 O.2     1  UNL1       -0.1642
     10 C           4.1744   -1.5667   20.2113 C.ar    1  UNL1        0.1148
     11 C           5.1410   -0.7746   19.3818 C.ar    1  UNL1        0.0485
     12 C           5.8824   -1.4358   18.2579 C.ar    1  UNL1        0.1437
     13 F           6.8490   -0.6435   17.4284 F       1  UNL1       -0.2041
     14 C           5.6572   -2.8893   17.9636 C.ar    1  UNL1        0.0593
     15 C           4.6906   -3.6815   18.7931 C.ar    1  UNL1        0.1437
     16 F           4.4654   -5.1350   18.4987 F       1  UNL1       -0.2041
     17 C           3.9492   -3.0202   19.9170 C.ar    1  UNL1        0.0485
     18 C           0.4679    1.7400   25.8307 C.3     1  UNL1        0.1166
     19 O          -0.3895    4.5161   25.0836 O.2     1  UNL1       -0.2701
     20 C          -1.4186    3.4483   25.3081 C.2     1  UNL1        0.2475
     21 N          -0.9899    2.0602   25.6817 N.am    1  UNL1       -0.2969
     22 H          -1.6654    1.3593   25.8291 H       1  UNL1        0.1501
     23 C          -2.8765    3.7684   25.1592 C.ar    1  UNL1        0.0710
     24 C          -3.6710    4.2183   26.3492 C.ar    1  UNL1        0.0091
     25 C          -5.1289    4.5384   26.2002 C.ar    1  UNL1        0.0376
     26 C          -5.7922    4.4086   24.8611 C.ar    1  UNL1        0.1479
     27 N          -7.2024    4.6522   24.4118 N.ar    1  UNL1       -0.2248
     28 C          -7.2794    4.3528   22.9440 C.ar    1  UNL1        0.1195
     29 C          -5.9168    3.9243   22.4862 C.ar    1  UNL1        0.1022
     30 N          -4.9976    3.9588   23.6710 N.ar    1  UNL1       -0.2873
     31 C          -3.5397    3.6387   23.8201 C.ar    1  UNL1        0.0860
@<TRIPOS>BOND
     1    19    20    2
     2    20    21   am
     3    21    18    1
     4    18     1    1
     5     1     2   ar
     6     2     3   ar
     7     3     4   ar
     8     4     7    1
     9     7     8    2
    10     7     9    2
    11     7    10    1
    12    10    11   ar
    13    11    12   ar
    14    12    13    1
    15    12    14   ar
    16    14    15   ar
    17    15    16    1
    18    15    17   ar
    19     4     5   ar
    20     5     6   ar
    21    20    23    1
    22    23    24   ar
    23    24    25   ar
    24    25    26   ar
    25    26    27   ar
    26    27    28   ar
    27    28    29   ar
    28    29    30   ar
    29    30    31   ar
    30     6     1   ar
    31    31    23   ar
    32    17    10   ar
    33    30    26   ar
    34    21    22    1
@<TRIPOS>MOLECULE
*****
 31 34 0 0 0
SMALL
GASTEIGER

@<TRIPOS>ATOM
      1 C           0.8712    1.2701   24.4070 C.ar    1  UNL1       -0.0025
      2 C           2.0405    0.4080   24.7799 C.ar    1  UNL1       -0.0013
      3 C           2.8272   -0.2919   23.7116 C.ar    1  UNL1        0.0185
      4 C           2.4445   -0.1295   22.2704 C.ar    1  UNL1        0.1103
      5 C           1.2751    0.7327   21.8975 C.ar    1  UNL1        0.0185
      6 C           0.4883    1.4326   22.9659 C.ar    1  UNL1       -0.0013
      7 S           3.2312   -0.8294   21.2021 S.O2    1  UNL1        0.0276
      8 O           4.4616   -0.7503   22.0563 O.2     1  UNL1       -0.1642
      9 O           2.0007   -0.9084   20.3477 O.2     1  UNL1       -0.1642
     10 C           4.0178   -1.5292   20.1337 C.ar    1  UNL1        0.1148
     11 C           3.8288   -2.9996   19.9047 C.ar    1  UNL1        0.0485
     12 C           4.6154   -3.6995   18.8364 C.ar    1  UNL1        0.1437
     13 F           4.4263   -5.1698   18.6075 F       1  UNL1       -0.2041
     14 C           5.5910   -2.9291   17.9969 C.ar    1  UNL1        0.0593
     15 C           5.7800   -1.4588   18.2258 C.ar    1  UNL1        0.1437
     16 F           6.7556   -0.6884   17.3864 F       1  UNL1       -0.2041
     17 C           4.9934   -0.7588   19.2943 C.ar    1  UNL1        0.0485
     18 C           0.0845    1.9700   25.4754 C.3     1  UNL1        0.1166
     19 O          -1.1911    4.0208   27.2550 O.2     1  UNL1       -0.2701
     20 C          -1.9454    3.4751   26.0790 C.2     1  UNL1        0.2475
     21 N          -1.3076    2.4497   25.1891 N.am    1  UNL1       -0.2969
     22 H          -1.8027    2.0916   24.4172 H       1  UNL1        0.1501
     23 C          -3.3375    3.9548   25.7926 C.ar    1  UNL1        0.0710
     24 C          -4.1060    4.6979   26.8447 C.ar    1  UNL1        0.0091
     25 C          -5.4982    5.1776   26.5584 C.ar    1  UNL1        0.0376
     26 C          -6.1217    4.9141   25.2198 C.ar    1  UNL1        0.1479
     27 N          -7.4659    5.2625   24.6527 N.ar    1  UNL1       -0.2248
     28 C          -7.5282    4.7346   23.2500 C.ar    1  UNL1        0.1195
     29 C          -6.2224    4.0600   22.9502 C.ar    1  UNL1        0.1022
     30 N          -5.3531    4.1710   24.1676 N.ar    1  UNL1       -0.2873
     31 C          -3.9610    3.6913   24.4540 C.ar    1  UNL1        0.0860
@<TRIPOS>BOND
     1    19    20    2
     2    20    21   am
     3    21    18    1
     4    18     1    1
     5     1     2   ar
     6     2     3   ar
     7     3     4   ar
     8     4     7    1
     9     7     8    2
    10     7     9    2
    11     7    10    1
    12    10    11   ar
    13    11    12   ar
    14    12    13    1
    15    12    14   ar
    16    14    15   ar
    17    15    16    1
    18    15    17   ar
    19     4     5   ar
    20     5     6   ar
    21    20    23    1
    22    23    24   ar
    23    24    25   ar
    24    25    26   ar
    25    26    27   ar
    26    27    28   ar
    27    28    29   ar
    28    29    30   ar
    29    30    31   ar
    30     6     1   ar
    31    31    23   ar
    32    17    10   ar
    33    30    26   ar
    34    21    22    1
@<TRIPOS>MOLECULE
*****
 31 34 0 0 0
SMALL
GASTEIGER

@<TRIPOS>ATOM
      1 C           6.6064   -3.4448   21.0052 C.ar    1  UNL1       -0.0025
      2 C           7.8482   -4.2845   21.0557 C.ar    1  UNL1       -0.0013
      3 C           8.2207   -4.9971   22.3220 C.ar    1  UNL1        0.0185
      4 C           7.3514   -4.8699   23.5377 C.ar    1  UNL1        0.1103
      5 C           6.1095   -4.0302   23.4872 C.ar    1  UNL1        0.0185
      6 C           5.7369   -3.3176   22.2208 C.ar    1  UNL1       -0.0013
      7 S           7.7239   -5.5825   24.8040 S.O2    1  UNL1        0.0276
      8 O           7.8476   -6.8695   24.0434 O.2     1  UNL1       -0.1642
      9 O           7.6003   -4.2955   25.5646 O.2     1  UNL1       -0.1642
     10 C           8.0964   -6.2950   26.0702 C.ar    1  UNL1        0.1148
     11 C           7.9385   -7.7835   26.1676 C.ar    1  UNL1        0.0485
     12 C           8.3110   -8.4961   27.4339 C.ar    1  UNL1        0.1437
     13 F           8.1531   -9.9846   27.5311 F       1  UNL1       -0.2041
     14 C           8.8415   -7.7202   28.6029 C.ar    1  UNL1        0.0593
     15 C           8.9994   -6.2317   28.5056 C.ar    1  UNL1        0.1437
     16 F           9.5299   -5.4558   29.6746 F       1  UNL1       -0.2041
     17 C           8.6269   -5.5191   27.2392 C.ar    1  UNL1        0.0485
     18 C           6.2338   -2.7322   19.7388 C.3     1  UNL1        0.1166
     19 O           3.3304   -3.2841   19.2241 O.2     1  UNL1       -0.2701
     20 C           3.7875   -1.8859   19.5172 C.2     1  UNL1        0.2475
     21 N           5.2392   -1.6099   19.7746 N.am    1  UNL1       -0.2969
     22 H           5.5393   -0.6922   19.9669 H       1  UNL1        0.1501
     23 C           2.7929   -0.7636   19.5529 C.ar    1  UNL1        0.0710
     24 C           1.4788   -0.9479   20.2521 C.ar    1  UNL1        0.0091
     25 C           0.4842    0.1744   20.2878 C.ar    1  UNL1        0.0376
     26 C           0.8039    1.4811   19.6243 C.ar    1  UNL1        0.1479
     27 N           0.0272    2.7579   19.4957 N.ar    1  UNL1       -0.2248
     28 C           0.8615    3.7314   18.7169 C.ar    1  UNL1        0.1195
     29 C           2.1537    3.0563   18.3643 C.ar    1  UNL1        0.1022
     30 N           2.1181    1.6655   18.9251 N.ar    1  UNL1       -0.2873
     31 C           3.1126    0.5432   18.8894 C.ar    1  UNL1        0.0860
@<TRIPOS>BOND
     1    19    20    2
     2    20    21   am
     3    21    18    1
     4    18     1    1
     5     1     2   ar
     6     2     3   ar
     7     3     4   ar
     8     4     7    1
     9     7     8    2
    10     7     9    2
    11     7    10    1
    12    10    11   ar
    13    11    12   ar
    14    12    13    1
    15    12    14   ar
    16    14    15   ar
    17    15    16    1
    18    15    17   ar
    19     4     5   ar
    20     5     6   ar
    21    20    23    1
    22    23    24   ar
    23    24    25   ar
    24    25    26   ar
    25    26    27   ar
    26    27    28   ar
    27    28    29   ar
    28    29    30   ar
    29    30    31   ar
    30     6     1   ar
    31    31    23   ar
    32    17    10   ar
    33    30    26   ar
    34    21    22    1
@<TRIPOS>MOLECULE
*****
 31 34 0 0 0
SMALL
GASTEIGER

@<TRIPOS>ATOM
      1 C          -0.6637    2.3348   27.2766 C.ar    1  UNL1       -0.0025
      2 C           0.3150    3.2624   27.9335 C.ar    1  UNL1       -0.0013
      3 C           1.1881    2.7653   29.0473 C.ar    1  UNL1        0.0185
      4 C           1.0824    1.3406   29.5043 C.ar    1  UNL1        0.1103
      5 C           0.1036    0.4129   28.8474 C.ar    1  UNL1        0.0185
      6 C          -0.7695    0.9100   27.7335 C.ar    1  UNL1       -0.0013
      7 S           1.9554    0.8435   30.6181 S.O2    1  UNL1        0.0276
      8 O           1.6744   -0.5714   30.2070 O.2     1  UNL1       -0.1642
      9 O           2.2365    2.2585   31.0293 O.2     1  UNL1       -0.1642
     10 C           2.8285    0.3465   31.7320 C.ar    1  UNL1        0.1148
     11 C           3.0332    1.1878   32.9569 C.ar    1  UNL1        0.0485
     12 C           3.9063    0.6909   34.0708 C.ar    1  UNL1        0.1437
     13 F           4.1109    1.5322   35.2957 F       1  UNL1       -0.2041
     14 C           4.5747   -0.6474   33.9598 C.ar    1  UNL1        0.0593
     15 C           4.3701   -1.4887   32.7349 C.ar    1  UNL1        0.1437
     16 F           5.0386   -2.8269   32.6240 F       1  UNL1       -0.2041
     17 C           3.4970   -0.9917   31.6210 C.ar    1  UNL1        0.0485
     18 C          -1.5368    2.8320   26.1627 C.3     1  UNL1        0.1166
     19 O          -3.6037    3.3053   24.0406 O.2     1  UNL1       -0.2701
     20 C          -3.7909    3.8832   25.4120 C.2     1  UNL1        0.2475
     21 N          -2.7575    3.6465   26.4731 N.am    1  UNL1       -0.2969
     22 H          -2.8804    4.0258   27.3733 H       1  UNL1        0.1501
     23 C          -5.0117    4.6978   25.7224 C.ar    1  UNL1        0.0710
     24 C          -5.1601    5.3437   27.0680 C.ar    1  UNL1        0.0091
     25 C          -6.3809    6.1583   27.3784 C.ar    1  UNL1        0.0376
     26 C          -7.4531    6.3269   26.3432 C.ar    1  UNL1        0.1479
     27 N          -8.7580    7.0664   26.3610 N.ar    1  UNL1       -0.2248
     28 C          -9.4161    6.8775   25.0263 C.ar    1  UNL1        0.1195
     29 C          -8.5178    6.0213   24.1836 C.ar    1  UNL1        0.1022
     30 N          -7.3046    5.6810   24.9975 N.ar    1  UNL1       -0.2873
     31 C          -6.0839    4.8664   24.6871 C.ar    1  UNL1        0.0860
@<TRIPOS>BOND
     1    19    20    2
     2    20    21   am
     3    21    18    1
     4    18     1    1
     5     1     2   ar
     6     2     3   ar
     7     3     4   ar
     8     4     7    1
     9     7     8    2
    10     7     9    2
    11     7    10    1
    12    10    11   ar
    13    11    12   ar
    14    12    13    1
    15    12    14   ar
    16    14    15   ar
    17    15    16    1
    18    15    17   ar
    19     4     5   ar
    20     5     6   ar
    21    20    23    1
    22    23    24   ar
    23    24    25   ar
    24    25    26   ar
    25    26    27   ar
    26    27    28   ar
    27    28    29   ar
    28    29    30   ar
    29    30    31   ar
    30     6     1   ar
    31    31    23   ar
    32    17    10   ar
    33    30    26   ar
    34    21    22    1
@<TRIPOS>MOLECULE
*****
 31 34 0 0 0
SMALL
GASTEIGER

@<TRIPOS>ATOM
      1 C           0.6045    1.6172   24.7666 C.ar    1  UNL1       -0.0025
      2 C          -0.5332    1.7238   25.7381 C.ar    1  UNL1       -0.0013
      3 C          -0.2578    1.7920   27.2110 C.ar    1  UNL1        0.0185
      4 C           1.1555    1.7536   27.7123 C.ar    1  UNL1        0.1103
      5 C           2.2933    1.6469   26.7407 C.ar    1  UNL1        0.0185
      6 C           2.0178    1.5787   25.2677 C.ar    1  UNL1       -0.0013
      7 S           1.4309    1.8218   29.1852 S.O2    1  UNL1        0.0276
      8 O           2.8087    2.3436   28.9034 O.2     1  UNL1       -0.1642
      9 O           0.0530    1.2999   29.4670 O.2     1  UNL1       -0.1642
     10 C           1.7062    1.8899   30.6581 C.ar    1  UNL1        0.1148
     11 C           2.5940    0.8673   31.3033 C.ar    1  UNL1        0.0485
     12 C           2.8694    0.9354   32.7762 C.ar    1  UNL1        0.1437
     13 F           3.7571   -0.0873   33.4213 F       1  UNL1       -0.2041
     14 C           2.2570    2.0261   33.6041 C.ar    1  UNL1        0.0593
     15 C           1.3693    3.0488   32.9590 C.ar    1  UNL1        0.1437
     16 F           0.7569    4.1395   33.7868 F       1  UNL1       -0.2041
     17 C           1.0939    2.9807   31.4860 C.ar    1  UNL1        0.0485
     18 C           0.3291    1.5490   23.2936 C.3     1  UNL1        0.1166
     19 O          -0.4610    0.7842   20.5024 O.2     1  UNL1       -0.2701
     20 C           0.9443    0.5544   20.9736 C.2     1  UNL1        0.2475
     21 N           1.3394    0.9368   22.3692 N.am    1  UNL1       -0.2969
     22 H           2.2618    0.7860   22.6784 H       1  UNL1        0.1501
     23 C           1.9547   -0.0578   20.0492 C.ar    1  UNL1        0.0710
     24 C           2.2137    0.5590   18.7068 C.ar    1  UNL1        0.0091
     25 C           3.2241   -0.0532   17.7824 C.ar    1  UNL1        0.0376
     26 C           3.9755   -1.2822   18.2006 C.ar    1  UNL1        0.1479
     27 N           5.0229   -2.1026   17.5079 N.ar    1  UNL1       -0.2248
     28 C           5.4111   -3.2264   18.4223 C.ar    1  UNL1        0.1195
     29 C           4.6037   -3.1006   19.6802 C.ar    1  UNL1        0.1022
     30 N           3.7164   -1.8990   19.5432 N.ar    1  UNL1       -0.2873
     31 C           2.7060   -1.2868   20.4675 C.ar    1  UNL1        0.0860
@<TRIPOS>BOND
     1    19    20    2
     2    20    21   am
     3    21    18    1
     4    18     1    1
     5     1     2   ar
     6     2     3   ar
     7     3     4   ar
     8     4     7    1
     9     7     8    2
    10     7     9    2
    11     7    10    1
    12    10    11   ar
    13    11    12   ar
    14    12    13    1
    15    12    14   ar
    16    14    15   ar
    17    15    16    1
    18    15    17   ar
    19     4     5   ar
    20     5     6   ar
    21    20    23    1
    22    23    24   ar
    23    24    25   ar
    24    25    26   ar
    25    26    27   ar
    26    27    28   ar
    27    28    29   ar
    28    29    30   ar
    29    30    31   ar
    30     6     1   ar
    31    31    23   ar
    32    17    10   ar
    33    30    26   ar
    34    21    22    1
