@<TRIPOS>MOLECULE
*****
 34 38 0 0 0
SMALL
GASTEIGER

@<TRIPOS>ATOM
      1 C          -1.4391    3.1412   21.7640 C.ar    1  UNL1        0.0878
      2 C          -1.4387    3.1598   23.2639 C.ar    1  UNL1        0.1543
      3 F          -0.1991    2.7799   24.0182 F       1  UNL1       -0.2028
      4 C          -2.6778    3.5582   24.0093 C.ar    1  UNL1        0.0356
      5 C          -3.9174    3.9381   23.2550 C.ar    1  UNL1        0.0580
      6 C          -5.1565    4.3365   24.0005 C.ar    1  UNL1        0.1996
      7 O          -5.1561    4.3550   25.5004 O.2     1  UNL1       -0.2864
      8 C          -6.3961    4.7164   23.2462 C.ar    1  UNL1        0.0701
      9 C          -6.3966    4.6979   21.7462 C.ar    1  UNL1        0.0801
     10 N          -5.1575    4.2995   21.0007 N.ar    1  UNL1       -0.3270
     11 C          -3.9179    3.9196   21.7551 C.ar    1  UNL1        0.0750
     12 C          -2.6787    3.5211   21.0096 C.ar    1  UNL1        0.0890
     13 CL         -2.6792    3.5026   19.5097 Cl      1  UNL1       -0.0794
     14 C           1.4413    1.4315   19.8030 C.3     1  UNL1        0.0930
     15 C           1.9723    2.8278   19.9394 C.3     1  UNL1        0.0427
     16 C           0.9579    3.6382   20.6905 C.3     1  UNL1        0.0927
     17 N          -0.2000    2.7428   21.0184 N.pl3   1  UNL1       -0.3033
     18 C           0.0988    1.3790   20.4699 C.3     1  UNL1        0.1104
     19 O           2.5196   -0.8530   21.4212 O.2     1  UNL1       -0.2729
     20 C           2.6708   -0.8538   19.9287 C.2     1  UNL1        0.2475
     21 N           2.1317    0.2885   19.1197 N.am    1  UNL1       -0.3026
     22 H           2.2309    0.2880   18.1402 H       1  UNL1        0.1495
     23 C           3.3611   -1.9968   19.2455 C.3     1  UNL1        0.2153
     24 N           4.6290   -1.7579   18.4803 N.ar    1  UNL1       -0.2013
     25 C           5.7445   -2.7430   18.2927 C.ar    1  UNL1        0.2219
     26 N           6.8089   -2.0858   17.4649 N.ar    1  UNL1       -0.1048
     27 N           6.3513   -0.6947   17.1409 N.ar    1  UNL1       -0.0225
     28 N           5.0040   -0.4920   17.7685 N.ar    1  UNL1       -0.0424
     29 C          -7.6353    5.1148   23.9916 C.2     1  UNL1        0.0774
     30 O          -7.6314    6.3453   24.8496 O.co2   1  UNL1       -0.5444
     31 O          -8.8784    4.2828   23.8792 O.co2   1  UNL1       -0.5444
     32 C          -5.1579    4.2810   19.5009 C.3     1  UNL1        0.0857
     33 C          -5.3492    3.5396   18.2110 C.3     1  UNL1        0.0245
     34 C          -4.9675    4.9901   18.1930 C.3     1  UNL1        0.0245
@<TRIPOS>UNITY_ATOM_ATTR
30 1
charge -1
@<TRIPOS>BOND
     1    19    20    2
     2    20    23    1
     3    23    24    1
     4    24    25   ar
     5    25    26   ar
     6    26    27   ar
     7    27    28   ar
     8    20    21   am
     9    21    14    1
    10    14    15    1
    11    15    16    1
    12    16    17    1
    13    17     1    1
    14     1     2   ar
    15     2     3    1
    16     2     4   ar
    17     4     5   ar
    18     5     6   ar
    19     6     7    2
    20     6     8   ar
    21     8    29    1
    22    29    30   ar
    23    29    31   ar
    24     8     9   ar
    25     9    10   ar
    26    10    32    1
    27    32    33    1
    28    33    34    1
    29    10    11   ar
    30    11    12   ar
    31    12    13    1
    32    17    18    1
    33    28    24   ar
    34    18    14    1
    35    12     1   ar
    36    11     5   ar
    37    34    32    1
    38    21    22    1
@<TRIPOS>MOLECULE
*****
 34 38 0 0 0
SMALL
GASTEIGER

@<TRIPOS>ATOM
      1 C          -2.8487    3.6379   25.0618 C.ar    1  UNL1        0.0878
      2 C          -4.2481    3.8166   25.5714 C.ar    1  UNL1        0.1543
      3 F          -4.5196    3.7802   27.0462 F       1  UNL1       -0.2028
      4 C          -5.3759    4.0317   24.6062 C.ar    1  UNL1        0.0356
      5 C          -5.1044    4.0681   23.1315 C.ar    1  UNL1        0.0580
      6 C          -6.2323    4.2832   22.1663 C.ar    1  UNL1        0.1996
      7 O          -7.6317    4.4620   22.6758 O.2     1  UNL1       -0.2864
      8 C          -5.9608    4.3197   20.6915 C.ar    1  UNL1        0.0701
      9 C          -4.5613    4.1409   20.1819 C.ar    1  UNL1        0.0801
     10 N          -3.4334    3.9258   21.1471 N.ar    1  UNL1       -0.3270
     11 C          -3.7050    3.8894   22.6219 C.ar    1  UNL1        0.0750
     12 C          -2.5771    3.6743   23.5871 C.ar    1  UNL1        0.0890
     13 CL         -1.1776    3.4956   23.0775 Cl      1  UNL1       -0.0794
     14 C           0.0967    2.3899   27.2603 C.3     1  UNL1        0.0930
     15 C          -0.0668    3.7933   27.7642 C.3     1  UNL1        0.0427
     16 C          -1.1900    4.4316   27.0019 C.3     1  UNL1        0.0927
     17 N          -1.7207    3.4227   26.0270 N.pl3   1  UNL1       -0.3033
     18 C          -0.9255    2.1609   26.1867 C.3     1  UNL1        0.1104
     19 O          -0.4578    0.7744   29.7266 O.2     1  UNL1       -0.2729
     20 C           0.8281    0.5832   28.9781 C.2     1  UNL1        0.2475
     21 N           1.1053    1.3910   27.7450 N.am    1  UNL1       -0.3026
     22 H           1.9492    1.2655   27.2537 H       1  UNL1        0.1495
     23 C           1.8366   -0.4157   29.4628 C.3     1  UNL1        0.2153
     24 N           2.4503   -0.2624   30.8229 N.ar    1  UNL1       -0.2013
     25 C           2.4186    0.9750   31.6701 C.ar    1  UNL1        0.2219
     26 N           3.1521    0.6825   32.9454 N.ar    1  UNL1       -0.1048
     27 N           3.6373   -0.7356   32.8863 N.ar    1  UNL1       -0.0225
     28 N           3.2035   -1.3196   31.5746 N.ar    1  UNL1       -0.0424
     29 C          -7.0886    4.5348   19.7263 C.2     1  UNL1        0.0774
     30 O          -8.0011    5.7140   19.8899 O.co2   1  UNL1       -0.5444
     31 O          -7.3040    3.5706   18.5975 O.co2   1  UNL1       -0.5444
     32 C          -2.0341    3.7471   20.6375 C.3     1  UNL1        0.0857
     33 C          -0.7218    4.3355   20.2111 C.3     1  UNL1        0.0245
     34 C          -0.9225    2.8493   20.1813 C.3     1  UNL1        0.0245
@<TRIPOS>UNITY_ATOM_ATTR
30 1
charge -1
@<TRIPOS>BOND
     1    19    20    2
     2    20    23    1
     3    23    24    1
     4    24    25   ar
     5    25    26   ar
     6    26    27   ar
     7    27    28   ar
     8    20    21   am
     9    21    14    1
    10    14    15    1
    11    15    16    1
    12    16    17    1
    13    17     1    1
    14     1     2   ar
    15     2     3    1
    16     2     4   ar
    17     4     5   ar
    18     5     6   ar
    19     6     7    2
    20     6     8   ar
    21     8    29    1
    22    29    30   ar
    23    29    31   ar
    24     8     9   ar
    25     9    10   ar
    26    10    32    1
    27    32    33    1
    28    33    34    1
    29    10    11   ar
    30    11    12   ar
    31    12    13    1
    32    17    18    1
    33    28    24   ar
    34    18    14    1
    35    12     1   ar
    36    11     5   ar
    37    34    32    1
    38    21    22    1
@<TRIPOS>MOLECULE
*****
 34 38 0 0 0
SMALL
GASTEIGER

@<TRIPOS>ATOM
      1 C           0.9222    2.1207   20.1738 C.ar    1  UNL1        0.0878
      2 C           0.8561    1.9387   18.6863 C.ar    1  UNL1        0.1543
      3 F          -0.1085    2.7505   17.8736 F       1  UNL1       -0.2028
      4 C           1.7545    0.9449   18.0117 C.ar    1  UNL1        0.0356
      5 C           2.7191    0.1331   18.8245 C.ar    1  UNL1        0.0580
      6 C           3.6175   -0.8607   18.1498 C.ar    1  UNL1        0.1996
      7 O           3.5514   -1.0427   16.6624 O.2     1  UNL1       -0.2864
      8 C           4.5821   -1.6725   18.9626 C.ar    1  UNL1        0.0701
      9 C           4.6482   -1.4905   20.4501 C.ar    1  UNL1        0.0801
     10 N           3.7497   -0.4967   21.1247 N.ar    1  UNL1       -0.3270
     11 C           2.7852    0.3151   20.3119 C.ar    1  UNL1        0.0750
     12 C           1.8868    1.3089   20.9865 C.ar    1  UNL1        0.0890
     13 CL          1.9529    1.4909   22.4740 Cl      1  UNL1       -0.0794
     14 C          -1.7794    4.0827   22.1530 C.3     1  UNL1        0.0930
     15 C          -0.9382    5.2047   21.6205 C.3     1  UNL1        0.0427
     16 C           0.1762    4.6063   20.8143 C.3     1  UNL1        0.0927
     17 N           0.0238    3.1145   20.8485 N.pl3   1  UNL1       -0.3033
     18 C          -1.1849    2.7909   21.6758 C.3     1  UNL1        0.1104
     19 O          -4.3525    2.7757   21.3336 O.2     1  UNL1       -0.2729
     20 C          -4.2873    3.5737   22.6022 C.2     1  UNL1        0.2475
     21 N          -3.0007    4.2272   23.0118 N.am    1  UNL1       -0.3026
     22 H          -2.9579    4.7509   23.8443 H       1  UNL1        0.1495
     23 C          -5.5085    3.7182   23.4610 C.3     1  UNL1        0.2153
     24 N          -5.3748    4.1694   24.8852 N.ar    1  UNL1       -0.2013
     25 C          -6.1097    5.3121   25.5208 C.ar    1  UNL1        0.2219
     26 N          -5.6717    5.4061   26.9523 N.ar    1  UNL1       -0.1048
     27 N          -4.6661    4.3215   27.2015 N.ar    1  UNL1       -0.0225
     28 N          -4.4825    3.5571   25.9240 N.ar    1  UNL1       -0.0424
     29 C           5.4805   -2.6663   18.2879 C.2     1  UNL1        0.0774
     30 O           6.6435   -2.1907   17.4686 O.co2   1  UNL1       -0.5444
     31 O           5.2160   -4.1357   18.4326 O.co2   1  UNL1       -0.5444
     32 C           3.8159   -0.3147   22.6121 C.3     1  UNL1        0.0857
     33 C           3.3292   -0.6662   23.9867 C.3     1  UNL1        0.0245
     34 C           4.4170    0.3519   23.8138 C.3     1  UNL1        0.0245
@<TRIPOS>UNITY_ATOM_ATTR
30 1
charge -1
@<TRIPOS>BOND
     1    19    20    2
     2    20    23    1
     3    23    24    1
     4    24    25   ar
     5    25    26   ar
     6    26    27   ar
     7    27    28   ar
     8    20    21   am
     9    21    14    1
    10    14    15    1
    11    15    16    1
    12    16    17    1
    13    17     1    1
    14     1     2   ar
    15     2     3    1
    16     2     4   ar
    17     4     5   ar
    18     5     6   ar
    19     6     7    2
    20     6     8   ar
    21     8    29    1
    22    29    30   ar
    23    29    31   ar
    24     8     9   ar
    25     9    10   ar
    26    10    32    1
    27    32    33    1
    28    33    34    1
    29    10    11   ar
    30    11    12   ar
    31    12    13    1
    32    17    18    1
    33    28    24   ar
    34    18    14    1
    35    12     1   ar
    36    11     5   ar
    37    34    32    1
    38    21    22    1
@<TRIPOS>MOLECULE
*****
 34 38 0 0 0
SMALL
GASTEIGER

@<TRIPOS>ATOM
      1 C           7.0836   -4.6955   24.3244 C.ar    1  UNL1        0.0878
      2 C           7.7616   -6.0191   24.5203 C.ar    1  UNL1        0.1543
      3 F           8.1785   -6.8317   23.3304 F       1  UNL1       -0.2028
      4 C           8.0228   -6.5300   25.9062 C.ar    1  UNL1        0.0356
      5 C           7.6060   -5.7174   27.0961 C.ar    1  UNL1        0.0580
      6 C           7.8672   -6.2284   28.4820 C.ar    1  UNL1        0.1996
      7 O           8.5453   -7.5520   28.6780 O.2     1  UNL1       -0.2864
      8 C           7.4504   -5.4158   29.6720 C.ar    1  UNL1        0.0701
      9 C           6.7723   -4.0922   29.4760 C.ar    1  UNL1        0.0801
     10 N           6.5111   -3.5813   28.0901 N.ar    1  UNL1       -0.3270
     11 C           6.9280   -4.3939   26.9002 C.ar    1  UNL1        0.0750
     12 C           6.6668   -3.8829   25.5143 C.ar    1  UNL1        0.0890
     13 CL          5.9887   -2.5593   25.3183 Cl      1  UNL1       -0.0794
     14 C           5.6856   -3.3715   20.9542 C.3     1  UNL1        0.0930
     15 C           7.1550   -3.4248   20.6575 C.3     1  UNL1        0.0427
     16 C           7.8576   -3.9273   21.8839 C.3     1  UNL1        0.0927
     17 N           6.8224   -4.1845   22.9385 N.pl3   1  UNL1       -0.3033
     18 C           5.4800   -3.8410   22.3639 C.3     1  UNL1        0.1104
     19 O           5.3355   -0.4548   20.3454 O.2     1  UNL1       -0.2729
     20 C           4.4355   -1.4684   19.7029 C.2     1  UNL1        0.2475
     21 N           4.6105   -2.9268   20.0073 N.am    1  UNL1       -0.3026
     22 H           4.0199   -3.5920   19.5857 H       1  UNL1        0.1495
     23 C           3.3604   -1.0237   18.7561 C.3     1  UNL1        0.2153
     24 N           2.1274   -0.3517   19.2835 N.ar    1  UNL1       -0.2013
     25 C           1.5242    0.9188   18.7620 C.ar    1  UNL1        0.2219
     26 N           0.3052    1.2235   19.5813 N.ar    1  UNL1       -0.1048
     27 N           0.1551    0.1414   20.6091 N.ar    1  UNL1       -0.0225
     28 N           1.2813   -0.8321   20.4251 N.ar    1  UNL1       -0.0424
     29 C           7.7116   -5.9268   31.0578 C.2     1  UNL1        0.0774
     30 O           9.1213   -6.0905   31.5435 O.co2   1  UNL1       -0.5444
     31 O           6.5630   -6.2741   31.9580 O.co2   1  UNL1       -0.5444
     32 C           5.8331   -2.2577   27.8942 C.3     1  UNL1        0.0857
     33 C           5.9132   -0.7690   27.7285 C.3     1  UNL1        0.0245
     34 C           4.5787   -1.4539   27.7204 C.3     1  UNL1        0.0245
@<TRIPOS>UNITY_ATOM_ATTR
30 1
charge -1
@<TRIPOS>BOND
     1    19    20    2
     2    20    23    1
     3    23    24    1
     4    24    25   ar
     5    25    26   ar
     6    26    27   ar
     7    27    28   ar
     8    20    21   am
     9    21    14    1
    10    14    15    1
    11    15    16    1
    12    16    17    1
    13    17     1    1
    14     1     2   ar
    15     2     3    1
    16     2     4   ar
    17     4     5   ar
    18     5     6   ar
    19     6     7    2
    20     6     8   ar
    21     8    29    1
    22    29    30   ar
    23    29    31   ar
    24     8     9   ar
    25     9    10   ar
    26    10    32    1
    27    32    33    1
    28    33    34    1
    29    10    11   ar
    30    11    12   ar
    31    12    13    1
    32    17    18    1
    33    28    24   ar
    34    18    14    1
    35    12     1   ar
    36    11     5   ar
    37    34    32    1
    38    21    22    1
@<TRIPOS>MOLECULE
*****
 34 38 0 0 0
SMALL
GASTEIGER

@<TRIPOS>ATOM
      1 C          -1.6397    3.2760   20.5437 C.ar    1  UNL1        0.0878
      2 C          -2.7433    3.5874   19.5768 C.ar    1  UNL1        0.1543
      3 F          -2.5019    3.4728   18.1008 F       1  UNL1       -0.2028
      4 C          -4.0884    4.0136   20.0858 C.ar    1  UNL1        0.0356
      5 C          -4.3298    4.1282   21.5618 C.ar    1  UNL1        0.0580
      6 C          -5.6750    4.5544   22.0708 C.ar    1  UNL1        0.1996
      7 O          -6.7786    4.8658   21.1039 O.2     1  UNL1       -0.2864
      8 C          -5.9165    4.6690   23.5468 C.ar    1  UNL1        0.0701
      9 C          -4.8128    4.3575   24.5138 C.ar    1  UNL1        0.0801
     10 N          -3.4677    3.9314   24.0047 N.ar    1  UNL1       -0.3270
     11 C          -3.2262    3.8168   22.5287 C.ar    1  UNL1        0.0750
     12 C          -1.8812    3.3906   22.0197 C.ar    1  UNL1        0.0890
     13 CL         -0.7775    3.0791   22.9866 Cl      1  UNL1       -0.0794
     14 C           1.5385    1.4830   19.2208 C.3     1  UNL1        0.0930
     15 C           2.0121    2.9050   19.2820 C.3     1  UNL1        0.0427
     16 C           0.8792    3.7497   19.7850 C.3     1  UNL1        0.0927
     17 N          -0.2946    2.8498   20.0347 N.pl3   1  UNL1       -0.3033
     18 C           0.1129    1.4490   19.6859 C.3     1  UNL1        0.1104
     19 O           2.1706   -0.7224   21.1538 O.2     1  UNL1       -0.2729
     20 C           2.6643   -0.8003   19.7395 C.2     1  UNL1        0.2475
     21 N           2.3483    0.3025   18.7730 N.am    1  UNL1       -0.3026
     22 H           2.6723    0.2514   17.8447 H       1  UNL1        0.1495
     23 C           3.4741   -1.9808   19.2917 C.3     1  UNL1        0.2153
     24 N           4.7372   -1.7710   18.5102 N.ar    1  UNL1       -0.2013
     25 C           5.8232   -2.7842   18.3010 C.ar    1  UNL1        0.2219
     26 N           6.8931   -2.1505   17.4622 N.ar    1  UNL1       -0.1048
     27 N           6.4683   -0.7456   17.1529 N.ar    1  UNL1       -0.0225
     28 N           5.1359   -0.5110   17.8006 N.ar    1  UNL1       -0.0424
     29 C          -7.2615    5.0951   24.0559 C.2     1  UNL1        0.0774
     30 O          -8.4828    4.2972   23.7069 O.co2   1  UNL1       -0.5444
     31 O          -7.3854    6.3193   24.9140 O.co2   1  UNL1       -0.5444
     32 C          -2.3641    3.6200   24.9717 C.3     1  UNL1        0.0857
     33 C          -1.1952    4.0692   25.7974 C.3     1  UNL1        0.0245
     34 C          -1.6215    2.6313   25.8208 C.3     1  UNL1        0.0245
@<TRIPOS>UNITY_ATOM_ATTR
30 1
charge -1
@<TRIPOS>BOND
     1    19    20    2
     2    20    23    1
     3    23    24    1
     4    24    25   ar
     5    25    26   ar
     6    26    27   ar
     7    27    28   ar
     8    20    21   am
     9    21    14    1
    10    14    15    1
    11    15    16    1
    12    16    17    1
    13    17     1    1
    14     1     2   ar
    15     2     3    1
    16     2     4   ar
    17     4     5   ar
    18     5     6   ar
    19     6     7    2
    20     6     8   ar
    21     8    29    1
    22    29    30   ar
    23    29    31   ar
    24     8     9   ar
    25     9    10   ar
    26    10    32    1
    27    32    33    1
    28    33    34    1
    29    10    11   ar
    30    11    12   ar
    31    12    13    1
    32    17    18    1
    33    28    24   ar
    34    18    14    1
    35    12     1   ar
    36    11     5   ar
    37    34    32    1
    38    21    22    1
@<TRIPOS>MOLECULE
*****
 34 38 0 0 0
SMALL
GASTEIGER

@<TRIPOS>ATOM
      1 C           6.0380   -2.8098   25.4432 C.ar    1  UNL1        0.0878
      2 C           5.5895   -2.0108   26.6307 C.ar    1  UNL1        0.1543
      3 F           4.8657   -0.7122   26.4310 F       1  UNL1       -0.2028
      4 C           5.8647   -2.5103   28.0180 C.ar    1  UNL1        0.0356
      5 C           6.5885   -3.8089   28.2178 C.ar    1  UNL1        0.0580
      6 C           6.8637   -4.3084   29.6052 C.ar    1  UNL1        0.1996
      7 O           6.4152   -3.5094   30.7927 O.2     1  UNL1       -0.2864
      8 C           7.5875   -5.6070   29.8049 C.ar    1  UNL1        0.0701
      9 C           8.0360   -6.4060   28.6173 C.ar    1  UNL1        0.0801
     10 N           7.7608   -5.9065   27.2300 N.ar    1  UNL1       -0.3270
     11 C           7.0370   -4.6079   27.0302 C.ar    1  UNL1        0.0750
     12 C           6.7617   -4.1084   25.6429 C.ar    1  UNL1        0.0890
     13 CL          7.2103   -4.9074   24.4553 Cl      1  UNL1       -0.0794
     14 C           4.6399   -1.8097   21.9631 C.3     1  UNL1        0.0930
     15 C           6.0384   -1.2737   21.8786 C.3     1  UNL1        0.0427
     16 C           6.7323   -1.5831   23.1720 C.3     1  UNL1        0.0927
     17 N           5.7627   -2.3103   24.0558 N.pl3   1  UNL1       -0.3033
     18 C           4.4696   -2.4503   23.3087 C.3     1  UNL1        0.1104
     19 O           2.2402   -0.0510   22.3486 O.2     1  UNL1       -0.2729
     20 C           2.3954   -0.8413   21.0831 C.2     1  UNL1        0.2475
     21 N           3.5952   -1.7206   20.8904 N.am    1  UNL1       -0.3026
     22 H           3.6971   -2.2393   20.0598 H       1  UNL1        0.1495
     23 C           1.3507   -0.7522   20.0104 C.3     1  UNL1        0.2153
     24 N           0.7171    0.5687   19.6883 N.ar    1  UNL1       -0.2013
     25 C           0.9706    1.3922   18.4605 C.ar    1  UNL1        0.2219
     26 N           0.1289    2.6304   18.5509 N.ar    1  UNL1       -0.1048
     27 N          -0.6447    2.5723   19.8346 N.ar    1  UNL1       -0.0225
     28 N          -0.2812    1.2981   20.5376 N.ar    1  UNL1       -0.0424
     29 C           7.8627   -6.1065   31.1922 C.2     1  UNL1        0.0774
     30 O           9.2773   -6.2796   31.6602 O.co2   1  UNL1       -0.5444
     31 O           6.7234   -6.4329   32.1117 O.co2   1  UNL1       -0.5444
     32 C           8.2093   -6.7055   26.0424 C.3     1  UNL1        0.0857
     33 C           9.2794   -7.0885   25.0635 C.3     1  UNL1        0.0245
     34 C           7.9162   -7.7064   24.9644 C.3     1  UNL1        0.0245
@<TRIPOS>UNITY_ATOM_ATTR
30 1
charge -1
@<TRIPOS>BOND
     1    19    20    2
     2    20    23    1
     3    23    24    1
     4    24    25   ar
     5    25    26   ar
     6    26    27   ar
     7    27    28   ar
     8    20    21   am
     9    21    14    1
    10    14    15    1
    11    15    16    1
    12    16    17    1
    13    17     1    1
    14     1     2   ar
    15     2     3    1
    16     2     4   ar
    17     4     5   ar
    18     5     6   ar
    19     6     7    2
    20     6     8   ar
    21     8    29    1
    22    29    30   ar
    23    29    31   ar
    24     8     9   ar
    25     9    10   ar
    26    10    32    1
    27    32    33    1
    28    33    34    1
    29    10    11   ar
    30    11    12   ar
    31    12    13    1
    32    17    18    1
    33    28    24   ar
    34    18    14    1
    35    12     1   ar
    36    11     5   ar
    37    34    32    1
    38    21    22    1
@<TRIPOS>MOLECULE
*****
 34 38 0 0 0
SMALL
GASTEIGER

@<TRIPOS>ATOM
      1 C           3.5944   -0.6624   24.8781 C.ar    1  UNL1        0.0878
      2 C           4.6510   -1.7029   25.1035 C.ar    1  UNL1        0.1543
      3 F           5.2623   -1.8689   26.4632 F       1  UNL1       -0.2028
      4 C           5.0963   -2.5774   23.9691 C.ar    1  UNL1        0.0356
      5 C           4.4850   -2.4114   22.6094 C.ar    1  UNL1        0.0580
      6 C           4.9304   -3.2860   21.4750 C.ar    1  UNL1        0.1996
      7 O           5.9870   -4.3266   21.7003 O.2     1  UNL1       -0.2864
      8 C           4.3191   -3.1200   20.1153 C.ar    1  UNL1        0.0701
      9 C           3.2625   -2.0794   19.8900 C.ar    1  UNL1        0.0801
     10 N           2.8172   -1.2048   21.0244 N.ar    1  UNL1       -0.3270
     11 C           3.4285   -1.3709   22.3841 C.ar    1  UNL1        0.0750
     12 C           2.9831   -0.4963   23.5184 C.ar    1  UNL1        0.0890
     13 CL          1.9265    0.5443   23.2931 Cl      1  UNL1       -0.0794
     14 C           2.4169    0.9564   28.2036 C.3     1  UNL1        0.0930
     15 C           2.5105    2.1596   27.3127 C.3     1  UNL1        0.0427
     16 C           2.9630    1.6997   25.9586 C.3     1  UNL1        0.0927
     17 N           3.1490    0.2123   26.0125 N.pl3   1  UNL1       -0.3033
     18 C           2.8116   -0.2471   27.4000 C.3     1  UNL1        0.1104
     19 O           4.4930    1.1251   30.3627 O.2     1  UNL1       -0.2729
     20 C           3.0396    1.0411   30.7246 C.2     1  UNL1        0.2475
     21 N           2.0016    0.9568   29.6450 N.am    1  UNL1       -0.3026
     22 H           1.0478    0.9016   29.8824 H       1  UNL1        0.1495
     23 C           2.6243    1.0414   32.1659 C.3     1  UNL1        0.2153
     24 N           3.4141    0.2605   33.1741 N.ar    1  UNL1       -0.2013
     25 C           4.0208    0.8058   34.4329 C.ar    1  UNL1        0.2219
     26 N           4.7174   -0.3205   35.1373 N.ar    1  UNL1       -0.1048
     27 N           4.5413   -1.5618   34.3139 N.ar    1  UNL1       -0.0225
     28 N           3.7358   -1.2027   33.1006 N.ar    1  UNL1       -0.0424
     29 C           4.7645   -3.9945   18.9809 C.2     1  UNL1        0.0774
     30 O           5.4554   -3.3903   17.7946 O.co2   1  UNL1       -0.5444
     31 O           4.5188   -5.4734   19.0329 O.co2   1  UNL1       -0.5444
     32 C           1.7606   -0.1643   20.7990 C.3     1  UNL1        0.0857
     33 C           1.3778    1.2561   20.5060 C.3     1  UNL1        0.0245
     34 C           0.3133    0.2176   20.7018 C.3     1  UNL1        0.0245
@<TRIPOS>UNITY_ATOM_ATTR
30 1
charge -1
@<TRIPOS>BOND
     1    19    20    2
     2    20    23    1
     3    23    24    1
     4    24    25   ar
     5    25    26   ar
     6    26    27   ar
     7    27    28   ar
     8    20    21   am
     9    21    14    1
    10    14    15    1
    11    15    16    1
    12    16    17    1
    13    17     1    1
    14     1     2   ar
    15     2     3    1
    16     2     4   ar
    17     4     5   ar
    18     5     6   ar
    19     6     7    2
    20     6     8   ar
    21     8    29    1
    22    29    30   ar
    23    29    31   ar
    24     8     9   ar
    25     9    10   ar
    26    10    32    1
    27    32    33    1
    28    33    34    1
    29    10    11   ar
    30    11    12   ar
    31    12    13    1
    32    17    18    1
    33    28    24   ar
    34    18    14    1
    35    12     1   ar
    36    11     5   ar
    37    34    32    1
    38    21    22    1
@<TRIPOS>MOLECULE
*****
 34 38 0 0 0
SMALL
GASTEIGER

@<TRIPOS>ATOM
      1 C          -1.4490    3.3539   20.4409 C.ar    1  UNL1        0.0878
      2 C          -2.5655    3.6778   19.4930 C.ar    1  UNL1        0.1543
      3 F          -2.3266    3.6421   18.0126 F       1  UNL1       -0.2028
      4 C          -3.9208    4.0374   20.0256 C.ar    1  UNL1        0.0356
      5 C          -4.1596    4.0731   21.5060 C.ar    1  UNL1        0.0580
      6 C          -5.5151    4.4327   22.0386 C.ar    1  UNL1        0.1996
      7 O          -6.6316    4.7567   21.0907 O.2     1  UNL1       -0.2864
      8 C          -5.7539    4.4684   23.5190 C.ar    1  UNL1        0.0701
      9 C          -4.6373    4.1445   24.4669 C.ar    1  UNL1        0.0801
     10 N          -3.2820    3.7849   23.9343 N.ar    1  UNL1       -0.3270
     11 C          -3.0432    3.7492   22.4539 C.ar    1  UNL1        0.0750
     12 C          -1.6878    3.3896   21.9213 C.ar    1  UNL1        0.0890
     13 CL         -0.5712    3.0656   22.8692 Cl      1  UNL1       -0.0794
     14 C           1.7598    1.7372   18.9726 C.3     1  UNL1        0.0930
     15 C           2.2245    3.1443   19.2051 C.3     1  UNL1        0.0427
     16 C           1.0791    3.9212   19.7834 C.3     1  UNL1        0.0927
     17 N          -0.0935    2.9942   19.9083 N.pl3   1  UNL1       -0.3033
     18 C           0.3272    1.6444   19.4072 C.3     1  UNL1        0.1104
     19 O           2.4412   -0.6374   20.6747 O.2     1  UNL1       -0.2729
     20 C           2.9239   -0.5682   19.2561 C.2     1  UNL1        0.2475
     21 N           2.5831    0.6191   18.4051 N.am    1  UNL1       -0.3026
     22 H           2.8999    0.6646   17.4740 H       1  UNL1        0.1495
     23 C           3.7472   -1.6862   18.6886 C.3     1  UNL1        0.2153
     24 N           3.8772   -2.9780   19.4398 N.ar    1  UNL1       -0.2013
     25 C           4.6569   -3.1882   20.7039 C.ar    1  UNL1        0.2219
     26 N           4.5119   -4.6266   21.1041 N.ar    1  UNL1       -0.1048
     27 N           3.6426   -5.3053   20.0875 N.ar    1  UNL1       -0.0225
     28 N           3.2504   -4.2864   19.0589 N.ar    1  UNL1       -0.0424
     29 C          -7.1093    4.8281   24.0516 C.2     1  UNL1        0.0774
     30 O          -8.3270    4.1105   23.5494 O.co2   1  UNL1       -0.5444
     31 O          -7.2469    5.9052   25.0864 O.co2   1  UNL1       -0.5444
     32 C          -2.1655    3.4610   24.8822 C.3     1  UNL1        0.0857
     33 C          -1.3378    2.4485   25.6169 C.3     1  UNL1        0.0245
     34 C          -1.0594    3.9123   25.7892 C.3     1  UNL1        0.0245
@<TRIPOS>UNITY_ATOM_ATTR
30 1
charge -1
@<TRIPOS>BOND
     1    19    20    2
     2    20    23    1
     3    23    24    1
     4    24    25   ar
     5    25    26   ar
     6    26    27   ar
     7    27    28   ar
     8    20    21   am
     9    21    14    1
    10    14    15    1
    11    15    16    1
    12    16    17    1
    13    17     1    1
    14     1     2   ar
    15     2     3    1
    16     2     4   ar
    17     4     5   ar
    18     5     6   ar
    19     6     7    2
    20     6     8   ar
    21     8    29    1
    22    29    30   ar
    23    29    31   ar
    24     8     9   ar
    25     9    10   ar
    26    10    32    1
    27    32    33    1
    28    33    34    1
    29    10    11   ar
    30    11    12   ar
    31    12    13    1
    32    17    18    1
    33    28    24   ar
    34    18    14    1
    35    12     1   ar
    36    11     5   ar
    37    34    32    1
    38    21    22    1
@<TRIPOS>MOLECULE
*****
 34 38 0 0 0
SMALL
GASTEIGER

@<TRIPOS>ATOM
      1 C           2.1986    0.8526   23.6357 C.ar    1  UNL1        0.0878
      2 C           2.8483   -0.0896   24.6053 C.ar    1  UNL1        0.1543
      3 F           2.7652    0.1758   26.0792 F       1  UNL1       -0.2028
      4 C           3.5810   -1.2973   24.1008 C.ar    1  UNL1        0.0356
      5 C           3.6641   -1.5627   22.6268 C.ar    1  UNL1        0.0580
      6 C           4.3969   -2.7705   22.1224 C.ar    1  UNL1        0.1996
      7 O           5.0465   -3.7128   23.0919 O.2     1  UNL1       -0.2864
      8 C           4.4800   -3.0359   20.6484 C.ar    1  UNL1        0.0701
      9 C           3.8303   -2.0936   19.6788 C.ar    1  UNL1        0.0801
     10 N           3.0976   -0.8859   20.1833 N.ar    1  UNL1       -0.3270
     11 C           3.0145   -0.6205   21.6573 C.ar    1  UNL1        0.0750
     12 C           2.2817    0.5872   22.1617 C.ar    1  UNL1        0.0890
     13 CL          1.6320    1.5296   21.1922 Cl      1  UNL1       -0.0794
     14 C          -0.3129    3.5531   24.8465 C.3     1  UNL1        0.0930
     15 C           0.9892    4.2847   24.9862 C.3     1  UNL1        0.0427
     16 C           2.0884    3.3622   24.5497 C.3     1  UNL1        0.0927
     17 N           1.4658    2.0604   24.1402 N.pl3   1  UNL1       -0.3033
     18 C          -0.0183    2.1784   24.3236 C.3     1  UNL1        0.1104
     19 O          -1.8138    2.5197   27.2296 O.2     1  UNL1       -0.2729
     20 C          -2.4215    3.5834   26.3640 C.2     1  UNL1        0.2475
     21 N          -1.6710    4.1001   25.1724 N.am    1  UNL1       -0.3026
     22 H          -2.0698    4.7982   24.6042 H       1  UNL1        0.1495
     23 C          -3.7796    4.1304   26.6899 C.3     1  UNL1        0.2153
     24 N          -4.8108    4.2706   25.6096 N.ar    1  UNL1       -0.2013
     25 C          -6.0426    5.1241   25.6719 C.ar    1  UNL1        0.2219
     26 N          -6.7843    4.9628   24.3781 N.ar    1  UNL1       -0.1048
     27 N          -6.0109    4.0095   23.5162 N.ar    1  UNL1       -0.0225
     28 N          -4.7912    3.5816   24.2773 N.ar    1  UNL1       -0.0424
     29 C           5.2127   -4.2436   20.1440 C.2     1  UNL1        0.0774
     30 O           6.6776   -4.4035   20.4243 O.co2   1  UNL1       -0.5444
     31 O           4.4806   -5.2916   19.3591 O.co2   1  UNL1       -0.5444
     32 C           2.4479    0.0564   19.2138 C.3     1  UNL1        0.0857
     33 C           1.2270    0.5295   18.4819 C.3     1  UNL1        0.0245
     34 C           2.5435    1.2153   18.2663 C.3     1  UNL1        0.0245
@<TRIPOS>UNITY_ATOM_ATTR
30 1
charge -1
@<TRIPOS>BOND
     1    19    20    2
     2    20    23    1
     3    23    24    1
     4    24    25   ar
     5    25    26   ar
     6    26    27   ar
     7    27    28   ar
     8    20    21   am
     9    21    14    1
    10    14    15    1
    11    15    16    1
    12    16    17    1
    13    17     1    1
    14     1     2   ar
    15     2     3    1
    16     2     4   ar
    17     4     5   ar
    18     5     6   ar
    19     6     7    2
    20     6     8   ar
    21     8    29    1
    22    29    30   ar
    23    29    31   ar
    24     8     9   ar
    25     9    10   ar
    26    10    32    1
    27    32    33    1
    28    33    34    1
    29    10    11   ar
    30    11    12   ar
    31    12    13    1
    32    17    18    1
    33    28    24   ar
    34    18    14    1
    35    12     1   ar
    36    11     5   ar
    37    34    32    1
    38    21    22    1
