@<TRIPOS>MOLECULE
*****
 28 30 0 0 0
SMALL
GASTEIGER

@<TRIPOS>ATOM
      1 N          -0.3712    2.9283   22.6309 N.am    1  UNL1       -0.2508
      2 C           0.4864    1.6977   22.6367 C.2     1  UNL1        0.3089
      3 O           0.6973    0.9365   23.9119 O.2     1  UNL1       -0.2522
      4 N           1.1332    1.2282   21.3673 N.am    1  UNL1       -0.2621
      5 C           0.8580    2.0607   20.1502 C.3     1  UNL1        0.0968
      6 C           1.3513    1.8589   18.7480 C.3     1  UNL1        0.0430
      7 C           2.2415    0.7750   18.2168 C.3     1  UNL1        0.0952
      8 N           2.8585   -0.3751   18.9563 N.am    1  UNL1       -0.2777
      9 C           3.7088   -1.2969   18.1335 C.2     1  UNL1        0.2254
     10 O           3.8957   -1.0369   16.6681 O.2     1  UNL1       -0.2749
     11 C           2.7374   -0.7251   20.4099 C.3     1  UNL1        0.1149
     12 C           1.9696   -0.0115   21.4828 C.3     1  UNL1        0.1164
     13 H          -0.5096    3.4279   21.7939 H       1  UNL1        0.1579
     14 C           4.3723   -2.4788   18.7762 C.3     1  UNL1        0.0817
     15 C           5.7473   -2.3414   19.3597 C.3     1  UNL1        0.0412
     16 C           6.4108   -3.5233   20.0023 C.3     1  UNL1        0.1427
     17 O           5.6993   -4.8425   20.0614 O.3     1  UNL1       -0.3538
     18 C           4.3243   -4.9798   19.4779 C.3     1  UNL1        0.1427
     19 C           3.6608   -3.7980   18.8353 C.3     1  UNL1        0.0412
     20 C          -2.6773    4.1455   25.5059 C.ar    1  UNL1        0.1549
     21 C          -2.4725    3.7148   24.0837 C.ar    1  UNL1        0.0734
     22 C          -1.0180    3.3977   23.9003 C.ar    1  UNL1        0.1771
     23 N          -0.3238    3.6324   25.2091 N.ar    1  UNL1       -0.0621
     24 O          -1.3492    4.0946   26.2014 O.2     1  UNL1       -0.3565
     25 C          -4.7140    3.6513   25.1776 C.3     1  UNL1        0.0076
     26 C          -3.9812    4.5552   26.1241 C.3     1  UNL1        0.0539
     27 C          -3.2484    5.4592   27.0706 C.3     1  UNL1        0.0076
     28 C          -5.2851    4.9650   26.7422 C.3     1  UNL1        0.0076
@<TRIPOS>BOND
     1    25    26    1
     2    26    27    1
     3    26    28    1
     4    26    20    1
     5    20    21   ar
     6    21    22   ar
     7    22     1    1
     8     1     2   am
     9     2     3    2
    10     2     4   am
    11     4     5    1
    12     5     6    1
    13     6     7    1
    14     7     8    1
    15     8     9   am
    16     9    10    2
    17     9    14    1
    18    14    15    1
    19    15    16    1
    20    16    17    1
    21    17    18    1
    22    18    19    1
    23     8    11    1
    24    11    12    1
    25    22    23   ar
    26    23    24   ar
    27    24    20   ar
    28    12     4    1
    29    19    14    1
    30     1    13    1
@<TRIPOS>MOLECULE
*****
 28 30 0 0 0
SMALL
GASTEIGER

@<TRIPOS>ATOM
      1 N           7.6450   -4.3456   21.2992 N.am    1  UNL1       -0.2508
      2 C           7.6119   -3.8918   22.7285 C.2     1  UNL1        0.3089
      3 O           7.3014   -2.4609   23.0542 O.2     1  UNL1       -0.2522
      4 N           7.8894   -4.8689   23.8323 N.am    1  UNL1       -0.2621
      5 C           8.1886   -6.2733   23.3982 C.3     1  UNL1        0.0968
      6 C           8.5033   -7.4682   24.2488 C.3     1  UNL1        0.0430
      7 C           8.5965   -7.5537   25.7433 C.3     1  UNL1        0.0952
      8 N           8.3982   -6.4656   26.7567 N.am    1  UNL1       -0.2777
      9 C           8.5621   -6.8739   28.1906 C.2     1  UNL1        0.2254
     10 O           8.9031   -8.2942   28.5318 O.2     1  UNL1       -0.2749
     11 C           8.0575   -5.0232   26.5255 C.3     1  UNL1        0.1149
     12 C           7.8311   -4.3127   25.2240 C.3     1  UNL1        0.1164
     13 H           7.8488   -5.2848   21.0855 H       1  UNL1        0.1579
     14 C           8.3850   -5.8618   29.2836 C.3     1  UNL1        0.0817
     15 C           9.5358   -4.9914   29.6934 C.3     1  UNL1        0.0412
     16 C           9.3587   -3.9794   30.7863 C.3     1  UNL1        0.1427
     17 O           8.0308   -3.8378   31.4693 O.3     1  UNL1       -0.3538
     18 C           6.8800   -4.7082   31.0595 C.3     1  UNL1        0.1427
     19 C           7.0570   -5.7202   29.9666 C.3     1  UNL1        0.0412
     20 C           6.2034   -1.9510   18.6060 C.ar    1  UNL1        0.1549
     21 C           6.0118   -2.9337   19.7231 C.ar    1  UNL1        0.0734
     22 C           7.3675   -3.3684   20.1955 C.ar    1  UNL1        0.1771
     23 N           8.3969   -2.6545   19.3704 N.ar    1  UNL1       -0.0621
     24 O           7.6774   -1.7785   18.3882 O.2     1  UNL1       -0.3565
     25 C           4.1095   -2.2248   18.4040 C.3     1  UNL1        0.0076
     26 C           5.1124   -1.2618   17.8412 C.3     1  UNL1        0.0539
     27 C           6.1154   -0.2988   17.2783 C.3     1  UNL1        0.0076
     28 C           4.0215   -0.5727   17.0763 C.3     1  UNL1        0.0076
@<TRIPOS>BOND
     1    25    26    1
     2    26    27    1
     3    26    28    1
     4    26    20    1
     5    20    21   ar
     6    21    22   ar
     7    22     1    1
     8     1     2   am
     9     2     3    2
    10     2     4   am
    11     4     5    1
    12     5     6    1
    13     6     7    1
    14     7     8    1
    15     8     9   am
    16     9    10    2
    17     9    14    1
    18    14    15    1
    19    15    16    1
    20    16    17    1
    21    17    18    1
    22    18    19    1
    23     8    11    1
    24    11    12    1
    25    22    23   ar
    26    23    24   ar
    27    24    20   ar
    28    12     4    1
    29    19    14    1
    30     1    13    1
@<TRIPOS>MOLECULE
*****
 28 30 0 0 0
SMALL
GASTEIGER

@<TRIPOS>ATOM
      1 N           7.1975   -4.3045   23.0902 N.am    1  UNL1       -0.2508
      2 C           6.3624   -3.0807   22.8556 C.2     1  UNL1        0.3089
      3 O           6.0287   -2.1699   23.9997 O.2     1  UNL1       -0.2522
      4 N           5.8611   -2.7678   21.4770 N.am    1  UNL1       -0.2621
      5 C           6.2516   -3.7425   20.4057 C.3     1  UNL1        0.0968
      6 C           5.9130   -3.7116   18.9446 C.3     1  UNL1        0.0430
      7 C           5.1004   -2.6986   18.1942 C.3     1  UNL1        0.0952
      8 N           4.4255   -1.4661   18.7192 N.am    1  UNL1       -0.2777
      9 C           3.6811   -0.6495   17.7050 C.2     1  UNL1        0.2254
     10 O           3.6471   -1.0852   16.2700 O.2     1  UNL1       -0.2749
     11 C           4.3967   -0.9423   20.1245 C.3     1  UNL1        0.1149
     12 C           5.0357   -1.5217   21.3518 C.3     1  UNL1        0.1164
     13 H           7.4165   -4.9023   22.3393 H       1  UNL1        0.1579
     14 C           2.9707    0.6029   18.1255 C.3     1  UNL1        0.0817
     15 C           3.7361    1.8838   18.2791 C.3     1  UNL1        0.0412
     16 C           3.0257    3.1361   18.6997 C.3     1  UNL1        0.1427
     17 O           1.5500    3.1077   18.9667 O.3     1  UNL1       -0.3538
     18 C           0.7846    1.8268   18.8131 C.3     1  UNL1        0.1427
     19 C           1.4949    0.5744   18.3926 C.3     1  UNL1        0.0412
     20 C           7.7641   -5.1191   26.8427 C.ar    1  UNL1        0.1549
     21 C           6.8510   -4.8339   25.6873 C.ar    1  UNL1        0.0734
     22 C           7.6988   -4.6174   24.4690 C.ar    1  UNL1        0.1771
     23 N           9.1359   -4.7688   24.8713 N.ar    1  UNL1       -0.0621
     24 O           9.1762   -5.0788   26.3383 O.2     1  UNL1       -0.3565
     25 C           8.4133   -6.4367   28.3732 C.3     1  UNL1        0.0076
     26 C           7.3397   -5.3959   28.2545 C.3     1  UNL1        0.0539
     27 C           6.2661   -4.3551   28.1358 C.3     1  UNL1        0.0076
     28 C           6.9152   -5.6727   29.6663 C.3     1  UNL1        0.0076
@<TRIPOS>BOND
     1    25    26    1
     2    26    27    1
     3    26    28    1
     4    26    20    1
     5    20    21   ar
     6    21    22   ar
     7    22     1    1
     8     1     2   am
     9     2     3    2
    10     2     4   am
    11     4     5    1
    12     5     6    1
    13     6     7    1
    14     7     8    1
    15     8     9   am
    16     9    10    2
    17     9    14    1
    18    14    15    1
    19    15    16    1
    20    16    17    1
    21    17    18    1
    22    18    19    1
    23     8    11    1
    24    11    12    1
    25    22    23   ar
    26    23    24   ar
    27    24    20   ar
    28    12     4    1
    29    19    14    1
    30     1    13    1
@<TRIPOS>MOLECULE
*****
 28 30 0 0 0
SMALL
GASTEIGER

@<TRIPOS>ATOM
      1 N           7.0495   -2.0392   32.4787 N.am    1  UNL1       -0.2508
      2 C           5.7906   -1.6071   33.1703 C.2     1  UNL1        0.3089
      3 O           4.4550   -1.9951   32.6084 O.2     1  UNL1       -0.2522
      4 N           5.8671   -0.7870   34.4239 N.am    1  UNL1       -0.2621
      5 C           7.2500   -0.4541   34.9004 C.3     1  UNL1        0.0968
      6 C           7.6580    0.3398   36.1060 C.3     1  UNL1        0.0430
      7 C           6.7840    0.9969   37.1326 C.3     1  UNL1        0.0952
      8 N           5.2861    1.0224   37.2076 N.am    1  UNL1       -0.2777
      9 C           4.7052    1.7723   38.3695 C.2     1  UNL1        0.2254
     10 O           5.6123    2.4356   39.3631 O.2     1  UNL1       -0.2749
     11 C           4.2922    0.3971   36.2742 C.3     1  UNL1        0.1149
     12 C           4.5509   -0.4082   35.0353 C.3     1  UNL1        0.1164
     13 H           7.9260   -1.7845   32.8476 H       1  UNL1        0.1579
     14 C           3.2172    1.8590   38.5379 C.3     1  UNL1        0.0817
     15 C           2.4848    3.0963   38.1103 C.3     1  UNL1        0.0412
     16 C           0.9969    3.1829   38.2787 C.3     1  UNL1        0.1427
     17 O           0.2412    2.0324   38.8746 O.3     1  UNL1       -0.3538
     18 C           0.9735    0.7951   39.3022 C.3     1  UNL1        0.1427
     19 C           2.4615    0.7084   39.1338 C.3     1  UNL1        0.0412
     20 C           7.2673   -4.6570   29.6212 C.ar    1  UNL1        0.1549
     21 C           7.5949   -4.2080   31.0144 C.ar    1  UNL1        0.0734
     22 C           6.9729   -2.8594   31.2251 C.ar    1  UNL1        0.1771
     23 N           6.2608   -2.4749   29.9621 N.ar    1  UNL1       -0.0621
     24 O           6.4428   -3.5859   28.9709 O.2     1  UNL1       -0.3565
     25 C           6.8192   -5.6555   27.8039 C.3     1  UNL1        0.0076
     26 C           7.6899   -5.9501   28.9893 C.3     1  UNL1        0.0539
     27 C           8.5607   -6.2447   30.1746 C.3     1  UNL1        0.0076
     28 C           8.1126   -7.2432   28.3573 C.3     1  UNL1        0.0076
@<TRIPOS>BOND
     1    25    26    1
     2    26    27    1
     3    26    28    1
     4    26    20    1
     5    20    21   ar
     6    21    22   ar
     7    22     1    1
     8     1     2   am
     9     2     3    2
    10     2     4   am
    11     4     5    1
    12     5     6    1
    13     6     7    1
    14     7     8    1
    15     8     9   am
    16     9    10    2
    17     9    14    1
    18    14    15    1
    19    15    16    1
    20    16    17    1
    21    17    18    1
    22    18    19    1
    23     8    11    1
    24    11    12    1
    25    22    23   ar
    26    23    24   ar
    27    24    20   ar
    28    12     4    1
    29    19    14    1
    30     1    13    1
@<TRIPOS>MOLECULE
*****
 28 30 0 0 0
SMALL
GASTEIGER

@<TRIPOS>ATOM
      1 N           6.7516   -4.3049   23.8804 N.am    1  UNL1       -0.2508
      2 C           6.6599   -3.4415   25.1035 C.2     1  UNL1        0.3089
      3 O           6.4535   -1.9624   24.9637 O.2     1  UNL1       -0.2522
      4 N           6.7746   -4.0572   26.4665 N.am    1  UNL1       -0.2621
      5 C           6.9794   -5.5430   26.4943 C.3     1  UNL1        0.0968
      6 C           7.1294   -6.4443   27.6840 C.3     1  UNL1        0.0430
      7 C           7.1118   -6.0824   29.1394 C.3     1  UNL1        0.0952
      8 N           6.9398   -4.7299   29.7650 N.am    1  UNL1       -0.2777
      9 C           6.9684   -4.6979   31.2643 C.2     1  UNL1        0.2254
     10 O           7.1601   -5.9685   32.0381 O.2     1  UNL1       -0.2749
     11 C           6.7428   -3.4053   29.0894 C.3     1  UNL1        0.1149
     12 C           6.6693   -3.1060   27.6213 C.3     1  UNL1        0.1164
     13 H           6.8870   -5.2757   23.9721 H       1  UNL1        0.1579
     14 C           6.8054   -3.3952   31.9899 C.3     1  UNL1        0.0817
     15 C           5.4405   -2.9363   32.4100 C.3     1  UNL1        0.0412
     16 C           5.2776   -1.6337   33.1355 C.3     1  UNL1        0.1427
     17 O           6.4794   -0.7899   33.4411 O.3     1  UNL1       -0.3538
     18 C           7.8444   -1.2487   33.0211 C.3     1  UNL1        0.1427
     19 C           8.0074   -2.5514   32.2955 C.3     1  UNL1        0.0412
     20 C           5.7129   -2.7445   20.4815 C.ar    1  UNL1        0.1549
     21 C           5.3601   -3.3319   21.8159 C.ar    1  UNL1        0.0734
     22 C           6.6369   -3.6892   22.5173 C.ar    1  UNL1        0.1771
     23 N           7.7789   -3.3226   21.6165 N.ar    1  UNL1       -0.0621
     24 O           7.2078   -2.7388   20.3584 O.2     1  UNL1       -0.3565
     25 C           3.8976   -1.6483   20.5358 C.3     1  UNL1        0.0076
     26 C           4.7414   -2.2497   19.4512 C.3     1  UNL1        0.0539
     27 C           5.5853   -2.8512   18.3667 C.3     1  UNL1        0.0076
     28 C           3.7699   -1.7550   18.4210 C.3     1  UNL1        0.0076
@<TRIPOS>BOND
     1    25    26    1
     2    26    27    1
     3    26    28    1
     4    26    20    1
     5    20    21   ar
     6    21    22   ar
     7    22     1    1
     8     1     2   am
     9     2     3    2
    10     2     4   am
    11     4     5    1
    12     5     6    1
    13     6     7    1
    14     7     8    1
    15     8     9   am
    16     9    10    2
    17     9    14    1
    18    14    15    1
    19    15    16    1
    20    16    17    1
    21    17    18    1
    22    18    19    1
    23     8    11    1
    24    11    12    1
    25    22    23   ar
    26    23    24   ar
    27    24    20   ar
    28    12     4    1
    29    19    14    1
    30     1    13    1
@<TRIPOS>MOLECULE
*****
 28 30 0 0 0
SMALL
GASTEIGER

@<TRIPOS>ATOM
      1 N           3.4208   -0.2824   30.6088 N.am    1  UNL1       -0.2508
      2 C           2.2408    0.6421   30.5551 C.2     1  UNL1        0.3089
      3 O           1.5980    1.1123   31.8262 O.2     1  UNL1       -0.2522
      4 N           1.7035    1.0965   29.2304 N.am    1  UNL1       -0.2621
      5 C           2.4187    0.5680   28.0223 C.3     1  UNL1        0.0968
      6 C           2.1291    0.8318   26.5743 C.3     1  UNL1        0.0430
      7 C           1.0529    1.6890   25.9768 C.3     1  UNL1        0.0952
      8 N           0.0005    2.4943   26.6797 N.am    1  UNL1       -0.2777
      9 C          -0.9401    3.2529   25.7911 C.2     1  UNL1        0.2254
     10 O          -0.7911    3.1747   24.3006 O.2     1  UNL1       -0.2749
     11 C          -0.2356    2.6411   28.1537 C.3     1  UNL1        0.1149
     12 C           0.5224    2.0190   29.2888 C.3     1  UNL1        0.1164
     13 H           3.8426   -0.5910   29.7745 H       1  UNL1        0.1579
     14 C          -2.0297    4.0899   26.3931 C.3     1  UNL1        0.0817
     15 C          -1.7042    5.4244   26.9957 C.3     1  UNL1        0.0412
     16 C          -2.7938    6.2612   27.5976 C.3     1  UNL1        0.1427
     17 O          -4.2088    5.7637   27.5969 O.3     1  UNL1       -0.3538
     18 C          -4.5344    4.4293   26.9942 C.3     1  UNL1        0.1427
     19 C          -3.4448    3.5923   26.3923 C.3     1  UNL1        0.0412
     20 C           5.1439   -0.7820   34.0507 C.ar    1  UNL1        0.1549
     21 C           4.8549    0.0541   32.8393 C.ar    1  UNL1        0.0734
     22 C           3.9580   -0.7367   31.9336 C.ar    1  UNL1        0.1771
     23 N           3.6927   -2.0615   32.5852 N.ar    1  UNL1       -0.0621
     24 O           4.4256   -2.0894   33.8936 O.2     1  UNL1       -0.3565
     25 C           7.1984   -0.3237   34.3135 C.3     1  UNL1        0.0076
     26 C           6.0007   -0.3811   35.2148 C.3     1  UNL1        0.0539
     27 C           4.8031   -0.4384   36.1161 C.3     1  UNL1        0.0076
     28 C           6.8576    0.0199   36.3789 C.3     1  UNL1        0.0076
@<TRIPOS>BOND
     1    25    26    1
     2    26    27    1
     3    26    28    1
     4    26    20    1
     5    20    21   ar
     6    21    22   ar
     7    22     1    1
     8     1     2   am
     9     2     3    2
    10     2     4   am
    11     4     5    1
    12     5     6    1
    13     6     7    1
    14     7     8    1
    15     8     9   am
    16     9    10    2
    17     9    14    1
    18    14    15    1
    19    15    16    1
    20    16    17    1
    21    17    18    1
    22    18    19    1
    23     8    11    1
    24    11    12    1
    25    22    23   ar
    26    23    24   ar
    27    24    20   ar
    28    12     4    1
    29    19    14    1
    30     1    13    1
@<TRIPOS>MOLECULE
*****
 28 30 0 0 0
SMALL
GASTEIGER

@<TRIPOS>ATOM
      1 N           6.7908   -4.4959   23.2868 N.am    1  UNL1       -0.2508
      2 C           7.0845   -3.1869   22.6157 C.2     1  UNL1        0.3089
      3 O           8.0651   -2.2325   23.2301 O.2     1  UNL1       -0.2522
      4 N           6.3977   -2.8324   21.3302 N.am    1  UNL1       -0.2621
      5 C           5.4368   -3.8560   20.8019 C.3     1  UNL1        0.0968
      6 C           4.6035   -3.8012   19.5558 C.3     1  UNL1        0.0430
      7 C           4.5252   -2.7093   18.5305 C.3     1  UNL1        0.0952
      8 N           5.2609   -1.4025   18.4977 N.am    1  UNL1       -0.2777
      9 C           4.9613   -0.5162   17.3253 C.2     1  UNL1        0.2254
     10 O           3.9793   -0.9594   16.2816 O.2     1  UNL1       -0.2749
     11 C           6.2566   -0.8649   19.4823 C.3     1  UNL1        0.1149
     12 C           6.7625   -1.5013   20.7429 C.3     1  UNL1        0.1164
     13 H           6.1472   -5.1223   22.8835 H       1  UNL1        0.1579
     14 C           5.6436    0.8135   17.1966 C.3     1  UNL1        0.0817
     15 C           5.0508    2.0270   17.8493 C.3     1  UNL1        0.0412
     16 C           5.7332    3.3565   17.7206 C.3     1  UNL1        0.1427
     17 O           7.0082    3.4727   16.9391 O.3     1  UNL1       -0.3538
     18 C           7.6010    2.2592   16.2864 C.3     1  UNL1        0.1427
     19 C           6.9187    0.9296   16.4151 C.3     1  UNL1        0.0412
     20 C           7.8764   -5.3708   26.9092 C.ar    1  UNL1        0.1549
     21 C           6.8163   -5.0181   25.9082 C.ar    1  UNL1        0.0734
     22 C           7.4777   -4.8504   24.5724 C.ar    1  UNL1        0.1771
     23 N           8.9465   -5.0994   24.7477 N.ar    1  UNL1       -0.0621
     24 O           9.1928   -5.4210   26.1919 O.2     1  UNL1       -0.3565
     25 C           6.2080   -5.2773   28.2161 C.3     1  UNL1        0.0076
     26 C           7.6582   -5.6281   28.3708 C.3     1  UNL1        0.0539
     27 C           9.1084   -5.9788   28.5255 C.3     1  UNL1        0.0076
     28 C           7.4401   -5.8853   29.8324 C.3     1  UNL1        0.0076
@<TRIPOS>BOND
     1    25    26    1
     2    26    27    1
     3    26    28    1
     4    26    20    1
     5    20    21   ar
     6    21    22   ar
     7    22     1    1
     8     1     2   am
     9     2     3    2
    10     2     4   am
    11     4     5    1
    12     5     6    1
    13     6     7    1
    14     7     8    1
    15     8     9   am
    16     9    10    2
    17     9    14    1
    18    14    15    1
    19    15    16    1
    20    16    17    1
    21    17    18    1
    22    18    19    1
    23     8    11    1
    24    11    12    1
    25    22    23   ar
    26    23    24   ar
    27    24    20   ar
    28    12     4    1
    29    19    14    1
    30     1    13    1
@<TRIPOS>MOLECULE
*****
 28 30 0 0 0
SMALL
GASTEIGER

@<TRIPOS>ATOM
      1 N           1.9413    0.6109   20.8453 N.am    1  UNL1       -0.2508
      2 C           0.7469    1.2349   20.1865 C.2     1  UNL1        0.3089
      3 O           0.4953    1.0129   18.7246 O.2     1  UNL1       -0.2522
      4 N          -0.1961    2.0810   20.9898 N.am    1  UNL1       -0.2621
      5 C           0.1471    2.2389   22.4415 C.3     1  UNL1        0.0968
      6 C          -0.5864    3.0121   23.4971 C.3     1  UNL1        0.0430
      7 C          -1.8440    3.8182   23.3617 C.3     1  UNL1        0.0952
      8 N          -2.6789    4.0503   22.1373 N.am    1  UNL1       -0.2777
      9 C          -3.8906    4.9133   22.3298 C.2     1  UNL1        0.2254
     10 O          -4.1993    5.4815   23.6832 O.2     1  UNL1       -0.2749
     11 C          -2.4623    3.5336   20.7459 C.3     1  UNL1        0.1149
     12 C          -1.3573    2.6571   20.2353 C.3     1  UNL1        0.1164
     13 H           2.1064    0.7566   21.8048 H       1  UNL1        0.1579
     14 C          -4.7936    5.2080   21.1688 C.3     1  UNL1        0.0817
     15 C          -5.9412    4.2926   20.8600 C.3     1  UNL1        0.0412
     16 C          -6.8441    4.5874   19.6991 C.3     1  UNL1        0.1427
     17 O          -6.5996    5.7973   18.8470 O.3     1  UNL1       -0.3538
     18 C          -5.4520    6.7126   19.1558 C.3     1  UNL1        0.1427
     19 C          -4.5490    6.4180   20.3167 C.3     1  UNL1        0.0412
     20 C           4.0482   -2.1548   19.1197 C.ar    1  UNL1        0.1549
     21 C           2.9741   -1.7320   20.0777 C.ar    1  UNL1        0.0734
     22 C           2.8842   -0.2351   20.0419 C.ar    1  UNL1        0.1771
     23 N           3.9026    0.2672   19.0619 N.ar    1  UNL1       -0.0621
     24 O           4.6220   -0.9192   18.4920 O.2     1  UNL1       -0.3565
     25 C           3.1462   -4.0635   19.3288 C.3     1  UNL1        0.0076
     26 C           4.4737   -3.5656   18.8389 C.3     1  UNL1        0.0539
     27 C           5.8011   -3.0676   18.3489 C.3     1  UNL1        0.0076
     28 C           4.8992   -4.9763   18.5580 C.3     1  UNL1        0.0076
@<TRIPOS>BOND
     1    25    26    1
     2    26    27    1
     3    26    28    1
     4    26    20    1
     5    20    21   ar
     6    21    22   ar
     7    22     1    1
     8     1     2   am
     9     2     3    2
    10     2     4   am
    11     4     5    1
    12     5     6    1
    13     6     7    1
    14     7     8    1
    15     8     9   am
    16     9    10    2
    17     9    14    1
    18    14    15    1
    19    15    16    1
    20    16    17    1
    21    17    18    1
    22    18    19    1
    23     8    11    1
    24    11    12    1
    25    22    23   ar
    26    23    24   ar
    27    24    20   ar
    28    12     4    1
    29    19    14    1
    30     1    13    1
@<TRIPOS>MOLECULE
*****
 28 30 0 0 0
SMALL
GASTEIGER

@<TRIPOS>ATOM
      1 N           3.8731    1.8856   36.4329 N.am    1  UNL1       -0.2508
      2 C           2.9422    2.1897   35.2967 C.2     1  UNL1        0.3089
      3 O           1.8891    3.2465   35.4522 O.2     1  UNL1       -0.2522
      4 N           3.0643    1.4370   34.0050 N.am    1  UNL1       -0.2621
      5 C           4.1493    0.4024   33.9548 C.3     1  UNL1        0.0968
      6 C           4.5233   -0.5063   32.8214 C.3     1  UNL1        0.0430
      7 C           3.9046   -0.6049   31.4586 C.3     1  UNL1        0.0952
      8 N           2.7592    0.1808   30.8923 N.am    1  UNL1       -0.2777
      9 C           2.3723   -0.1565   29.4829 C.2     1  UNL1        0.2254
     10 O           3.1184   -1.2210   28.7347 O.2     1  UNL1       -0.2749
     11 C           1.9495    1.2592   31.5492 C.3     1  UNL1        0.1149
     12 C           2.0854    1.8182   32.9345 C.3     1  UNL1        0.1164
     13 H           4.5642    1.1920   36.3308 H       1  UNL1        0.1579
     14 C           1.2391    0.5708   28.8217 C.3     1  UNL1        0.0817
     15 C           1.5094    1.8081   28.0179 C.3     1  UNL1        0.0412
     16 C           0.3763    2.5353   27.3568 C.3     1  UNL1        0.1427
     17 O          -1.0271    2.0253   27.4994 O.3     1  UNL1       -0.3538
     18 C          -1.2974    0.7881   28.3033 C.3     1  UNL1        0.1427
     19 C          -0.1644    0.0608   28.9644 C.3     1  UNL1        0.0412
     20 C           3.9710    4.3565   39.4247 C.ar    1  UNL1        0.1549
     21 C           4.3393    3.9865   38.0184 C.ar    1  UNL1        0.0734
     22 C           3.7509    2.6384   37.7247 C.ar    1  UNL1        0.1771
     23 N           3.0190    2.1751   38.9493 N.ar    1  UNL1       -0.0621
     24 O           3.1550    3.2370   39.9999 O.2     1  UNL1       -0.3565
     25 C           4.7198    4.8323   41.3516 C.3     1  UNL1        0.0076
     26 C           4.3518    5.6235   40.1316 C.3     1  UNL1        0.0539
     27 C           3.9837    6.4148   38.9116 C.3     1  UNL1        0.0076
     28 C           4.7326    6.8906   40.8385 C.3     1  UNL1        0.0076
@<TRIPOS>BOND
     1    25    26    1
     2    26    27    1
     3    26    28    1
     4    26    20    1
     5    20    21   ar
     6    21    22   ar
     7    22     1    1
     8     1     2   am
     9     2     3    2
    10     2     4   am
    11     4     5    1
    12     5     6    1
    13     6     7    1
    14     7     8    1
    15     8     9   am
    16     9    10    2
    17     9    14    1
    18    14    15    1
    19    15    16    1
    20    16    17    1
    21    17    18    1
    22    18    19    1
    23     8    11    1
    24    11    12    1
    25    22    23   ar
    26    23    24   ar
    27    24    20   ar
    28    12     4    1
    29    19    14    1
    30     1    13    1
