@<TRIPOS>MOLECULE
*****
 25 27 0 0 0
SMALL
GASTEIGER

@<TRIPOS>ATOM
      1 C          -9.8777  -17.8143   22.0152 C.ar    1  UNL1        0.1075
      2 C         -10.4888  -17.3811   23.3149 C.ar    1  UNL1        0.1278
      3 N         -11.9805  -17.4317   23.1654 N.ar    1  UNL1       -0.0772
      4 O         -12.2914  -17.8961   21.7734 O.2     1  UNL1       -0.3576
      5 C         -10.9918  -18.1325   21.0626 C.ar    1  UNL1        0.1591
      6 C         -10.8340  -18.6044   19.6475 C.3     1  UNL1        0.0755
      7 C          -9.7397  -16.9697   24.5476 C.ar    1  UNL1        0.0316
      8 C          -9.1461  -15.5952   24.6407 C.ar    1  UNL1        0.0024
      9 C          -8.3970  -15.1838   25.8734 C.ar    1  UNL1        0.0001
     10 C          -8.2415  -16.1468   27.0130 C.ar    1  UNL1        0.0009
     11 C          -8.8350  -17.5211   26.9199 C.ar    1  UNL1        0.0114
     12 C          -9.5841  -17.9326   25.6872 C.ar    1  UNL1        0.0592
     13 CL        -10.1778  -19.3070   25.5940 Cl      1  UNL1       -0.0822
     14 N          -7.6549  -19.1578   22.0772 N.am    1  UNL1       -0.2533
     15 C          -8.3668  -20.3057   22.7293 C.3     1  UNL1        0.1203
     16 C          -8.4103  -17.9121   21.7201 C.2     1  UNL1        0.2571
     17 O          -7.6983  -16.7641   21.0680 O.2     1  UNL1       -0.2694
     18 C          -1.7851  -19.5488   20.8968 C.3     1  UNL1        0.0319
     19 C          -3.2526  -19.4510   21.1919 C.ar    1  UNL1       -0.0112
     20 C          -4.2373  -20.2201   20.3620 C.ar    1  UNL1       -0.0021
     21 C          -5.7047  -20.1224   20.6571 C.ar    1  UNL1        0.0146
     22 C          -6.1874  -19.2555   21.7821 C.ar    1  UNL1        0.0550
     23 C          -5.2027  -18.4864   22.6119 C.ar    1  UNL1        0.0260
     24 C          -3.7352  -18.5842   22.3168 C.ar    1  UNL1        0.0549
     25 CL         -2.7504  -17.8150   23.1467 Cl      1  UNL1       -0.0825
@<TRIPOS>BOND
     1    18    19    1
     2    19    20   ar
     3    20    21   ar
     4    21    22   ar
     5    22    14    1
     6    14    15    1
     7    14    16   am
     8    16    17    2
     9    16     1    1
    10     1     2   ar
    11     2     7    1
    12     7     8   ar
    13     8     9   ar
    14     9    10   ar
    15    10    11   ar
    16    11    12   ar
    17    12    13    1
    18     2     3   ar
    19     3     4   ar
    20     4     5   ar
    21     5     6    1
    22    22    23   ar
    23    23    24   ar
    24    24    25    1
    25    24    19   ar
    26     5     1   ar
    27    12     7   ar
@<TRIPOS>MOLECULE
*****
 25 27 0 0 0
SMALL
GASTEIGER

@<TRIPOS>ATOM
      1 C          -8.5599  -18.9162   20.8873 C.ar    1  UNL1        0.1075
      2 C         -10.0296  -19.0591   20.6233 C.ar    1  UNL1        0.1278
      3 N         -10.1986  -19.6933   19.2745 N.ar    1  UNL1       -0.0772
      4 O          -8.8335  -19.9422   18.7049 O.2     1  UNL1       -0.3576
      5 C          -7.8207  -19.4619   19.7017 C.ar    1  UNL1        0.1591
      6 C          -6.3304  -19.5176   19.5410 C.3     1  UNL1        0.0755
      7 C         -11.1358  -18.6414   21.5460 C.ar    1  UNL1        0.0316
      8 C         -11.2795  -19.2946   22.8888 C.ar    1  UNL1        0.0024
      9 C         -12.3859  -18.8768   23.8115 C.ar    1  UNL1        0.0001
     10 C         -13.3485  -17.8058   23.3917 C.ar    1  UNL1        0.0009
     11 C         -13.2049  -17.1526   22.0491 C.ar    1  UNL1        0.0114
     12 C         -12.0985  -17.5704   21.1263 C.ar    1  UNL1        0.0592
     13 CL        -11.9548  -16.9171   19.7836 Cl      1  UNL1       -0.0822
     14 N          -8.1278  -16.8765   22.4375 N.am    1  UNL1       -0.2533
     15 C          -8.9384  -16.0085   21.5213 C.3     1  UNL1        0.1203
     16 C          -7.9385  -18.3303   22.1205 C.2     1  UNL1        0.2571
     17 O          -7.1278  -19.1984   23.0367 O.2     1  UNL1       -0.2694
     18 C          -5.6424  -14.5331   27.3702 C.3     1  UNL1        0.0319
     19 C          -6.2638  -15.1189   26.1370 C.ar    1  UNL1       -0.0112
     20 C          -5.4428  -15.2931   24.8938 C.ar    1  UNL1       -0.0021
     21 C          -6.0641  -15.8790   23.6606 C.ar    1  UNL1        0.0146
     22 C          -7.5065  -16.2906   23.6707 C.ar    1  UNL1        0.0550
     23 C          -8.3274  -16.1165   24.9139 C.ar    1  UNL1        0.0260
     24 C          -7.7061  -15.5306   26.1470 C.ar    1  UNL1        0.0549
     25 CL         -8.5272  -15.3564   27.3903 Cl      1  UNL1       -0.0825
@<TRIPOS>BOND
     1    18    19    1
     2    19    20   ar
     3    20    21   ar
     4    21    22   ar
     5    22    14    1
     6    14    15    1
     7    14    16   am
     8    16    17    2
     9    16     1    1
    10     1     2   ar
    11     2     7    1
    12     7     8   ar
    13     8     9   ar
    14     9    10   ar
    15    10    11   ar
    16    11    12   ar
    17    12    13    1
    18     2     3   ar
    19     3     4   ar
    20     4     5   ar
    21     5     6    1
    22    22    23   ar
    23    23    24   ar
    24    24    25    1
    25    24    19   ar
    26     5     1   ar
    27    12     7   ar
@<TRIPOS>MOLECULE
*****
 25 27 0 0 0
SMALL
GASTEIGER

@<TRIPOS>ATOM
      1 C           5.9819   -1.6806   19.7972 C.ar    1  UNL1        0.1075
      2 C           4.9221   -1.3234   18.7974 C.ar    1  UNL1        0.1278
      3 N           5.4097   -1.7323   17.4391 N.ar    1  UNL1       -0.0772
      4 O           6.7708   -2.3422   17.5994 O.2     1  UNL1       -0.3576
      5 C           7.1243   -2.3102   19.0568 C.ar    1  UNL1        0.1591
      6 C           8.3970   -2.8187   19.6666 C.3     1  UNL1        0.0755
      7 C           3.6060   -0.6718   19.1024 C.ar    1  UNL1        0.0316
      8 C           2.5340   -1.4433   19.8135 C.ar    1  UNL1        0.0024
      9 C           1.2178   -0.7916   20.1185 C.ar    1  UNL1        0.0001
     10 C           0.9736    0.6315   19.7125 C.ar    1  UNL1        0.0009
     11 C           2.0456    1.4031   19.0015 C.ar    1  UNL1        0.0114
     12 C           3.3617    0.7514   18.6965 C.ar    1  UNL1        0.0592
     13 CL          4.4338    1.5230   17.9854 Cl      1  UNL1       -0.0822
     14 N           5.3089   -2.4912   22.1721 N.am    1  UNL1       -0.2533
     15 C           4.7769   -3.7655   21.5863 C.3     1  UNL1        0.1203
     16 C           5.9114   -1.4488   21.2775 C.2     1  UNL1        0.2571
     17 O           6.4435   -0.1745   21.8633 O.2     1  UNL1       -0.2694
     18 C           5.0272   -1.5641   28.0933 C.3     1  UNL1        0.0319
     19 C           5.0976   -1.7959   26.6130 C.ar    1  UNL1       -0.0112
     20 C           4.0147   -1.2687   25.7189 C.ar    1  UNL1       -0.0021
     21 C           4.0852   -1.5005   24.2386 C.ar    1  UNL1        0.0146
     22 C           5.2385   -2.2595   23.6524 C.ar    1  UNL1        0.0550
     23 C           6.3214   -2.7866   24.5464 C.ar    1  UNL1        0.0260
     24 C           6.2509   -2.5548   26.0267 C.ar    1  UNL1        0.0549
     25 CL          7.3339   -3.0820   26.9208 Cl      1  UNL1       -0.0825
@<TRIPOS>BOND
     1    18    19    1
     2    19    20   ar
     3    20    21   ar
     4    21    22   ar
     5    22    14    1
     6    14    15    1
     7    14    16   am
     8    16    17    2
     9    16     1    1
    10     1     2   ar
    11     2     7    1
    12     7     8   ar
    13     8     9   ar
    14     9    10   ar
    15    10    11   ar
    16    11    12   ar
    17    12    13    1
    18     2     3   ar
    19     3     4   ar
    20     4     5   ar
    21     5     6    1
    22    22    23   ar
    23    23    24   ar
    24    24    25    1
    25    24    19   ar
    26     5     1   ar
    27    12     7   ar
