@<TRIPOS>MOLECULE
*****
 31 33 0 0 0
SMALL
GASTEIGER

@<TRIPOS>ATOM
      1 N          -8.8626  -18.2538   22.6641 N.am    1  UNL1       -0.2917
      2 C          -7.8073  -19.3191   22.6276 C.2     1  UNL1        0.2462
      3 O          -8.1416  -20.7207   23.0447 O.2     1  UNL1       -0.2701
      4 H          -8.6431  -17.3340   22.3903 H       1  UNL1        0.1502
      5 C          -6.4175  -18.9830   22.1739 C.ar    1  UNL1        0.0534
      6 C          -5.9207  -19.4791   20.8485 C.ar    1  UNL1        0.0045
      7 C          -4.5310  -19.1430   20.3949 C.ar    1  UNL1        0.0002
      8 C          -3.6382  -18.3106   21.2668 C.ar    1  UNL1        0.0022
      9 C          -4.1351  -17.8144   22.5922 C.ar    1  UNL1        0.0002
     10 C          -5.5248  -18.1506   23.0458 C.ar    1  UNL1        0.0045
     11 C          -2.2485  -17.9744   20.8131 C.ar    1  UNL1        0.0275
     12 C          -1.4320  -18.9955   20.0777 C.ar    1  UNL1        0.0022
     13 C          -0.0423  -18.6593   19.6240 C.ar    1  UNL1        0.0001
     14 C           0.5309  -17.3021   19.9058 C.ar    1  UNL1        0.0023
     15 C          -0.2857  -16.2810   20.6413 C.ar    1  UNL1        0.0296
     16 C          -1.6753  -16.6172   21.0949 C.ar    1  UNL1        0.1401
     17 F          -2.4918  -15.5962   21.8304 F       1  UNL1       -0.2042
     18 C         -10.2523  -18.5900   23.1177 C.3     1  UNL1        0.1945
     19 C         -10.5551  -18.7088   24.5820 C.2     1  UNL1        0.3370
     20 O         -11.9696  -18.9029   25.0421 O.2     1  UNL1       -0.2482
     21 O          -9.4435  -18.6334   25.5863 O.3     1  UNL1       -0.4473
     22 C          -9.3630  -17.4704   26.5302 C.3     1  UNL1        0.2084
     23 C          -7.3484  -15.9946   27.2464 C.3     1  UNL1        0.0038
     24 C          -8.4153  -16.3419   26.2508 C.3     1  UNL1        0.0439
     25 C          -8.5343  -15.5606   24.9758 C.3     1  UNL1        0.0038
     26 C         -11.3392  -18.8074   22.1071 C.3     1  UNL1        0.1386
     27 N         -11.6887  -17.7191   21.1358 N.ar    1  UNL1       -0.3055
     28 C         -10.8922  -17.3272   19.9267 C.ar    1  UNL1        0.0981
     29 C         -11.6073  -16.1975   19.2467 C.ar    1  UNL1        0.1193
     30 N         -12.8458  -15.8912   20.0356 N.ar    1  UNL1       -0.2223
     31 C         -12.8961  -16.8316   21.2031 C.ar    1  UNL1        0.1787
@<TRIPOS>BOND
     1    23    24    1
     2    24    25    1
     3    24    22    1
     4    22    21    1
     5    21    19    1
     6    19    20    2
     7    19    18    1
     8    18    26    1
     9    26    27    1
    10    27    28   ar
    11    28    29   ar
    12    29    30   ar
    13    30    31   ar
    14    18     1    1
    15     1     2   am
    16     2     3    2
    17     2     5    1
    18     5     6   ar
    19     6     7   ar
    20     7     8   ar
    21     8    11    1
    22    11    12   ar
    23    12    13   ar
    24    13    14   ar
    25    14    15   ar
    26    15    16   ar
    27    16    17    1
    28     8     9   ar
    29     9    10   ar
    30    31    27   ar
    31    10     5   ar
    32    16    11   ar
    33     1     4    1
@<TRIPOS>MOLECULE
*****
 31 33 0 0 0
SMALL
GASTEIGER

@<TRIPOS>ATOM
      1 N           2.9949   -0.9428   27.6915 N.am    1  UNL1       -0.2917
      2 C           3.2820   -0.1086   26.4784 C.2     1  UNL1        0.2462
      3 O           3.3118    1.3872   26.5868 O.2     1  UNL1       -0.2701
      4 H           2.9753   -1.9246   27.6203 H       1  UNL1        0.1502
      5 C           3.5393   -0.7701   25.1569 C.ar    1  UNL1        0.0534
      6 C           2.7969   -0.3176   23.9346 C.ar    1  UNL1        0.0045
      7 C           3.0542   -0.9791   22.6132 C.ar    1  UNL1        0.0002
      8 C           4.0539   -2.0930   22.5141 C.ar    1  UNL1        0.0022
      9 C           4.7963   -2.5455   23.7365 C.ar    1  UNL1        0.0002
     10 C           4.5390   -1.8840   25.0579 C.ar    1  UNL1        0.0045
     11 C           4.3112   -2.7545   21.1926 C.ar    1  UNL1        0.0275
     12 C           3.8689   -4.1693   20.9634 C.ar    1  UNL1        0.0022
     13 C           4.1262   -4.8308   19.6419 C.ar    1  UNL1        0.0001
     14 C           4.8259   -4.0774   18.5497 C.ar    1  UNL1        0.0023
     15 C           5.2682   -2.6625   18.7790 C.ar    1  UNL1        0.0296
     16 C           5.0109   -2.0011   20.1004 C.ar    1  UNL1        0.1401
     17 F           5.4532   -0.5862   20.3297 F       1  UNL1       -0.2042
     18 C           2.7375   -0.2814   29.0130 C.3     1  UNL1        0.1945
     19 C           1.3324    0.0334   29.4331 C.2     1  UNL1        0.3370
     20 O           1.0839    0.8672   30.6551 O.2     1  UNL1       -0.2482
     21 O           0.1758   -0.4856   28.6314 O.3     1  UNL1       -0.4473
     22 C          -0.8194    0.4710   28.0446 C.3     1  UNL1        0.2084
     23 C          -0.1379    1.2756   25.6701 C.3     1  UNL1        0.0038
     24 C          -0.3581    1.5632   27.1257 C.3     1  UNL1        0.0439
     25 C          -0.1169    2.9430   27.6624 C.3     1  UNL1        0.0038
     26 C           3.8853    0.0654   29.9142 C.3     1  UNL1        0.1386
     27 N           4.1457   -0.7515   31.1451 N.ar    1  UNL1       -0.3055
     28 C           5.0589   -1.9377   31.2391 C.ar    1  UNL1        0.0981
     29 C           5.0162   -2.4449   32.6501 C.ar    1  UNL1        0.1193
     30 N           4.0765   -1.5720   33.4281 N.ar    1  UNL1       -0.2223
     31 C           3.5385   -0.5255   32.4979 C.ar    1  UNL1        0.1787
@<TRIPOS>BOND
     1    23    24    1
     2    24    25    1
     3    24    22    1
     4    22    21    1
     5    21    19    1
     6    19    20    2
     7    19    18    1
     8    18    26    1
     9    26    27    1
    10    27    28   ar
    11    28    29   ar
    12    29    30   ar
    13    30    31   ar
    14    18     1    1
    15     1     2   am
    16     2     3    2
    17     2     5    1
    18     5     6   ar
    19     6     7   ar
    20     7     8   ar
    21     8    11    1
    22    11    12   ar
    23    12    13   ar
    24    13    14   ar
    25    14    15   ar
    26    15    16   ar
    27    16    17    1
    28     8     9   ar
    29     9    10   ar
    30    31    27   ar
    31    10     5   ar
    32    16    11   ar
    33     1     4    1
@<TRIPOS>MOLECULE
*****
 31 33 0 0 0
SMALL
GASTEIGER

@<TRIPOS>ATOM
      1 N           2.4428   -0.9493   27.6906 N.am    1  UNL1       -0.2917
      2 C           3.1582   -0.0764   26.7026 C.2     1  UNL1        0.2462
      3 O           3.5934    1.3035   27.0983 O.2     1  UNL1       -0.2701
      4 H           2.1571   -1.8549   27.4309 H       1  UNL1        0.1502
      5 C           3.4384   -0.5833   25.3189 C.ar    1  UNL1        0.0534
      6 C           4.5333   -1.5836   25.0941 C.ar    1  UNL1        0.0045
      7 C           4.8135   -2.0905   23.7105 C.ar    1  UNL1        0.0002
      8 C           3.9988   -1.5971   22.5517 C.ar    1  UNL1        0.0022
      9 C           2.9039   -0.5968   22.7765 C.ar    1  UNL1        0.0002
     10 C           2.6237   -0.0899   24.1601 C.ar    1  UNL1        0.0045
     11 C           4.2791   -2.1040   21.1680 C.ar    1  UNL1        0.0275
     12 C           4.4851   -1.1351   20.0416 C.ar    1  UNL1        0.0022
     13 C           4.7653   -1.6421   18.6579 C.ar    1  UNL1        0.0001
     14 C           4.8395   -3.1180   18.4007 C.ar    1  UNL1        0.0023
     15 C           4.6335   -4.0869   19.5271 C.ar    1  UNL1        0.0296
     16 C           4.3533   -3.5799   20.9107 C.ar    1  UNL1        0.1401
     17 F           4.1472   -4.5489   22.0371 F       1  UNL1       -0.2042
     18 C           2.1625   -0.4423   29.0743 C.3     1  UNL1        0.1945
     19 C           3.1838   -0.6185   30.1588 C.2     1  UNL1        0.3370
     20 O           4.6451   -0.6171   29.8202 O.2     1  UNL1       -0.2482
     21 O           2.7437   -0.7962   31.5817 O.3     1  UNL1       -0.4473
     22 C           3.5850   -0.2559   32.6999 C.3     1  UNL1        0.2084
     23 C           4.8207   -0.7151   34.9387 C.3     1  UNL1        0.0038
     24 C           4.3156   -1.1971   33.6111 C.3     1  UNL1        0.0439
     25 C           4.5411   -2.6204   33.1947 C.3     1  UNL1        0.0038
     26 C           0.8611    0.2408   29.3735 C.3     1  UNL1        0.1386
     27 N           0.3386    1.2981   28.4467 N.ar    1  UNL1       -0.3055
     28 C          -0.5732    1.0732   27.2771 C.ar    1  UNL1        0.0981
     29 C          -0.8391    2.4021   26.6342 C.ar    1  UNL1        0.1193
     30 N          -0.0915    3.4484   27.4066 N.ar    1  UNL1       -0.2223
     31 C           0.6363    2.7661   28.5267 C.ar    1  UNL1        0.1787
@<TRIPOS>BOND
     1    23    24    1
     2    24    25    1
     3    24    22    1
     4    22    21    1
     5    21    19    1
     6    19    20    2
     7    19    18    1
     8    18    26    1
     9    26    27    1
    10    27    28   ar
    11    28    29   ar
    12    29    30   ar
    13    30    31   ar
    14    18     1    1
    15     1     2   am
    16     2     3    2
    17     2     5    1
    18     5     6   ar
    19     6     7   ar
    20     7     8   ar
    21     8    11    1
    22    11    12   ar
    23    12    13   ar
    24    13    14   ar
    25    14    15   ar
    26    15    16   ar
    27    16    17    1
    28     8     9   ar
    29     9    10   ar
    30    31    27   ar
    31    10     5   ar
    32    16    11   ar
    33     1     4    1
@<TRIPOS>MOLECULE
*****
 31 33 0 0 0
SMALL
GASTEIGER

@<TRIPOS>ATOM
      1 N           4.0998   -1.5477   27.7817 N.am    1  UNL1       -0.2917
      2 C           4.3550   -0.6810   26.5844 C.2     1  UNL1        0.2462
      3 O           4.5732    0.7929   26.7582 O.2     1  UNL1       -0.2701
      4 H           3.9566   -2.5150   27.6676 H       1  UNL1        0.1502
      5 C           4.3920   -1.2881   25.2132 C.ar    1  UNL1        0.0534
      6 C           5.3631   -2.3893   24.9065 C.ar    1  UNL1        0.0045
      7 C           5.4000   -2.9964   23.5353 C.ar    1  UNL1        0.0002
      8 C           4.4658   -2.5021   22.4709 C.ar    1  UNL1        0.0022
      9 C           3.4947   -1.4008   22.7776 C.ar    1  UNL1        0.0002
     10 C           3.4578   -0.7938   24.1487 C.ar    1  UNL1        0.0045
     11 C           4.5028   -3.1092   21.0997 C.ar    1  UNL1        0.0275
     12 C           3.8418   -4.4317   20.8469 C.ar    1  UNL1        0.0022
     13 C           3.8788   -5.0388   19.4757 C.ar    1  UNL1        0.0001
     14 C           4.5768   -4.3233   18.3573 C.ar    1  UNL1        0.0023
     15 C           5.2379   -3.0007   18.6101 C.ar    1  UNL1        0.0296
     16 C           5.2009   -2.3937   19.9813 C.ar    1  UNL1        0.1401
     17 F           5.8619   -1.0711   20.2341 F       1  UNL1       -0.2042
     18 C           4.0628   -0.9406   29.1529 C.3     1  UNL1        0.1945
     19 C           2.7698   -0.4217   29.7087 C.2     1  UNL1        0.3370
     20 O           2.2851   -0.8950   31.0471 O.2     1  UNL1       -0.2482
     21 O           1.9616    0.5705   28.9263 O.3     1  UNL1       -0.4473
     22 C           0.6084    0.9904   29.4188 C.3     1  UNL1        0.2084
     23 C          -0.7118    1.3935   27.2178 C.3     1  UNL1        0.0038
     24 C          -0.6054    0.7533   28.5701 C.3     1  UNL1        0.0439
     25 C          -1.7130   -0.1241   29.0737 C.3     1  UNL1        0.0038
     26 C           5.3188   -0.8525   29.9682 C.3     1  UNL1        0.1386
     27 N           5.8645   -2.0777   30.6397 N.ar    1  UNL1       -0.3055
     28 C           5.7403   -2.4142   32.0962 C.ar    1  UNL1        0.0981
     29 C           6.4293   -3.7260   32.3293 C.ar    1  UNL1        0.1193
     30 N           6.9793   -4.2003   31.0168 N.ar    1  UNL1       -0.2223
     31 C           6.6302   -3.1816   29.9726 C.ar    1  UNL1        0.1787
@<TRIPOS>BOND
     1    23    24    1
     2    24    25    1
     3    24    22    1
     4    22    21    1
     5    21    19    1
     6    19    20    2
     7    19    18    1
     8    18    26    1
     9    26    27    1
    10    27    28   ar
    11    28    29   ar
    12    29    30   ar
    13    30    31   ar
    14    18     1    1
    15     1     2   am
    16     2     3    2
    17     2     5    1
    18     5     6   ar
    19     6     7   ar
    20     7     8   ar
    21     8    11    1
    22    11    12   ar
    23    12    13   ar
    24    13    14   ar
    25    14    15   ar
    26    15    16   ar
    27    16    17    1
    28     8     9   ar
    29     9    10   ar
    30    31    27   ar
    31    10     5   ar
    32    16    11   ar
    33     1     4    1
@<TRIPOS>MOLECULE
*****
 31 33 0 0 0
SMALL
GASTEIGER

@<TRIPOS>ATOM
      1 N          -1.9784    2.4094   20.4118 N.am    1  UNL1       -0.2917
      2 C          -0.5264    2.7468   20.5791 C.2     1  UNL1        0.2462
      3 O          -0.1187    4.1407   20.9540 O.2     1  UNL1       -0.2701
      4 H          -2.2460    1.4945   20.1658 H       1  UNL1        0.1502
      5 C           0.5178    1.6901   20.3714 C.ar    1  UNL1        0.0534
      6 C           0.1498    0.2401   20.4810 C.ar    1  UNL1        0.0045
      7 C           1.1941   -0.8164   20.2733 C.ar    1  UNL1        0.0002
      8 C           2.6064   -0.4229   19.9560 C.ar    1  UNL1        0.0022
      9 C           2.9744    1.0270   19.8465 C.ar    1  UNL1        0.0002
     10 C           1.9301    2.0836   20.0542 C.ar    1  UNL1        0.0045
     11 C           3.6507   -1.4796   19.7484 C.ar    1  UNL1        0.0275
     12 C           4.1555   -2.2749   20.9157 C.ar    1  UNL1        0.0022
     13 C           5.1998   -3.3315   20.7080 C.ar    1  UNL1        0.0001
     14 C           5.7392   -3.5928   19.3329 C.ar    1  UNL1        0.0023
     15 C           5.2344   -2.7974   18.1656 C.ar    1  UNL1        0.0296
     16 C           4.1901   -1.7408   18.3733 C.ar    1  UNL1        0.1401
     17 F           3.6853   -0.9455   17.2060 F       1  UNL1       -0.2042
     18 C          -3.0227    3.4660   20.6195 C.3     1  UNL1        0.1945
     19 C          -3.5774    3.7129   21.9912 C.2     1  UNL1        0.3370
     20 O          -2.8435    4.6055   22.9475 O.2     1  UNL1       -0.2482
     21 O          -4.8660    3.0671   22.4064 O.3     1  UNL1       -0.4473
     22 C          -6.0601    3.9156   22.7293 C.3     1  UNL1        0.2084
     23 C          -5.3761    3.9426   25.2356 C.3     1  UNL1        0.0038
     24 C          -6.2643    4.4226   24.1262 C.3     1  UNL1        0.0439
     25 C          -7.3565    5.4098   24.4136 C.3     1  UNL1        0.0038
     26 C          -3.5122    4.2757   19.4556 C.3     1  UNL1        0.1386
     27 N          -4.9844    4.4118   19.2030 N.ar    1  UNL1       -0.3055
     28 C          -5.7952    5.6631   19.3668 C.ar    1  UNL1        0.0981
     29 C          -7.2163    5.3451   19.0072 C.ar    1  UNL1        0.1193
     30 N          -7.2838    3.8972   18.6212 N.ar    1  UNL1       -0.2223
     31 C          -5.9045    3.3204   18.7422 C.ar    1  UNL1        0.1787
@<TRIPOS>BOND
     1    23    24    1
     2    24    25    1
     3    24    22    1
     4    22    21    1
     5    21    19    1
     6    19    20    2
     7    19    18    1
     8    18    26    1
     9    26    27    1
    10    27    28   ar
    11    28    29   ar
    12    29    30   ar
    13    30    31   ar
    14    18     1    1
    15     1     2   am
    16     2     3    2
    17     2     5    1
    18     5     6   ar
    19     6     7   ar
    20     7     8   ar
    21     8    11    1
    22    11    12   ar
    23    12    13   ar
    24    13    14   ar
    25    14    15   ar
    26    15    16   ar
    27    16    17    1
    28     8     9   ar
    29     9    10   ar
    30    31    27   ar
    31    10     5   ar
    32    16    11   ar
    33     1     4    1
@<TRIPOS>MOLECULE
*****
 31 33 0 0 0
SMALL
GASTEIGER

@<TRIPOS>ATOM
      1 N           2.8725   -1.0602   27.6997 N.am    1  UNL1       -0.2917
      2 C           3.2120   -0.1179   26.5832 C.2     1  UNL1        0.2462
      3 O           3.2822    1.3579   26.8424 O.2     1  UNL1       -0.2701
      4 H           2.8264   -2.0287   27.5295 H       1  UNL1        0.1502
      5 C           3.4813   -0.6513   25.2073 C.ar    1  UNL1        0.0534
      6 C           4.5511   -1.6818   24.9986 C.ar    1  UNL1        0.0045
      7 C           4.8204   -2.2152   23.6227 C.ar    1  UNL1        0.0002
      8 C           4.0199   -1.7180   22.4556 C.ar    1  UNL1        0.0022
      9 C           2.9502   -0.6875   22.6643 C.ar    1  UNL1        0.0002
     10 C           2.6809   -0.1541   24.0402 C.ar    1  UNL1        0.0045
     11 C           4.2893   -2.2515   21.0797 C.ar    1  UNL1        0.0275
     12 C           4.5504   -1.3046   19.9461 C.ar    1  UNL1        0.0022
     13 C           4.8197   -1.8381   18.5702 C.ar    1  UNL1        0.0001
     14 C           4.8280   -3.3184   18.3281 C.ar    1  UNL1        0.0023
     15 C           4.5669   -4.2652   19.4618 C.ar    1  UNL1        0.0296
     16 C           4.2976   -3.7318   20.8376 C.ar    1  UNL1        0.1401
     17 F           4.0365   -4.6787   21.9714 F       1  UNL1       -0.2042
     18 C           2.6031   -0.5267   29.0756 C.3     1  UNL1        0.1945
     19 C           1.2269   -0.0550   29.4409 C.2     1  UNL1        0.3370
     20 O           1.0303    0.8318   30.6347 O.2     1  UNL1       -0.2482
     21 O           0.0473   -0.4702   28.6127 O.3     1  UNL1       -0.4473
     22 C          -0.8834    0.5680   28.0595 C.3     1  UNL1        0.2084
     23 C          -0.0074    2.9866   27.6947 C.3     1  UNL1        0.0038
     24 C          -0.3583    1.6354   27.1458 C.3     1  UNL1        0.0439
     25 C          -0.1842    1.3518   25.6831 C.3     1  UNL1        0.0038
     26 C           3.7100   -0.4650   30.0860 C.3     1  UNL1        0.1386
     27 N           5.1349   -0.6332   29.6487 N.ar    1  UNL1       -0.3055
     28 C           6.0048    0.4316   29.0492 C.ar    1  UNL1        0.0981
     29 C           7.3476   -0.1729   28.7641 C.ar    1  UNL1        0.1193
     30 N           7.3076   -1.6114   29.1874 N.ar    1  UNL1       -0.2223
     31 C           5.9401   -1.8959   29.7341 C.ar    1  UNL1        0.1787
@<TRIPOS>BOND
     1    23    24    1
     2    24    25    1
     3    24    22    1
     4    22    21    1
     5    21    19    1
     6    19    20    2
     7    19    18    1
     8    18    26    1
     9    26    27    1
    10    27    28   ar
    11    28    29   ar
    12    29    30   ar
    13    30    31   ar
    14    18     1    1
    15     1     2   am
    16     2     3    2
    17     2     5    1
    18     5     6   ar
    19     6     7   ar
    20     7     8   ar
    21     8    11    1
    22    11    12   ar
    23    12    13   ar
    24    13    14   ar
    25    14    15   ar
    26    15    16   ar
    27    16    17    1
    28     8     9   ar
    29     9    10   ar
    30    31    27   ar
    31    10     5   ar
    32    16    11   ar
    33     1     4    1
@<TRIPOS>MOLECULE
*****
 31 33 0 0 0
SMALL
GASTEIGER

@<TRIPOS>ATOM
      1 N          -1.7418    2.5027   20.8842 N.am    1  UNL1       -0.2917
      2 C          -0.2856    2.7018   21.1836 C.2     1  UNL1        0.2462
      3 O           0.1993    4.0223   21.7045 O.2     1  UNL1       -0.2701
      4 H          -2.0601    1.6361   20.5423 H       1  UNL1        0.1502
      5 C           0.6858    1.5804   20.9622 C.ar    1  UNL1        0.0534
      6 C           0.2198    0.2956   20.3441 C.ar    1  UNL1        0.0045
      7 C           1.1912   -0.8257   20.1227 C.ar    1  UNL1        0.0002
      8 C           2.6285   -0.6622   20.5194 C.ar    1  UNL1        0.0022
      9 C           3.0945    0.6227   21.1374 C.ar    1  UNL1        0.0002
     10 C           2.1231    1.7440   21.3588 C.ar    1  UNL1        0.0045
     11 C           3.5999   -1.7836   20.2980 C.ar    1  UNL1        0.0275
     12 C           4.1059   -2.5789   21.4647 C.ar    1  UNL1        0.0022
     13 C           5.0773   -3.7003   21.2433 C.ar    1  UNL1        0.0001
     14 C           5.5427   -4.0263   19.8551 C.ar    1  UNL1        0.0023
     15 C           5.0366   -3.2308   18.6883 C.ar    1  UNL1        0.0296
     16 C           4.0653   -2.1095   18.9097 C.ar    1  UNL1        0.1401
     17 F           3.5593   -1.3141   17.7429 F       1  UNL1       -0.2042
     18 C          -2.7132    3.6241   21.1056 C.3     1  UNL1        0.1945
     19 C          -3.5159    3.6821   22.3715 C.2     1  UNL1        0.3370
     20 O          -4.8462    2.9931   22.4482 O.2     1  UNL1       -0.2482
     21 O          -2.9884    4.4289   23.5605 O.3     1  UNL1       -0.4473
     22 C          -1.9531    3.7979   24.4437 C.3     1  UNL1        0.2084
     23 C          -3.5951    3.8812   26.4554 C.3     1  UNL1        0.0038
     24 C          -2.2969    3.4279   25.8561 C.3     1  UNL1        0.0439
     25 C          -1.3423    2.6047   26.6693 C.3     1  UNL1        0.0038
     26 C          -2.8819    4.6875   20.0613 C.3     1  UNL1        0.1386
     27 N          -3.0843    4.3032   18.6255 N.ar    1  UNL1       -0.3055
     28 C          -2.0362    4.3184   17.5526 C.ar    1  UNL1        0.0981
     29 C          -2.6744    3.8608   16.2746 C.ar    1  UNL1        0.1193
     30 N          -4.1171    3.5629   16.5578 N.ar    1  UNL1       -0.2223
     31 C          -4.3703    3.8363   18.0107 C.ar    1  UNL1        0.1787
@<TRIPOS>BOND
     1    23    24    1
     2    24    25    1
     3    24    22    1
     4    22    21    1
     5    21    19    1
     6    19    20    2
     7    19    18    1
     8    18    26    1
     9    26    27    1
    10    27    28   ar
    11    28    29   ar
    12    29    30   ar
    13    30    31   ar
    14    18     1    1
    15     1     2   am
    16     2     3    2
    17     2     5    1
    18     5     6   ar
    19     6     7   ar
    20     7     8   ar
    21     8    11    1
    22    11    12   ar
    23    12    13   ar
    24    13    14   ar
    25    14    15   ar
    26    15    16   ar
    27    16    17    1
    28     8     9   ar
    29     9    10   ar
    30    31    27   ar
    31    10     5   ar
    32    16    11   ar
    33     1     4    1
@<TRIPOS>MOLECULE
*****
 31 33 0 0 0
SMALL
GASTEIGER

@<TRIPOS>ATOM
      1 N         -13.7807   -6.0574   18.4965 N.am    1  UNL1       -0.2917
      2 C         -13.7828   -4.8346   17.6277 C.2     1  UNL1        0.2462
      3 O         -13.2389   -4.9056   16.2316 O.2     1  UNL1       -0.2701
      4 H         -14.1377   -6.0107   19.4128 H       1  UNL1        0.1502
      5 C         -14.3289   -3.5408   18.1549 C.ar    1  UNL1        0.0534
      6 C         -14.0414   -3.1255   19.5673 C.ar    1  UNL1        0.0045
      7 C         -14.5875   -1.8318   20.0945 C.ar    1  UNL1        0.0002
      8 C         -15.4210   -0.9533   19.2093 C.ar    1  UNL1        0.0022
      9 C         -15.7085   -1.3686   17.7970 C.ar    1  UNL1        0.0002
     10 C         -15.1624   -2.6624   17.2698 C.ar    1  UNL1        0.0045
     11 C         -15.9671    0.3405   19.7366 C.ar    1  UNL1        0.0275
     12 C         -17.1577    0.3357   20.6489 C.ar    1  UNL1        0.0022
     13 C         -17.7038    1.6295   21.1762 C.ar    1  UNL1        0.0001
     14 C         -17.0592    2.9281   20.7911 C.ar    1  UNL1        0.0023
     15 C         -15.8685    2.9328   19.8787 C.ar    1  UNL1        0.0296
     16 C         -15.3225    1.6390   19.3515 C.ar    1  UNL1        0.1401
     17 F         -14.1318    1.6437   18.4391 F       1  UNL1       -0.2042
     18 C         -13.2346   -7.3512   17.9692 C.3     1  UNL1        0.1945
     19 C         -11.7543   -7.5287   17.8043 C.2     1  UNL1        0.3370
     20 O         -11.2021   -8.0659   16.5172 O.2     1  UNL1       -0.2482
     21 O         -10.8262   -7.1691   18.9264 O.3     1  UNL1       -0.4473
     22 C          -9.6272   -6.3077   18.6612 C.3     1  UNL1        0.2084
     23 C         -10.4953   -3.8701   18.8949 C.3     1  UNL1        0.0038
     24 C          -9.8037   -4.9314   18.0915 C.3     1  UNL1        0.0439
     25 C          -9.2886   -4.6162   16.7184 C.3     1  UNL1        0.0038
     26 C         -14.1688   -8.4674   17.6069 C.3     1  UNL1        0.1386
     27 N         -15.5873   -8.4461   18.0941 N.ar    1  UNL1       -0.3055
     28 C         -16.7635   -7.8749   17.3591 C.ar    1  UNL1        0.0981
     29 C         -17.9818   -8.0680   18.2125 C.ar    1  UNL1        0.1193
     30 N         -17.5585   -8.7586   19.4751 N.ar    1  UNL1       -0.2223
     31 C         -16.0786   -8.9923   19.4019 C.ar    1  UNL1        0.1787
@<TRIPOS>BOND
     1    23    24    1
     2    24    25    1
     3    24    22    1
     4    22    21    1
     5    21    19    1
     6    19    20    2
     7    19    18    1
     8    18    26    1
     9    26    27    1
    10    27    28   ar
    11    28    29   ar
    12    29    30   ar
    13    30    31   ar
    14    18     1    1
    15     1     2   am
    16     2     3    2
    17     2     5    1
    18     5     6   ar
    19     6     7   ar
    20     7     8   ar
    21     8    11    1
    22    11    12   ar
    23    12    13   ar
    24    13    14   ar
    25    14    15   ar
    26    15    16   ar
    27    16    17    1
    28     8     9   ar
    29     9    10   ar
    30    31    27   ar
    31    10     5   ar
    32    16    11   ar
    33     1     4    1
@<TRIPOS>MOLECULE
*****
 31 33 0 0 0
SMALL
GASTEIGER

@<TRIPOS>ATOM
      1 N          -2.2352    2.5428   20.5077 N.am    1  UNL1       -0.2917
      2 C          -0.8475    2.6181   21.0719 C.2     1  UNL1        0.2462
      3 O          -0.5059    3.6698   22.0855 O.2     1  UNL1       -0.2701
      4 H          -2.4594    1.8525   19.8424 H       1  UNL1        0.1502
      5 C           0.1989    1.6416   20.6225 C.ar    1  UNL1        0.0534
      6 C           0.9436    0.8220   21.6341 C.ar    1  UNL1        0.0045
      7 C           1.9899   -0.1544   21.1848 C.ar    1  UNL1        0.0002
      8 C           2.2914   -0.3111   19.7238 C.ar    1  UNL1        0.0022
      9 C           1.5466    0.5086   18.7121 C.ar    1  UNL1        0.0002
     10 C           0.5004    1.4849   19.1615 C.ar    1  UNL1        0.0045
     11 C           3.3377   -1.2876   19.2744 C.ar    1  UNL1        0.0275
     12 C           3.1366   -2.7573   19.4964 C.ar    1  UNL1        0.0022
     13 C           4.1830   -3.7338   19.0470 C.ar    1  UNL1        0.0001
     14 C           5.4303   -3.2404   18.3757 C.ar    1  UNL1        0.0023
     15 C           5.6313   -1.7705   18.1537 C.ar    1  UNL1        0.0296
     16 C           4.5851   -0.7941   18.6031 C.ar    1  UNL1        0.1401
     17 F           4.7861    0.6757   18.3812 F       1  UNL1       -0.2042
     18 C          -3.2816    3.5192   20.9570 C.3     1  UNL1        0.1945
     19 C          -3.2161    4.9487   20.5070 C.2     1  UNL1        0.3370
     20 O          -2.8977    6.0320   21.4945 O.2     1  UNL1       -0.2482
     21 O          -3.4689    5.2947   19.0696 O.3     1  UNL1       -0.4473
     22 C          -4.1797    4.3207   18.1775 C.3     1  UNL1        0.2084
     23 C          -6.3764    5.3825   17.2847 C.3     1  UNL1        0.0038
     24 C          -5.6775    4.3327   18.0967 C.3     1  UNL1        0.0439
     25 C          -6.4764    3.2949   18.8281 C.3     1  UNL1        0.0038
     26 C          -4.3933    3.0663   21.8564 C.3     1  UNL1        0.1386
     27 N          -4.4299    3.5140   23.2875 N.ar    1  UNL1       -0.3055
     28 C          -5.6379    4.0101   24.0255 C.ar    1  UNL1        0.0981
     29 C          -5.2195    4.3470   25.4260 C.ar    1  UNL1        0.1193
     30 N          -3.7529    4.0591   25.5535 N.ar    1  UNL1       -0.2223
     31 C          -3.2649    3.5443   24.2319 C.ar    1  UNL1        0.1787
@<TRIPOS>BOND
     1    23    24    1
     2    24    25    1
     3    24    22    1
     4    22    21    1
     5    21    19    1
     6    19    20    2
     7    19    18    1
     8    18    26    1
     9    26    27    1
    10    27    28   ar
    11    28    29   ar
    12    29    30   ar
    13    30    31   ar
    14    18     1    1
    15     1     2   am
    16     2     3    2
    17     2     5    1
    18     5     6   ar
    19     6     7   ar
    20     7     8   ar
    21     8    11    1
    22    11    12   ar
    23    12    13   ar
    24    13    14   ar
    25    14    15   ar
    26    15    16   ar
    27    16    17    1
    28     8     9   ar
    29     9    10   ar
    30    31    27   ar
    31    10     5   ar
    32    16    11   ar
    33     1     4    1
