@<TRIPOS>MOLECULE
*****
 33 37 0 0 0
SMALL
GASTEIGER

@<TRIPOS>ATOM
      1 C           3.9845   -2.8583   19.2396 C.3     1  UNL1        0.0061
      2 C           3.8612   -2.3492   20.6452 C.3     1  UNL1        0.0373
      3 C           4.7392   -3.5433   20.8767 C.3     1  UNL1        0.0075
      4 C           5.2039   -3.8750   22.2637 C.3     1  UNL1        0.0219
      5 C           4.7906   -3.0126   23.4194 C.3     1  UNL1        0.0950
      6 N           3.9127   -1.8186   23.1881 N.am    1  UNL1       -0.2639
      7 C           3.4995   -0.9563   24.3438 C.2     1  UNL1        0.3042
      8 O           3.9641   -1.2880   25.7308 O.2     1  UNL1       -0.2526
      9 N           2.6215    0.2378   24.1123 N.am    1  UNL1       -0.2847
     10 C           3.4480   -1.4869   21.8009 C.3     1  UNL1        0.0989
     11 H           2.3165    0.4555   23.2019 H       1  UNL1        0.1513
     12 C           3.0261   -1.3320   19.9257 C.ar    1  UNL1       -0.0212
     13 C           1.6968   -0.9210   20.4860 C.ar    1  UNL1       -0.0042
     14 C           0.8617    0.0962   19.7664 C.ar    1  UNL1       -0.0003
     15 C           1.3559    0.7025   18.4865 C.ar    1  UNL1       -0.0000
     16 C           2.6852    0.2915   17.9262 C.ar    1  UNL1       -0.0003
     17 C           3.5203   -0.7257   18.6457 C.ar    1  UNL1       -0.0042
     18 C           2.2083    1.1001   25.2680 C.3     1  UNL1        0.1177
     19 C           0.8446    1.7246   25.2879 C.ar    1  UNL1       -0.0025
     20 C           0.2479    2.2632   24.0215 C.ar    1  UNL1       -0.0026
     21 C          -1.1159    2.8877   24.0414 C.ar    1  UNL1       -0.0006
     22 C          -1.8827    2.9736   25.3276 C.ar    1  UNL1       -0.0037
     23 C          -1.2859    2.4350   26.5940 C.ar    1  UNL1       -0.0006
     24 C           0.0777    1.8105   26.5741 C.ar    1  UNL1       -0.0026
     25 C          -3.2464    3.5981   25.3476 C.2     1  UNL1       -0.0177
     26 C          -3.7371    4.2887   26.5853 C.2     1  UNL1       -0.0024
     27 C          -5.1008    4.9132   26.6053 C.2     1  UNL1        0.0185
     28 C          -5.9738    4.8470   25.3873 C.2     1  UNL1        0.0777
     29 N          -7.3536    5.3670   25.1120 N.2     1  UNL1       -0.2442
     30 C          -7.7156    4.9977   23.7040 C.2     1  UNL1        0.0985
     31 C          -6.5596    4.2495   23.1091 C.2     1  UNL1        0.0182
     32 C          -5.4831    4.1564   24.1495 C.2     1  UNL1        0.0014
     33 C          -4.1194    3.5319   24.1296 C.3     1  UNL1        0.0542
@<TRIPOS>BOND
     1     1     2    1
     2     2    12    1
     3    12    13   ar
     4    13    14   ar
     5    14    15   ar
     6    15    16   ar
     7    16    17   ar
     8     2     3    1
     9     3     4    1
    10     4     5    1
    11     5     6    1
    12     6     7   am
    13     7     8    2
    14     7     9   am
    15     9    18    1
    16    18    19    1
    17    19    20   ar
    18    20    21   ar
    19    21    22   ar
    20    22    25    1
    21    25    26    2
    22    26    27    1
    23    27    28    2
    24    28    29    1
    25    29    30    2
    26    30    31    1
    27    31    32    2
    28    32    33    1
    29    22    23   ar
    30    23    24   ar
    31     6    10    1
    32    10     2    1
    33    17    12   ar
    34    24    19   ar
    35    33    25    1
    36    32    28    1
    37     9    11    1
@<TRIPOS>MOLECULE
*****
 33 37 0 0 0
SMALL
GASTEIGER

@<TRIPOS>ATOM
      1 C          -6.0062    4.3823   24.8770 C.3     1  UNL1        0.0061
      2 C          -5.3179    4.1863   23.5588 C.3     1  UNL1        0.0373
      3 C          -6.6931    4.5504   23.0830 C.3     1  UNL1        0.0075
      4 C          -6.9855    4.6157   21.6133 C.3     1  UNL1        0.0219
      5 C          -5.9026    4.3169   20.6192 C.3     1  UNL1        0.0950
      6 N          -4.5274    3.9528   21.0949 N.am    1  UNL1       -0.2639
      7 C          -3.4446    3.6540   20.1008 C.2     1  UNL1        0.3042
      8 O          -3.7369    3.7193   18.6311 O.2     1  UNL1       -0.2526
      9 N          -2.0694    3.2899   20.5765 N.am    1  UNL1       -0.2847
     10 C          -4.2351    3.8875   22.5647 C.3     1  UNL1        0.0989
     11 H          -1.8775    3.2470   21.5412 H       1  UNL1        0.1513
     12 C          -4.1818    3.8902   24.4923 C.ar    1  UNL1       -0.0212
     13 C          -2.8350    3.5244   23.9424 C.ar    1  UNL1       -0.0042
     14 C          -1.6989    3.2283   24.8759 C.ar    1  UNL1       -0.0003
     15 C          -1.9095    3.2982   26.3594 C.ar    1  UNL1       -0.0000
     16 C          -3.2562    3.6641   26.9093 C.ar    1  UNL1       -0.0003
     17 C          -4.3923    3.9601   25.9759 C.ar    1  UNL1       -0.0042
     18 C          -0.9866    2.9911   19.5824 C.3     1  UNL1        0.1177
     19 C           0.0181    1.9146   19.8686 C.ar    1  UNL1       -0.0025
     20 C           0.7940    1.2949   18.7444 C.ar    1  UNL1       -0.0026
     21 C           1.7987    0.2184   19.0307 C.ar    1  UNL1       -0.0006
     22 C           2.0273   -0.2383   20.4410 C.ar    1  UNL1       -0.0037
     23 C           1.2513    0.3814   21.5652 C.ar    1  UNL1       -0.0006
     24 C           0.2467    1.4579   21.2790 C.ar    1  UNL1       -0.0026
     25 C           3.0320   -1.3148   20.7272 C.2     1  UNL1       -0.0177
     26 C           3.4660   -2.2456   19.6341 C.2     1  UNL1       -0.0024
     27 C           4.4706   -3.3221   19.9203 C.2     1  UNL1        0.0185
     28 C           5.0412   -3.4677   21.2999 C.2     1  UNL1        0.0777
     29 N           6.0403   -4.4264   21.8767 N.2     1  UNL1       -0.2442
     30 C           6.2237   -4.0881   23.3265 C.2     1  UNL1        0.0985
     31 C           5.3381   -2.9203   23.6457 C.2     1  UNL1        0.0182
     32 C           4.6072   -2.5369   22.3931 C.2     1  UNL1        0.0014
     33 C           3.6026   -1.4604   22.1068 C.3     1  UNL1        0.0542
@<TRIPOS>BOND
     1     1     2    1
     2     2    12    1
     3    12    13   ar
     4    13    14   ar
     5    14    15   ar
     6    15    16   ar
     7    16    17   ar
     8     2     3    1
     9     3     4    1
    10     4     5    1
    11     5     6    1
    12     6     7   am
    13     7     8    2
    14     7     9   am
    15     9    18    1
    16    18    19    1
    17    19    20   ar
    18    20    21   ar
    19    21    22   ar
    20    22    25    1
    21    25    26    2
    22    26    27    1
    23    27    28    2
    24    28    29    1
    25    29    30    2
    26    30    31    1
    27    31    32    2
    28    32    33    1
    29    22    23   ar
    30    23    24   ar
    31     6    10    1
    32    10     2    1
    33    17    12   ar
    34    24    19   ar
    35    33    25    1
    36    32    28    1
    37     9    11    1
@<TRIPOS>MOLECULE
*****
 33 37 0 0 0
SMALL
GASTEIGER

@<TRIPOS>ATOM
      1 C          -4.3437    4.1507   26.5096 C.3     1  UNL1        0.0061
      2 C          -4.0260    3.9010   25.0651 C.3     1  UNL1        0.0373
      3 C          -5.5039    4.1395   24.9693 C.3     1  UNL1        0.0075
      4 C          -6.1891    4.0755   23.6366 C.3     1  UNL1        0.0219
      5 C          -5.3966    3.7731   22.3995 C.3     1  UNL1        0.0950
      6 N          -3.9187    3.5346   22.4951 N.am    1  UNL1       -0.2639
      7 C          -3.1262    3.2322   21.2580 C.2     1  UNL1        0.3042
      8 O          -3.8115    3.1683   19.9253 O.2     1  UNL1       -0.2526
      9 N          -1.6483    2.9938   21.3538 N.am    1  UNL1       -0.2847
     10 C          -3.2335    3.5986   23.8280 C.3     1  UNL1        0.0989
     11 H          -1.1986    3.0358   22.2285 H       1  UNL1        0.1513
     12 C          -2.6586    3.7493   25.6624 C.ar    1  UNL1       -0.0212
     13 C          -1.7587    2.6401   25.2042 C.ar    1  UNL1       -0.0042
     14 C          -0.3912    2.4884   25.8016 C.ar    1  UNL1       -0.0003
     15 C           0.0765    3.4459   26.8572 C.ar    1  UNL1       -0.0000
     16 C          -0.8233    4.5551   27.3154 C.ar    1  UNL1       -0.0003
     17 C          -2.1907    4.7069   26.7181 C.ar    1  UNL1       -0.0042
     18 C          -0.8558    2.6914   20.1167 C.3     1  UNL1        0.1177
     19 C           0.2167    1.6433   20.1506 C.ar    1  UNL1       -0.0025
     20 C           0.6004    1.0048   21.4525 C.ar    1  UNL1       -0.0026
     21 C           1.6730   -0.0434   21.4864 C.ar    1  UNL1       -0.0006
     22 C           2.3617   -0.4530   20.2185 C.ar    1  UNL1       -0.0037
     23 C           1.9780    0.1855   18.9165 C.ar    1  UNL1       -0.0006
     24 C           0.9055    1.2336   18.8826 C.ar    1  UNL1       -0.0026
     25 C           3.4343   -1.5011   20.2523 C.2     1  UNL1       -0.0177
     26 C           3.5351   -2.5071   19.1443 C.2     1  UNL1       -0.0024
     27 C           4.6077   -3.5552   19.1782 C.2     1  UNL1        0.0185
     28 C           5.5793   -3.5973   20.3202 C.2     1  UNL1        0.0777
     29 N           6.7330   -4.5068   20.6234 N.2     1  UNL1       -0.2442
     30 C           7.3450   -4.0629   21.9189 C.2     1  UNL1        0.0985
     31 C           6.5697   -2.8791   22.4163 C.2     1  UNL1        0.0182
     32 C           5.4784   -2.5913   21.4282 C.2     1  UNL1        0.0014
     33 C           4.4059   -1.5432   21.3943 C.3     1  UNL1        0.0542
@<TRIPOS>BOND
     1     1     2    1
     2     2    12    1
     3    12    13   ar
     4    13    14   ar
     5    14    15   ar
     6    15    16   ar
     7    16    17   ar
     8     2     3    1
     9     3     4    1
    10     4     5    1
    11     5     6    1
    12     6     7   am
    13     7     8    2
    14     7     9   am
    15     9    18    1
    16    18    19    1
    17    19    20   ar
    18    20    21   ar
    19    21    22   ar
    20    22    25    1
    21    25    26    2
    22    26    27    1
    23    27    28    2
    24    28    29    1
    25    29    30    2
    26    30    31    1
    27    31    32    2
    28    32    33    1
    29    22    23   ar
    30    23    24   ar
    31     6    10    1
    32    10     2    1
    33    17    12   ar
    34    24    19   ar
    35    33    25    1
    36    32    28    1
    37     9    11    1
@<TRIPOS>MOLECULE
*****
 33 37 0 0 0
SMALL
GASTEIGER

@<TRIPOS>ATOM
      1 C           5.3726   -3.5029   21.5369 C.3     1  UNL1        0.0061
      2 C           5.0455   -2.8370   22.8406 C.3     1  UNL1        0.0373
      3 C           6.1673   -3.7310   23.2790 C.3     1  UNL1        0.0075
      4 C           6.6119   -3.7290   24.7115 C.3     1  UNL1        0.0219
      5 C           5.9347   -2.8329   25.7058 C.3     1  UNL1        0.0950
      6 N           4.8129   -1.9388   25.2674 N.am    1  UNL1       -0.2639
      7 C           4.1357   -1.0428   26.2616 C.2     1  UNL1        0.3042
      8 O           4.5803   -1.0408   27.6941 O.2     1  UNL1       -0.2526
      9 N           3.0138   -0.1487   25.8232 N.am    1  UNL1       -0.2847
     10 C           4.3683   -1.9409   23.8348 C.3     1  UNL1        0.0989
     11 H           2.7220   -0.1500   24.8830 H       1  UNL1        0.1513
     12 C           4.0373   -2.1742   21.9495 C.ar    1  UNL1       -0.0212
     13 C           3.1653   -1.0790   22.4881 C.ar    1  UNL1       -0.0042
     14 C           2.1570   -0.4162   21.5970 C.ar    1  UNL1       -0.0003
     15 C           2.0207   -0.8486   20.1671 C.ar    1  UNL1       -0.0000
     16 C           2.8927   -1.9438   19.6285 C.ar    1  UNL1       -0.0003
     17 C           3.9009   -2.6066   20.5196 C.ar    1  UNL1       -0.0042
     18 C           2.3367    0.7473   26.8174 C.3     1  UNL1        0.1177
     19 C           1.0177    1.3781   26.4821 C.ar    1  UNL1       -0.0025
     20 C           0.0186    1.6493   27.5675 C.ar    1  UNL1       -0.0026
     21 C          -1.3005    2.2801   27.2321 C.ar    1  UNL1       -0.0006
     22 C          -1.6202    2.6396   25.8114 C.ar    1  UNL1       -0.0037
     23 C          -0.6211    2.3683   24.7260 C.ar    1  UNL1       -0.0006
     24 C           0.6979    1.7376   25.0614 C.ar    1  UNL1       -0.0026
     25 C          -2.9392    3.2704   25.4760 C.2     1  UNL1       -0.0177
     26 C          -3.7340    3.9604   26.5447 C.2     1  UNL1       -0.0024
     27 C          -5.0530    4.5912   26.2093 C.2     1  UNL1        0.0185
     28 C          -5.5771    4.5318   24.8051 C.2     1  UNL1        0.0777
     29 N          -6.8348    5.0588   24.1802 N.2     1  UNL1       -0.2442
     30 C          -6.8173    4.6945   22.7252 C.2     1  UNL1        0.0985
     31 C          -5.5488    3.9423   22.4509 C.2     1  UNL1        0.0182
     32 C          -4.7824    3.8418   23.7364 C.2     1  UNL1        0.0014
     33 C          -3.4634    3.2110   24.0719 C.3     1  UNL1        0.0542
@<TRIPOS>BOND
     1     1     2    1
     2     2    12    1
     3    12    13   ar
     4    13    14   ar
     5    14    15   ar
     6    15    16   ar
     7    16    17   ar
     8     2     3    1
     9     3     4    1
    10     4     5    1
    11     5     6    1
    12     6     7   am
    13     7     8    2
    14     7     9   am
    15     9    18    1
    16    18    19    1
    17    19    20   ar
    18    20    21   ar
    19    21    22   ar
    20    22    25    1
    21    25    26    2
    22    26    27    1
    23    27    28    2
    24    28    29    1
    25    29    30    2
    26    30    31    1
    27    31    32    2
    28    32    33    1
    29    22    23   ar
    30    23    24   ar
    31     6    10    1
    32    10     2    1
    33    17    12   ar
    34    24    19   ar
    35    33    25    1
    36    32    28    1
    37     9    11    1
@<TRIPOS>MOLECULE
*****
 33 37 0 0 0
SMALL
GASTEIGER

@<TRIPOS>ATOM
      1 C          -6.7189    4.6455   19.6197 C.3     1  UNL1        0.0061
      2 C          -5.7217    4.4098   20.7152 C.3     1  UNL1        0.0373
      3 C          -6.9822    4.4939   21.5240 C.3     1  UNL1        0.0075
      4 C          -6.9281    4.3416   23.0152 C.3     1  UNL1        0.0219
      5 C          -5.6134    4.1051   23.6978 C.3     1  UNL1        0.0950
      6 N          -4.3529    4.0209   22.8890 N.am    1  UNL1       -0.2639
      7 C          -3.0383    3.7844   23.5715 C.2     1  UNL1        0.3042
      8 O          -2.9842    3.6320   25.0627 O.2     1  UNL1       -0.2526
      9 N          -1.7778    3.7002   22.7627 N.am    1  UNL1       -0.2847
     10 C          -4.4071    4.1732   21.3977 C.3     1  UNL1        0.0989
     11 H          -1.8133    3.8002   21.7839 H       1  UNL1        0.1513
     12 C          -4.8076    4.4074   19.5260 C.ar    1  UNL1       -0.0212
     13 C          -5.1650    3.6102   18.3067 C.ar    1  UNL1       -0.0042
     14 C          -4.2508    3.6079   17.1175 C.ar    1  UNL1       -0.0003
     15 C          -2.9791    4.4028   17.1476 C.ar    1  UNL1       -0.0000
     16 C          -2.6217    5.2001   18.3669 C.ar    1  UNL1       -0.0003
     17 C          -3.5358    5.2024   19.5561 C.ar    1  UNL1       -0.0042
     18 C          -0.4632    3.4636   23.4452 C.3     1  UNL1        0.1177
     19 C           0.3937    2.3011   23.0401 C.ar    1  UNL1       -0.0025
     20 C           0.3362    1.7809   21.6344 C.ar    1  UNL1       -0.0026
     21 C           1.1931    0.6183   21.2293 C.ar    1  UNL1       -0.0006
     22 C           2.1075   -0.0240   22.2298 C.ar    1  UNL1       -0.0037
     23 C           2.1651    0.4962   23.6356 C.ar    1  UNL1       -0.0006
     24 C           1.3082    1.6587   24.0407 C.ar    1  UNL1       -0.0026
     25 C           2.9645   -1.1867   21.8247 C.2     1  UNL1       -0.0177
     26 C           3.8872   -1.8218   22.8222 C.2     1  UNL1       -0.0024
     27 C           4.7442   -2.9844   22.4172 C.2     1  UNL1        0.0185
     28 C           4.6783   -3.5118   21.0145 C.2     1  UNL1        0.0777
     29 N           5.3978   -4.6360   20.3301 N.2     1  UNL1       -0.2442
     30 C           4.9197   -4.6957   18.9096 C.2     1  UNL1        0.0985
     31 C           3.9047   -3.6083   18.7161 C.2     1  UNL1        0.0182
     32 C           3.7555   -2.8766   20.0170 C.2     1  UNL1        0.0014
     33 C           2.8986   -1.7141   20.4221 C.3     1  UNL1        0.0542
@<TRIPOS>BOND
     1     1     2    1
     2     2    12    1
     3    12    13   ar
     4    13    14   ar
     5    14    15   ar
     6    15    16   ar
     7    16    17   ar
     8     2     3    1
     9     3     4    1
    10     4     5    1
    11     5     6    1
    12     6     7   am
    13     7     8    2
    14     7     9   am
    15     9    18    1
    16    18    19    1
    17    19    20   ar
    18    20    21   ar
    19    21    22   ar
    20    22    25    1
    21    25    26    2
    22    26    27    1
    23    27    28    2
    24    28    29    1
    25    29    30    2
    26    30    31    1
    27    31    32    2
    28    32    33    1
    29    22    23   ar
    30    23    24   ar
    31     6    10    1
    32    10     2    1
    33    17    12   ar
    34    24    19   ar
    35    33    25    1
    36    32    28    1
    37     9    11    1
@<TRIPOS>MOLECULE
*****
 33 37 0 0 0
SMALL
GASTEIGER

@<TRIPOS>ATOM
      1 C           4.9164   -3.6547   22.7304 C.3     1  UNL1        0.0061
      2 C           4.4834   -2.7817   21.5900 C.3     1  UNL1        0.0373
      3 C           5.0807   -3.9278   20.8285 C.3     1  UNL1        0.0075
      4 C           5.0898   -3.9082   19.3287 C.3     1  UNL1        0.0219
      5 C           4.5016   -2.7425   18.5903 C.3     1  UNL1        0.0950
      6 N           3.9043   -1.5964   19.3517 N.am    1  UNL1       -0.2639
      7 C           3.3161   -0.4308   18.6132 C.2     1  UNL1        0.3042
      8 O           3.3252   -0.4112   17.1135 O.2     1  UNL1       -0.2526
      9 N           2.7187    0.7153   19.3747 N.am    1  UNL1       -0.2847
     10 C           3.8952   -1.6161   20.8516 C.3     1  UNL1        0.0989
     11 H           2.7128    0.7024   20.3591 H       1  UNL1        0.1513
     12 C           4.0365   -1.9388   22.7474 C.ar    1  UNL1       -0.0212
     13 C           2.9707   -0.9015   22.5525 C.ar    1  UNL1       -0.0042
     14 C           2.5237   -0.0586   23.7100 C.ar    1  UNL1       -0.0003
     15 C           3.1426   -0.2531   25.0624 C.ar    1  UNL1       -0.0000
     16 C           4.2084   -1.2904   25.2574 C.ar    1  UNL1       -0.0003
     17 C           4.6553   -2.1333   24.1000 C.ar    1  UNL1       -0.0042
     18 C           2.1305    1.8809   18.6363 C.3     1  UNL1        0.1177
     19 C           0.7696    2.3927   19.0048 C.ar    1  UNL1       -0.0025
     20 C           0.1636    2.0270   20.3273 C.ar    1  UNL1       -0.0026
     21 C          -1.1975    2.5388   20.6958 C.ar    1  UNL1       -0.0006
     22 C          -1.9524    3.4163   19.7419 C.ar    1  UNL1       -0.0037
     23 C          -1.3463    3.7820   18.4194 C.ar    1  UNL1       -0.0006
     24 C           0.0146    3.2702   18.0509 C.ar    1  UNL1       -0.0026
     25 C          -3.3134    3.9282   20.1103 C.2     1  UNL1       -0.0177
     26 C          -4.0820    4.7787   19.1431 C.2     1  UNL1       -0.0024
     27 C          -5.4431    5.2905   19.5116 C.2     1  UNL1        0.0185
     28 C          -6.0353    4.9518   20.8474 C.2     1  UNL1        0.0777
     29 N          -7.3454    5.3097   21.4843 N.2     1  UNL1       -0.2442
     30 C          -7.3863    4.6803   22.8452 C.2     1  UNL1        0.0985
     31 C          -6.1016    3.9334   23.0495 C.2     1  UNL1        0.0182
     32 C          -5.2666    4.1012   21.8147 C.2     1  UNL1        0.0014
     33 C          -3.9056    3.5894   21.4462 C.3     1  UNL1        0.0542
@<TRIPOS>BOND
     1     1     2    1
     2     2    12    1
     3    12    13   ar
     4    13    14   ar
     5    14    15   ar
     6    15    16   ar
     7    16    17   ar
     8     2     3    1
     9     3     4    1
    10     4     5    1
    11     5     6    1
    12     6     7   am
    13     7     8    2
    14     7     9   am
    15     9    18    1
    16    18    19    1
    17    19    20   ar
    18    20    21   ar
    19    21    22   ar
    20    22    25    1
    21    25    26    2
    22    26    27    1
    23    27    28    2
    24    28    29    1
    25    29    30    2
    26    30    31    1
    27    31    32    2
    28    32    33    1
    29    22    23   ar
    30    23    24   ar
    31     6    10    1
    32    10     2    1
    33    17    12   ar
    34    24    19   ar
    35    33    25    1
    36    32    28    1
    37     9    11    1
@<TRIPOS>MOLECULE
*****
 33 37 0 0 0
SMALL
GASTEIGER

@<TRIPOS>ATOM
      1 C           8.5835   -6.2743   29.8785 C.3     1  UNL1        0.0061
      2 C           8.4508   -6.3239   28.3852 C.3     1  UNL1        0.0373
      3 C           8.9016   -7.7293   28.6535 C.3     1  UNL1        0.0075
      4 C           9.0792   -8.6901   27.5156 C.3     1  UNL1        0.0219
      5 C           8.8059   -8.2458   26.1091 C.3     1  UNL1        0.0950
      6 N           8.3551   -6.8406   25.8407 N.am    1  UNL1       -0.2639
      7 C           8.0818   -6.3963   24.4344 C.2     1  UNL1        0.3042
      8 O           8.2594   -7.3572   23.2964 O.2     1  UNL1       -0.2526
      9 N           7.6310   -4.9910   24.1660 N.am    1  UNL1       -0.2847
     10 C           8.1775   -5.8797   26.9788 C.3     1  UNL1        0.0989
     11 H           7.5145   -4.3603   24.9130 H       1  UNL1        0.1513
     12 C           8.0461   -4.9015   28.6354 C.ar    1  UNL1       -0.0212
     13 C           8.7683   -3.7834   27.9438 C.ar    1  UNL1       -0.0042
     14 C           8.3636   -2.3609   28.1941 C.ar    1  UNL1       -0.0003
     15 C           7.2366   -2.0564   29.1359 C.ar    1  UNL1       -0.0000
     16 C           6.5143   -3.1745   29.8275 C.ar    1  UNL1       -0.0003
     17 C           6.9190   -4.5969   29.5773 C.ar    1  UNL1       -0.0042
     18 C           7.3577   -4.5467   22.7597 C.3     1  UNL1        0.1177
     19 C           6.2011   -3.6359   22.4722 C.ar    1  UNL1       -0.0025
     20 C           5.6914   -3.4909   21.0689 C.ar    1  UNL1       -0.0026
     21 C           4.5347   -2.5801   20.7816 C.ar    1  UNL1       -0.0006
     22 C           3.8878   -1.8144   21.8973 C.ar    1  UNL1       -0.0037
     23 C           4.3975   -1.9594   23.3006 C.ar    1  UNL1       -0.0006
     24 C           5.5541   -2.8701   23.5880 C.ar    1  UNL1       -0.0026
     25 C           2.7311   -0.9035   21.6099 C.2     1  UNL1       -0.0177
     26 C           1.9674   -1.0431   20.3265 C.2     1  UNL1       -0.0024
     27 C           0.8107   -0.1323   20.0391 C.2     1  UNL1        0.0185
     28 C           0.4178    0.9181   21.0353 C.2     1  UNL1        0.0777
     29 N          -0.6691    1.9518   21.0278 N.2     1  UNL1       -0.2442
     30 C          -0.5772    2.7302   22.3067 C.2     1  UNL1        0.0985
     31 C           0.5665    2.1776   23.1046 C.2     1  UNL1        0.0182
     32 C           1.1815    1.0576   22.3188 C.2     1  UNL1        0.0014
     33 C           2.3381    0.1468   22.6061 C.3     1  UNL1        0.0542
@<TRIPOS>BOND
     1     1     2    1
     2     2    12    1
     3    12    13   ar
     4    13    14   ar
     5    14    15   ar
     6    15    16   ar
     7    16    17   ar
     8     2     3    1
     9     3     4    1
    10     4     5    1
    11     5     6    1
    12     6     7   am
    13     7     8    2
    14     7     9   am
    15     9    18    1
    16    18    19    1
    17    19    20   ar
    18    20    21   ar
    19    21    22   ar
    20    22    25    1
    21    25    26    2
    22    26    27    1
    23    27    28    2
    24    28    29    1
    25    29    30    2
    26    30    31    1
    27    31    32    2
    28    32    33    1
    29    22    23   ar
    30    23    24   ar
    31     6    10    1
    32    10     2    1
    33    17    12   ar
    34    24    19   ar
    35    33    25    1
    36    32    28    1
    37     9    11    1
@<TRIPOS>MOLECULE
*****
 33 37 0 0 0
SMALL
GASTEIGER

@<TRIPOS>ATOM
      1 C           5.5021   -0.3141   35.9885 C.3     1  UNL1        0.0061
      2 C           4.5514    0.2923   34.9994 C.3     1  UNL1        0.0373
      3 C           4.1885    1.0777   36.2248 C.3     1  UNL1        0.0075
      4 C           3.1156    2.1235   36.1549 C.3     1  UNL1        0.0219
      5 C           2.4054    2.3840   34.8595 C.3     1  UNL1        0.0950
      6 N           2.7682    1.5987   33.6341 N.am    1  UNL1       -0.2639
      7 C           2.0581    1.8593   32.3388 C.2     1  UNL1        0.3042
      8 O           0.9852    2.9051   32.2689 O.2     1  UNL1       -0.2526
      9 N           2.4210    1.0739   31.1134 N.am    1  UNL1       -0.2847
     10 C           3.8412    0.5528   33.7041 C.3     1  UNL1        0.0989
     11 H           3.1252    0.3875   31.1593 H       1  UNL1        0.1513
     12 C           5.2444   -0.7036   34.1175 C.ar    1  UNL1       -0.0212
     13 C           6.6621   -0.4669   33.6886 C.ar    1  UNL1       -0.0042
     14 C           7.3551   -1.4629   32.8066 C.ar    1  UNL1       -0.0003
     15 C           6.6304   -2.6956   32.3536 C.ar    1  UNL1       -0.0000
     16 C           5.2127   -2.9323   32.7826 C.ar    1  UNL1       -0.0003
     17 C           4.5197   -1.9364   33.6644 C.ar    1  UNL1       -0.0042
     18 C           1.7109    1.3345   29.8181 C.3     1  UNL1        0.1177
     19 C           2.2129    0.7118   28.5491 C.ar    1  UNL1       -0.0025
     20 C           1.9506    1.3790   27.2315 C.ar    1  UNL1       -0.0026
     21 C           2.4527    0.7563   25.9625 C.ar    1  UNL1       -0.0006
     22 C           3.2169   -0.5334   26.0112 C.ar    1  UNL1       -0.0037
     23 C           3.4792   -1.2005   27.3288 C.ar    1  UNL1       -0.0006
     24 C           2.9772   -0.5779   28.5978 C.ar    1  UNL1       -0.0026
     25 C           3.7190   -1.1561   24.7422 C.2     1  UNL1       -0.0177
     26 C           4.8840   -2.1000   24.7798 C.2     1  UNL1       -0.0024
     27 C           5.3861   -2.7227   23.5108 C.2     1  UNL1        0.0185
     28 C           4.7230   -2.4014   22.2042 C.2     1  UNL1        0.0777
     29 N           4.9946   -2.8586   20.8017 N.2     1  UNL1       -0.2442
     30 C           3.9973   -2.1971   19.8973 C.2     1  UNL1        0.0985
     31 C           3.1094   -1.3311   20.7409 C.2     1  UNL1        0.0182
     32 C           3.5579   -1.4574   22.1667 C.2     1  UNL1        0.0014
     33 C           3.0559   -0.8348   23.4357 C.3     1  UNL1        0.0542
@<TRIPOS>BOND
     1     1     2    1
     2     2    12    1
     3    12    13   ar
     4    13    14   ar
     5    14    15   ar
     6    15    16   ar
     7    16    17   ar
     8     2     3    1
     9     3     4    1
    10     4     5    1
    11     5     6    1
    12     6     7   am
    13     7     8    2
    14     7     9   am
    15     9    18    1
    16    18    19    1
    17    19    20   ar
    18    20    21   ar
    19    21    22   ar
    20    22    25    1
    21    25    26    2
    22    26    27    1
    23    27    28    2
    24    28    29    1
    25    29    30    2
    26    30    31    1
    27    31    32    2
    28    32    33    1
    29    22    23   ar
    30    23    24   ar
    31     6    10    1
    32    10     2    1
    33    17    12   ar
    34    24    19   ar
    35    33    25    1
    36    32    28    1
    37     9    11    1
@<TRIPOS>MOLECULE
*****
 33 37 0 0 0
SMALL
GASTEIGER

@<TRIPOS>ATOM
      1 C          -7.0595    4.0463   22.8294 C.3     1  UNL1        0.0061
      2 C          -5.5648    4.0757   22.9517 C.3     1  UNL1        0.0373
      3 C          -5.9423    3.9596   24.3988 C.3     1  UNL1        0.0075
      4 C          -4.8743    3.9097   25.4508 C.3     1  UNL1        0.0219
      5 C          -3.4287    3.9759   25.0558 C.3     1  UNL1        0.0950
      6 N          -3.0512    4.0920   23.6088 N.am    1  UNL1       -0.2639
      7 C          -1.6056    4.1581   23.2138 C.2     1  UNL1        0.3042
      8 O          -0.5377    4.1082   24.2658 O.2     1  UNL1       -0.2526
      9 N          -1.2281    4.2742   21.7667 N.am    1  UNL1       -0.2847
     10 C          -4.1192    4.1419   22.5567 C.3     1  UNL1        0.0989
     11 H          -1.9291    4.3070   21.0762 H       1  UNL1        0.1513
     12 C          -5.7063    4.1816   21.4622 C.ar    1  UNL1       -0.0212
     13 C          -4.6958    3.5312   20.5646 C.ar    1  UNL1       -0.0042
     14 C          -4.8374    3.6371   19.0750 C.ar    1  UNL1       -0.0003
     15 C          -5.9895    4.3935   18.4831 C.ar    1  UNL1       -0.0000
     16 C          -7.0001    5.0439   19.3807 C.ar    1  UNL1       -0.0003
     17 C          -6.8585    4.9380   20.8701 C.ar    1  UNL1       -0.0042
     18 C           0.2174    4.3404   21.3717 C.3     1  UNL1        0.1177
     19 C           1.0077    3.0765   21.2040 C.ar    1  UNL1       -0.0025
     20 C           0.2987    1.7672   21.0225 C.ar    1  UNL1       -0.0026
     21 C           1.0890    0.5033   20.8548 C.ar    1  UNL1       -0.0006
     22 C           2.5882    0.5488   20.8687 C.ar    1  UNL1       -0.0037
     23 C           3.2972    1.8581   21.0503 C.ar    1  UNL1       -0.0006
     24 C           2.5069    3.1220   21.2179 C.ar    1  UNL1       -0.0026
     25 C           3.3785   -0.7151   20.7010 C.2     1  UNL1       -0.0177
     26 C           4.7096   -0.8625   21.3764 C.2     1  UNL1       -0.0024
     27 C           5.5000   -2.1264   21.2087 C.2     1  UNL1        0.0185
     28 C           4.9590   -3.2428   20.3656 C.2     1  UNL1        0.0777
     29 N           5.5074   -4.5954   20.0192 N.2     1  UNL1       -0.2442
     30 C           4.5150   -5.2839   19.1297 C.2     1  UNL1        0.0985
     31 C           3.3534   -4.3569   18.9263 C.2     1  UNL1        0.0182
     32 C           3.6279   -3.0954   19.6901 C.2     1  UNL1        0.0014
     33 C           2.8376   -1.8315   19.8578 C.3     1  UNL1        0.0542
@<TRIPOS>BOND
     1     1     2    1
     2     2    12    1
     3    12    13   ar
     4    13    14   ar
     5    14    15   ar
     6    15    16   ar
     7    16    17   ar
     8     2     3    1
     9     3     4    1
    10     4     5    1
    11     5     6    1
    12     6     7   am
    13     7     8    2
    14     7     9   am
    15     9    18    1
    16    18    19    1
    17    19    20   ar
    18    20    21   ar
    19    21    22   ar
    20    22    25    1
    21    25    26    2
    22    26    27    1
    23    27    28    2
    24    28    29    1
    25    29    30    2
    26    30    31    1
    27    31    32    2
    28    32    33    1
    29    22    23   ar
    30    23    24   ar
    31     6    10    1
    32    10     2    1
    33    17    12   ar
    34    24    19   ar
    35    33    25    1
    36    32    28    1
    37     9    11    1
