@<TRIPOS>MOLECULE
*****
 31 34 0 0 0
SMALL
GASTEIGER

@<TRIPOS>ATOM
      1 N           7.8322   -3.5141   20.6300 N.pl3   1  UNL1       -0.2927
      2 H           8.6358   -3.0813   20.2609 H       1  UNL1        0.1541
      3 C           7.2486   -4.6772   24.3792 C.ar    1  UNL1        0.1559
      4 C           7.1562   -3.8805   23.1117 C.ar    1  UNL1        0.0530
      5 C           7.9247   -4.3109   21.8976 C.ar    1  UNL1        0.0529
      6 C           8.7855   -5.5381   21.9509 C.ar    1  UNL1        0.0163
      7 C           8.8779   -6.3348   23.2185 C.ar    1  UNL1        0.0219
      8 C           8.1094   -5.9044   24.4326 C.ar    1  UNL1        0.0995
      9 N           8.2019   -6.7012   25.7002 N.ar    1  UNL1       -0.2839
     10 C           7.5021   -7.9982   25.9793 C.ar    1  UNL1        0.1826
     11 N           7.8780   -8.4394   27.3627 N.ar    1  UNL1       -0.2280
     12 C           8.8102   -7.4150   27.9387 C.ar    1  UNL1        0.0786
     13 C           9.4329   -7.4575   29.3027 C.3     1  UNL1        0.0538
     14 C           9.0103   -6.3407   26.9112 C.ar    1  UNL1        0.0963
     15 C           6.7936   -2.9372   26.2541 C.3     1  UNL1        0.2525
     16 O           6.4801   -4.2468   25.5934 O.3     1  UNL1       -0.4699
     17 C           6.5155   -3.3768   19.9248 C.ar    1  UNL1        0.1634
     18 N           5.4802   -4.4517   19.7731 N.ar    1  UNL1       -0.2227
     19 C           4.3277   -3.8797   19.0020 C.ar    1  UNL1        0.1057
     20 C           4.6506   -2.4514   18.6771 C.ar    1  UNL1        0.0597
     21 S           6.0027   -2.1406   19.2474 S.2     1  UNL1       -0.0531
     22 C           3.7752   -1.5007   17.9157 C.3     1  UNL1        0.1625
     23 O           3.8792   -1.4184   16.4216 O.3     1  UNL1       -0.3750
     24 H           4.5545   -2.0410   16.1097 H       1  UNL1        0.2113
     25 C           2.7958   -0.6323   18.6483 C.ar    1  UNL1        0.0090
     26 C           2.5411    0.7701   18.1812 C.ar    1  UNL1       -0.0007
     27 C           1.5617    1.6385   18.9138 C.ar    1  UNL1        0.0112
     28 C           0.8370    1.1044   20.1136 C.ar    1  UNL1        0.0577
     29 CL         -0.1424    1.9727   20.8461 Cl      1  UNL1       -0.0822
     30 C           1.0917   -0.2981   20.5806 C.ar    1  UNL1        0.0112
     31 C           2.0710   -1.1664   19.8481 C.ar    1  UNL1       -0.0007
@<TRIPOS>BOND
     1    15    16    1
     2    16     3    1
     3     3     4   ar
     4     4     5   ar
     5     5     1    1
     6     1    17    1
     7    17    18   ar
     8    18    19   ar
     9    19    20   ar
    10    20    22    1
    11    22    23    1
    12    22    25    1
    13    25    26   ar
    14    26    27   ar
    15    27    28   ar
    16    28    29    1
    17    28    30   ar
    18    30    31   ar
    19    20    21   ar
    20     5     6   ar
    21     6     7   ar
    22     7     8   ar
    23     8     9    1
    24     9    10   ar
    25    10    11   ar
    26    11    12   ar
    27    12    13    1
    28    12    14   ar
    29     8     3   ar
    30    14     9   ar
    31    21    17   ar
    32    31    25   ar
    33     1     2    1
    34    23    24    1
@<TRIPOS>MOLECULE
*****
 31 34 0 0 0
SMALL
GASTEIGER

@<TRIPOS>ATOM
      1 N          -6.5699  -20.4215   19.6941 N.pl3   1  UNL1       -0.2927
      2 H          -6.6463  -21.0260   18.9209 H       1  UNL1        0.1541
      3 C          -9.0260  -18.8939   22.4114 C.ar    1  UNL1        0.1559
      4 C          -7.7903  -19.4587   21.7759 C.ar    1  UNL1        0.0530
      5 C          -7.8056  -19.8566   20.3297 C.ar    1  UNL1        0.0529
      6 C          -9.0566  -19.6897   19.5191 C.ar    1  UNL1        0.0163
      7 C         -10.2923  -19.1248   20.1546 C.ar    1  UNL1        0.0219
      8 C         -10.2770  -18.7269   21.6008 C.ar    1  UNL1        0.0995
      9 N         -11.5128  -18.1621   22.2364 N.ar    1  UNL1       -0.2839
     10 C         -12.1624  -16.8546   21.8922 C.ar    1  UNL1        0.1826
     11 N         -13.3669  -16.6900   22.7708 N.ar    1  UNL1       -0.2280
     12 C         -13.4618  -17.8958   23.6580 C.ar    1  UNL1        0.0786
     13 C         -14.5173  -18.1476   24.6936 C.3     1  UNL1        0.0538
     14 C         -12.3159  -18.8056   23.3277 C.ar    1  UNL1        0.0963
     15 C          -8.8386  -17.0551   24.2372 C.3     1  UNL1        0.2525
     16 O          -9.0107  -18.4960   23.8576 O.3     1  UNL1       -0.4699
     17 C          -5.2176  -20.0653   20.2368 C.ar    1  UNL1        0.1634
     18 N          -3.9007  -20.5631   19.7192 N.ar    1  UNL1       -0.2227
     19 C          -2.8140  -19.9543   20.5549 C.ar    1  UNL1        0.1057
     20 C          -3.4593  -19.0801   21.5890 C.ar    1  UNL1        0.0597
     21 S          -4.9448  -19.1488   21.3925 S.2     1  UNL1       -0.0531
     22 C          -2.7446  -18.2782   22.6360 C.3     1  UNL1        0.1625
     23 O          -1.2464  -18.3019   22.7059 O.3     1  UNL1       -0.3750
     24 H          -0.8993  -18.8799   22.0085 H       1  UNL1        0.2113
     25 C          -3.5280  -17.4526   23.6130 C.ar    1  UNL1        0.0090
     26 C          -3.5137  -17.8024   25.0716 C.ar    1  UNL1       -0.0007
     27 C          -4.2972  -16.9767   26.0486 C.ar    1  UNL1        0.0112
     28 C          -5.0950  -15.8013   25.5670 C.ar    1  UNL1        0.0577
     29 CL         -5.8784  -14.9758   26.5440 Cl      1  UNL1       -0.0822
     30 C          -5.1093  -15.4516   24.1084 C.ar    1  UNL1        0.0112
     31 C          -4.3259  -16.2772   23.1315 C.ar    1  UNL1       -0.0007
@<TRIPOS>BOND
     1    15    16    1
     2    16     3    1
     3     3     4   ar
     4     4     5   ar
     5     5     1    1
     6     1    17    1
     7    17    18   ar
     8    18    19   ar
     9    19    20   ar
    10    20    22    1
    11    22    23    1
    12    22    25    1
    13    25    26   ar
    14    26    27   ar
    15    27    28   ar
    16    28    29    1
    17    28    30   ar
    18    30    31   ar
    19    20    21   ar
    20     5     6   ar
    21     6     7   ar
    22     7     8   ar
    23     8     9    1
    24     9    10   ar
    25    10    11   ar
    26    11    12   ar
    27    12    13    1
    28    12    14   ar
    29     8     3   ar
    30    14     9   ar
    31    21    17   ar
    32    31    25   ar
    33     1     2    1
    34    23    24    1
@<TRIPOS>MOLECULE
*****
 31 34 0 0 0
SMALL
GASTEIGER

@<TRIPOS>ATOM
      1 N           7.3558   -3.9549   20.9115 N.pl3   1  UNL1       -0.2927
      2 H           8.2296   -4.0448   20.4669 H       1  UNL1        0.1541
      3 C           7.9998   -5.2307   24.6139 C.ar    1  UNL1        0.1559
      4 C           8.1002   -5.0969   23.1232 C.ar    1  UNL1        0.0530
      5 C           7.2555   -4.0887   22.4022 C.ar    1  UNL1        0.0529
      6 C           6.3104   -3.2143   23.1717 C.ar    1  UNL1        0.0163
      7 C           6.2101   -3.3481   24.6623 C.ar    1  UNL1        0.0219
      8 C           7.0548   -4.3563   25.3834 C.ar    1  UNL1        0.0995
      9 N           6.9544   -4.4901   26.8741 N.ar    1  UNL1       -0.2839
     10 C           6.3357   -5.6371   27.6167 C.ar    1  UNL1        0.1826
     11 N           6.4540   -5.3562   29.0854 N.ar    1  UNL1       -0.2280
     12 C           7.1459   -4.0355   29.2505 C.ar    1  UNL1        0.0786
     13 C           7.4713   -3.3675   30.5535 C.3     1  UNL1        0.0538
     14 C           7.4551   -3.5002   27.8838 C.ar    1  UNL1        0.0963
     15 C           8.5340   -7.7014   25.2141 C.3     1  UNL1        0.2525
     16 O           8.8445   -6.2389   25.3349 O.3     1  UNL1       -0.4699
     17 C           6.1249   -3.6841   20.0982 C.ar    1  UNL1        0.1634
     18 N           5.0361   -4.6694   19.7919 N.ar    1  UNL1       -0.2227
     19 C           4.0049   -3.9747   18.9528 C.ar    1  UNL1        0.1057
     20 C           4.4563   -2.5601   18.7405 C.ar    1  UNL1        0.0597
     21 S           5.7665   -2.3805   19.4484 S.2     1  UNL1       -0.0531
     22 C           3.7258   -1.5095   17.9578 C.3     1  UNL1        0.1625
     23 O           3.9579   -1.3771   16.4818 O.3     1  UNL1       -0.3750
     24 H           4.6039   -2.0415   16.1952 H       1  UNL1        0.2113
     25 C           2.7633   -0.5914   18.6511 C.ar    1  UNL1        0.0090
     26 C           1.9674   -1.0852   19.8227 C.ar    1  UNL1       -0.0007
     27 C           1.0048   -0.1671   20.5160 C.ar    1  UNL1        0.0112
     28 C           0.8381    1.2448   20.0376 C.ar    1  UNL1        0.0577
     29 CL         -0.1244    2.1628   20.7308 Cl      1  UNL1       -0.0822
     30 C           1.6341    1.7385   18.8660 C.ar    1  UNL1        0.0112
     31 C           2.5966    0.8204   18.1727 C.ar    1  UNL1       -0.0007
@<TRIPOS>BOND
     1    15    16    1
     2    16     3    1
     3     3     4   ar
     4     4     5   ar
     5     5     1    1
     6     1    17    1
     7    17    18   ar
     8    18    19   ar
     9    19    20   ar
    10    20    22    1
    11    22    23    1
    12    22    25    1
    13    25    26   ar
    14    26    27   ar
    15    27    28   ar
    16    28    29    1
    17    28    30   ar
    18    30    31   ar
    19    20    21   ar
    20     5     6   ar
    21     6     7   ar
    22     7     8   ar
    23     8     9    1
    24     9    10   ar
    25    10    11   ar
    26    11    12   ar
    27    12    13    1
    28    12    14   ar
    29     8     3   ar
    30    14     9   ar
    31    21    17   ar
    32    31    25   ar
    33     1     2    1
    34    23    24    1
@<TRIPOS>MOLECULE
*****
 31 34 0 0 0
SMALL
GASTEIGER

@<TRIPOS>ATOM
      1 N           7.5034   -3.9453   20.9164 N.pl3   1  UNL1       -0.2927
      2 H           8.3778   -3.9975   20.4671 H       1  UNL1        0.1541
      3 C           6.4784   -3.3403   24.7023 C.ar    1  UNL1        0.1559
      4 C           6.5683   -3.1739   23.2143 C.ar    1  UNL1        0.0530
      5 C           7.4135   -4.1118   22.4045 C.ar    1  UNL1        0.0529
      6 C           8.1690   -5.2160   23.0826 C.ar    1  UNL1        0.0163
      7 C           8.0791   -5.3824   24.5706 C.ar    1  UNL1        0.0219
      8 C           7.2338   -4.4446   25.3805 C.ar    1  UNL1        0.0995
      9 N           7.1440   -4.6110   26.8685 N.ar    1  UNL1       -0.2839
     10 C           6.2342   -5.5554   27.5968 C.ar    1  UNL1        0.1826
     11 N           6.4761   -5.3903   29.0679 N.ar    1  UNL1       -0.2280
     12 C           7.5355   -4.3438   29.2489 C.ar    1  UNL1        0.0786
     13 C           8.0856   -3.8634   30.5591 C.3     1  UNL1        0.0538
     14 C           7.9483   -3.8622   27.8896 C.ar    1  UNL1        0.0963
     15 C           6.2062   -1.1029   25.9946 C.3     1  UNL1        0.2525
     16 O           5.6331   -2.4024   25.5122 O.3     1  UNL1       -0.4699
     17 C           6.2608   -3.6995   20.1129 C.ar    1  UNL1        0.1634
     18 N           5.1847   -4.7037   19.8237 N.ar    1  UNL1       -0.2227
     19 C           4.1350   -4.0311   18.9895 C.ar    1  UNL1        0.1057
     20 C           4.5624   -2.6111   18.7632 C.ar    1  UNL1        0.0597
     21 S           5.8762   -2.4062   19.4575 S.2     1  UNL1       -0.0531
     22 C           3.8083   -1.5776   17.9801 C.3     1  UNL1        0.1625
     23 O           4.0346   -1.4429   16.5035 O.3     1  UNL1       -0.3750
     24 H           4.6939   -2.0941   16.2167 H       1  UNL1        0.2113
     25 C           2.8280   -0.6788   18.6738 C.ar    1  UNL1        0.0090
     26 C           2.1011   -1.1615   19.8938 C.ar    1  UNL1       -0.0007
     27 C           1.1208   -0.2626   20.5874 C.ar    1  UNL1        0.0112
     28 C           0.8673    1.1189   20.0610 C.ar    1  UNL1        0.0577
     29 CL         -0.1130    2.0176   20.7545 Cl      1  UNL1       -0.0822
     30 C           1.5943    1.6015   18.8408 C.ar    1  UNL1        0.0112
     31 C           2.5745    0.7027   18.1473 C.ar    1  UNL1       -0.0007
@<TRIPOS>BOND
     1    15    16    1
     2    16     3    1
     3     3     4   ar
     4     4     5   ar
     5     5     1    1
     6     1    17    1
     7    17    18   ar
     8    18    19   ar
     9    19    20   ar
    10    20    22    1
    11    22    23    1
    12    22    25    1
    13    25    26   ar
    14    26    27   ar
    15    27    28   ar
    16    28    29    1
    17    28    30   ar
    18    30    31   ar
    19    20    21   ar
    20     5     6   ar
    21     6     7   ar
    22     7     8   ar
    23     8     9    1
    24     9    10   ar
    25    10    11   ar
    26    11    12   ar
    27    12    13    1
    28    12    14   ar
    29     8     3   ar
    30    14     9   ar
    31    21    17   ar
    32    31    25   ar
    33     1     2    1
    34    23    24    1
@<TRIPOS>MOLECULE
*****
 31 34 0 0 0
SMALL
GASTEIGER

@<TRIPOS>ATOM
      1 N           6.1704   -0.0583   32.1467 N.pl3   1  UNL1       -0.2927
      2 H           6.1689    0.5561   31.3774 H       1  UNL1        0.1541
      3 C           3.5315    1.4530   34.6966 C.ar    1  UNL1        0.1559
      4 C           4.1870    1.0459   33.4103 C.ar    1  UNL1        0.0530
      5 C           5.5150    0.3488   33.4331 C.ar    1  UNL1        0.0529
      6 C           6.1875    0.0589   34.7421 C.ar    1  UNL1        0.0163
      7 C           5.5321    0.4660   36.0284 C.ar    1  UNL1        0.0219
      8 C           4.2041    1.1631   36.0056 C.ar    1  UNL1        0.0995
      9 N           3.5486    1.5702   37.2920 N.ar    1  UNL1       -0.2839
     10 C           4.0255    2.6454   38.2228 C.ar    1  UNL1        0.1826
     11 N           3.0728    2.7133   39.3795 N.ar    1  UNL1       -0.2280
     12 C           2.0071    1.6800   39.1635 C.ar    1  UNL1        0.0786
     13 C           0.8504    1.4020   40.0772 C.3     1  UNL1        0.0538
     14 C           2.3012    0.9735   37.8734 C.ar    1  UNL1        0.0963
     15 C           2.1289    3.6111   34.3427 C.3     1  UNL1        0.2525
     16 O           2.2035    2.1500   34.6739 O.3     1  UNL1       -0.4699
     17 C           6.8282   -1.4016   32.0324 C.ar    1  UNL1        0.1634
     18 N           8.2618   -1.7109   32.3471 N.ar    1  UNL1       -0.2227
     19 C           8.4874   -3.1719   32.0926 C.ar    1  UNL1        0.1057
     20 C           7.1933   -3.7654   31.6205 C.ar    1  UNL1        0.0597
     21 S           6.1678   -2.6713   31.5833 S.2     1  UNL1       -0.0531
     22 C           6.9646   -5.2010   31.2506 C.3     1  UNL1        0.1625
     23 O           6.5040   -6.1792   32.2903 O.3     1  UNL1       -0.3750
     24 H           6.4035   -5.7237   33.1408 H       1  UNL1        0.2113
     25 C           7.1967   -5.6584   29.8410 C.ar    1  UNL1        0.0090
     26 C           6.3251   -5.1459   28.7331 C.ar    1  UNL1       -0.0007
     27 C           6.5571   -5.6033   27.3235 C.ar    1  UNL1        0.0112
     28 C           7.6608   -6.5733   27.0218 C.ar    1  UNL1        0.0577
     29 CL          7.8929   -7.0307   25.6123 Cl      1  UNL1       -0.0822
     30 C           8.5325   -7.0858   28.1298 C.ar    1  UNL1        0.0112
     31 C           8.3004   -6.6284   29.5393 C.ar    1  UNL1       -0.0007
@<TRIPOS>BOND
     1    15    16    1
     2    16     3    1
     3     3     4   ar
     4     4     5   ar
     5     5     1    1
     6     1    17    1
     7    17    18   ar
     8    18    19   ar
     9    19    20   ar
    10    20    22    1
    11    22    23    1
    12    22    25    1
    13    25    26   ar
    14    26    27   ar
    15    27    28   ar
    16    28    29    1
    17    28    30   ar
    18    30    31   ar
    19    20    21   ar
    20     5     6   ar
    21     6     7   ar
    22     7     8   ar
    23     8     9    1
    24     9    10   ar
    25    10    11   ar
    26    11    12   ar
    27    12    13    1
    28    12    14   ar
    29     8     3   ar
    30    14     9   ar
    31    21    17   ar
    32    31    25   ar
    33     1     2    1
    34    23    24    1
@<TRIPOS>MOLECULE
*****
 31 34 0 0 0
SMALL
GASTEIGER

@<TRIPOS>ATOM
      1 N           0.7989    3.5697   20.3995 N.pl3   1  UNL1       -0.2927
      2 H           1.2484    4.2977   20.8864 H       1  UNL1        0.1541
      3 C           3.1754    0.4018   20.6579 C.ar    1  UNL1        0.1559
      4 C           2.4096    1.6341   21.0388 C.ar    1  UNL1        0.0530
      5 C           1.5647    2.3374   20.0184 C.ar    1  UNL1        0.0529
      6 C           1.4854    1.8086   18.6170 C.ar    1  UNL1        0.0163
      7 C           2.2512    0.5764   18.2360 C.ar    1  UNL1        0.0219
      8 C           3.0961   -0.1270   19.2565 C.ar    1  UNL1        0.0995
      9 N           3.8619   -1.3593   18.8754 N.ar    1  UNL1       -0.2839
     10 C           5.0903   -1.4034   18.0157 C.ar    1  UNL1        0.1826
     11 N           5.5212   -2.8352   17.8961 N.ar    1  UNL1       -0.2280
     12 C           4.5592   -3.6760   18.6821 C.ar    1  UNL1        0.0786
     13 C           4.6133   -5.1671   18.8358 C.3     1  UNL1        0.0538
     14 C           3.5337   -2.7638   19.2873 C.ar    1  UNL1        0.0963
     15 C           3.3751   -1.1752   22.7129 C.3     1  UNL1        0.2525
     16 O           4.0204   -0.3015   21.6783 O.3     1  UNL1       -0.4699
     17 C          -0.6518    3.6928   20.0385 C.ar    1  UNL1        0.1634
     18 N          -1.1960    4.1488   18.7172 N.ar    1  UNL1       -0.2227
     19 C          -2.6936    4.1193   18.7975 C.ar    1  UNL1        0.1057
     20 C          -3.0750    3.6450   20.1685 C.ar    1  UNL1        0.0597
     21 S          -1.8131    3.3814   20.9354 S.2     1  UNL1       -0.0531
     22 C          -4.4728    3.4658   20.6823 C.3     1  UNL1        0.1625
     23 O          -5.5092    2.8058   19.8220 O.3     1  UNL1       -0.3750
     24 H          -5.1134    2.5574   18.9720 H       1  UNL1        0.2113
     25 C          -4.8341    3.9466   22.0565 C.ar    1  UNL1        0.0090
     26 C          -5.2451    5.3736   22.2678 C.ar    1  UNL1       -0.0007
     27 C          -5.6065    5.8544   23.6420 C.ar    1  UNL1        0.0112
     28 C          -5.5569    4.9081   24.8048 C.ar    1  UNL1        0.0577
     29 CL         -5.9182    5.3889   26.1789 Cl      1  UNL1       -0.0822
     30 C          -5.1458    3.4811   24.5934 C.ar    1  UNL1        0.0112
     31 C          -4.7845    3.0003   23.2193 C.ar    1  UNL1       -0.0007
@<TRIPOS>BOND
     1    15    16    1
     2    16     3    1
     3     3     4   ar
     4     4     5   ar
     5     5     1    1
     6     1    17    1
     7    17    18   ar
     8    18    19   ar
     9    19    20   ar
    10    20    22    1
    11    22    23    1
    12    22    25    1
    13    25    26   ar
    14    26    27   ar
    15    27    28   ar
    16    28    29    1
    17    28    30   ar
    18    30    31   ar
    19    20    21   ar
    20     5     6   ar
    21     6     7   ar
    22     7     8   ar
    23     8     9    1
    24     9    10   ar
    25    10    11   ar
    26    11    12   ar
    27    12    13    1
    28    12    14   ar
    29     8     3   ar
    30    14     9   ar
    31    21    17   ar
    32    31    25   ar
    33     1     2    1
    34    23    24    1
@<TRIPOS>MOLECULE
*****
 31 34 0 0 0
SMALL
GASTEIGER

@<TRIPOS>ATOM
      1 N           7.6565   -4.6173   21.8994 N.pl3   1  UNL1       -0.2927
      2 H           8.1079   -5.3645   21.4443 H       1  UNL1        0.1541
      3 C           8.2061   -5.5886   25.7079 C.ar    1  UNL1        0.1559
      4 C           8.3215   -5.5961   24.2124 C.ar    1  UNL1        0.0530
      5 C           7.5411   -4.6098   23.3950 C.ar    1  UNL1        0.0529
      6 C           6.6453   -3.6160   24.0731 C.ar    1  UNL1        0.0163
      7 C           6.5299   -3.6085   25.5686 C.ar    1  UNL1        0.0219
      8 C           7.3103   -4.5948   26.3860 C.ar    1  UNL1        0.0995
      9 N           7.1948   -4.5873   27.8816 N.ar    1  UNL1       -0.2839
     10 C           6.7381   -5.7322   28.7364 C.ar    1  UNL1        0.1826
     11 N           6.7769   -5.2860   30.1680 N.ar    1  UNL1       -0.2280
     12 C           7.2575   -3.8654   30.1979 C.ar    1  UNL1        0.0786
     13 C           7.4466   -3.0243   31.4254 C.3     1  UNL1        0.0538
     14 C           7.5158   -3.4336   28.7848 C.ar    1  UNL1        0.0963
     15 C           8.7910   -8.0468   26.3123 C.3     1  UNL1        0.2525
     16 O           8.9865   -6.5749   26.5253 O.3     1  UNL1       -0.4699
     17 C           7.0843   -3.4863   21.0973 C.ar    1  UNL1        0.1634
     18 N           7.5597   -2.0637   21.1152 N.ar    1  UNL1       -0.2227
     19 C           6.7054   -1.2775   20.1655 C.ar    1  UNL1        0.1057
     20 C           5.7020   -2.2141   19.5606 C.ar    1  UNL1        0.0597
     21 S           5.9362   -3.5792   20.1365 S.2     1  UNL1       -0.0531
     22 C           4.6493   -1.8496   18.5562 C.3     1  UNL1        0.1625
     23 O           4.8033   -2.2664   17.1235 O.3     1  UNL1       -0.3750
     24 H           5.6319   -2.7595   17.0175 H       1  UNL1        0.2113
     25 C           3.4425   -1.0684   18.9844 C.ar    1  UNL1        0.0090
     26 C           2.8781   -0.0078   18.0863 C.ar    1  UNL1       -0.0007
     27 C           1.6713    0.7734   18.5145 C.ar    1  UNL1        0.0112
     28 C           1.0288    0.4940   19.8408 C.ar    1  UNL1        0.0577
     29 CL         -0.1779    1.2751   20.2690 Cl      1  UNL1       -0.0822
     30 C           1.5932   -0.5667   20.7389 C.ar    1  UNL1        0.0112
     31 C           2.7999   -1.3479   20.3107 C.ar    1  UNL1       -0.0007
@<TRIPOS>BOND
     1    15    16    1
     2    16     3    1
     3     3     4   ar
     4     4     5   ar
     5     5     1    1
     6     1    17    1
     7    17    18   ar
     8    18    19   ar
     9    19    20   ar
    10    20    22    1
    11    22    23    1
    12    22    25    1
    13    25    26   ar
    14    26    27   ar
    15    27    28   ar
    16    28    29    1
    17    28    30   ar
    18    30    31   ar
    19    20    21   ar
    20     5     6   ar
    21     6     7   ar
    22     7     8   ar
    23     8     9    1
    24     9    10   ar
    25    10    11   ar
    26    11    12   ar
    27    12    13    1
    28    12    14   ar
    29     8     3   ar
    30    14     9   ar
    31    21    17   ar
    32    31    25   ar
    33     1     2    1
    34    23    24    1
@<TRIPOS>MOLECULE
*****
 31 34 0 0 0
SMALL
GASTEIGER

@<TRIPOS>ATOM
      1 N           0.6052    1.6904   18.4645 N.pl3   1  UNL1       -0.2927
      2 H           0.1970    1.7687   17.5720 H       1  UNL1        0.1541
      3 C           3.6839   -0.7892   18.1133 C.ar    1  UNL1        0.1559
      4 C           2.7196    0.3229   17.8246 C.ar    1  UNL1        0.0530
      5 C           1.5696    0.5783   18.7532 C.ar    1  UNL1        0.0529
      6 C           1.3839   -0.2784   19.9704 C.ar    1  UNL1        0.0163
      7 C           2.3482   -1.3904   20.2590 C.ar    1  UNL1        0.0219
      8 C           3.4982   -1.6458   19.3305 C.ar    1  UNL1        0.0995
      9 N           4.4626   -2.7580   19.6192 N.ar    1  UNL1       -0.2839
     10 C           4.2565   -4.2089   19.2994 C.ar    1  UNL1        0.1826
     11 N           5.4688   -4.9620   19.7609 N.ar    1  UNL1       -0.2280
     12 C           6.4243   -3.9765   20.3660 C.ar    1  UNL1        0.0786
     13 C           7.7660   -4.2969   20.9551 C.3     1  UNL1        0.0538
     14 C           5.8023   -2.6143   20.2783 C.ar    1  UNL1        0.0963
     15 C           6.0827   -0.2208   17.2932 C.3     1  UNL1        0.2525
     16 O           4.8339   -1.0446   17.1847 O.3     1  UNL1       -0.4699
     17 C           0.2628    2.6831   19.5356 C.ar    1  UNL1        0.1634
     18 N           0.6823    4.1229   19.5701 N.ar    1  UNL1       -0.2227
     19 C           0.1195    4.7400   20.8161 C.ar    1  UNL1        0.1057
     20 C          -0.6477    3.6816   21.5517 C.ar    1  UNL1        0.0597
     21 S          -0.5591    2.4104   20.7604 S.2     1  UNL1       -0.0531
     22 C          -1.3757    3.8626   22.8507 C.3     1  UNL1        0.1625
     23 O          -0.6052    3.9767   24.1326 O.3     1  UNL1       -0.3750
     24 H           0.3445    3.9140   23.9457 H       1  UNL1        0.2113
     25 C          -2.8741    3.9295   22.8677 C.ar    1  UNL1        0.0090
     26 C          -3.6184    4.3845   21.6475 C.ar    1  UNL1       -0.0007
     27 C          -5.1169    4.4514   21.6645 C.ar    1  UNL1        0.0112
     28 C          -5.8710    4.0633   22.9018 C.ar    1  UNL1        0.0577
     29 CL         -7.3693    4.1302   22.9188 Cl      1  UNL1       -0.0822
     30 C          -5.1265    3.6083   24.1219 C.ar    1  UNL1        0.0112
     31 C          -3.6282    3.5414   24.1049 C.ar    1  UNL1       -0.0007
@<TRIPOS>BOND
     1    15    16    1
     2    16     3    1
     3     3     4   ar
     4     4     5   ar
     5     5     1    1
     6     1    17    1
     7    17    18   ar
     8    18    19   ar
     9    19    20   ar
    10    20    22    1
    11    22    23    1
    12    22    25    1
    13    25    26   ar
    14    26    27   ar
    15    27    28   ar
    16    28    29    1
    17    28    30   ar
    18    30    31   ar
    19    20    21   ar
    20     5     6   ar
    21     6     7   ar
    22     7     8   ar
    23     8     9    1
    24     9    10   ar
    25    10    11   ar
    26    11    12   ar
    27    12    13    1
    28    12    14   ar
    29     8     3   ar
    30    14     9   ar
    31    21    17   ar
    32    31    25   ar
    33     1     2    1
    34    23    24    1
@<TRIPOS>MOLECULE
*****
 31 34 0 0 0
SMALL
GASTEIGER

@<TRIPOS>ATOM
      1 N           8.2005   -3.3245   26.3505 N.pl3   1  UNL1       -0.2927
      2 H           9.0694   -2.8689   26.4327 H       1  UNL1        0.1541
      3 C           7.1183   -4.0008   22.5926 C.ar    1  UNL1        0.1559
      4 C           7.8819   -4.0691   23.8818 C.ar    1  UNL1        0.0530
      5 C           7.4368   -3.2562   25.0612 C.ar    1  UNL1        0.0529
      6 C           6.2279   -2.3750   24.9515 C.ar    1  UNL1        0.0163
      7 C           5.4642   -2.3067   23.6623 C.ar    1  UNL1        0.0219
      8 C           5.9094   -3.1196   22.4829 C.ar    1  UNL1        0.0995
      9 N           5.1456   -3.0513   21.1936 N.ar    1  UNL1       -0.2839
     10 C           4.2344   -4.1122   20.6514 C.ar    1  UNL1        0.1826
     11 N           3.6846   -3.6266   19.3429 N.ar    1  UNL1       -0.2280
     12 C           4.2561   -2.2656   19.0765 C.ar    1  UNL1        0.0786
     13 C           3.9742   -1.4103   17.8769 C.3     1  UNL1        0.0538
     14 C           5.1591   -1.9100   20.2203 C.ar    1  UNL1        0.0963
     15 C           8.9104   -5.4736   21.4226 C.3     1  UNL1        0.2525
     16 O           7.5634   -4.8137   21.4132 O.3     1  UNL1       -0.4699
     17 C           7.6404   -4.0870   27.5145 C.ar    1  UNL1        0.1634
     18 N           6.8933   -5.3856   27.4406 N.ar    1  UNL1       -0.2227
     19 C           6.5202   -5.7860   28.8372 C.ar    1  UNL1        0.1057
     20 C           7.0367   -4.7347   29.7743 C.ar    1  UNL1        0.0597
     21 S           7.7290   -3.6848   28.9568 S.2     1  UNL1       -0.0531
     22 C           6.8872   -4.7337   31.2668 C.3     1  UNL1        0.1625
     23 O           6.6473   -6.0216   31.9974 O.3     1  UNL1       -0.3750
     24 H           6.6164   -6.7532   31.3613 H       1  UNL1        0.2113
     25 C           6.9776   -3.4448   32.0288 C.ar    1  UNL1        0.0090
     26 C           5.7262   -2.7377   32.4576 C.ar    1  UNL1       -0.0007
     27 C           5.8166   -1.4487   33.2195 C.ar    1  UNL1        0.0112
     28 C           7.1584   -0.8669   33.5526 C.ar    1  UNL1        0.0577
     29 CL          7.2487    0.4219   34.3145 Cl      1  UNL1       -0.0822
     30 C           8.4098   -1.5741   33.1238 C.ar    1  UNL1        0.0112
     31 C           8.3194   -2.8629   32.3619 C.ar    1  UNL1       -0.0007
@<TRIPOS>BOND
     1    15    16    1
     2    16     3    1
     3     3     4   ar
     4     4     5   ar
     5     5     1    1
     6     1    17    1
     7    17    18   ar
     8    18    19   ar
     9    19    20   ar
    10    20    22    1
    11    22    23    1
    12    22    25    1
    13    25    26   ar
    14    26    27   ar
    15    27    28   ar
    16    28    29    1
    17    28    30   ar
    18    30    31   ar
    19    20    21   ar
    20     5     6   ar
    21     6     7   ar
    22     7     8   ar
    23     8     9    1
    24     9    10   ar
    25    10    11   ar
    26    11    12   ar
    27    12    13    1
    28    12    14   ar
    29     8     3   ar
    30    14     9   ar
    31    21    17   ar
    32    31    25   ar
    33     1     2    1
    34    23    24    1
