@<TRIPOS>MOLECULE
*****
 25 27 0 0 0
SMALL
GASTEIGER

@<TRIPOS>ATOM
      1 C          -8.8283  -19.4606   21.0163 C.ar    1  UNL1        0.1386
      2 C          -7.9785  -19.4745   22.2521 C.ar    1  UNL1        0.0369
      3 C          -6.4844  -19.4103   22.1357 C.ar    1  UNL1        0.0032
      4 C          -5.8402  -19.3320   20.7833 C.ar    1  UNL1        0.0019
      5 C          -6.6901  -19.3181   19.5474 C.ar    1  UNL1        0.0032
      6 C          -8.1842  -19.3823   19.6639 C.ar    1  UNL1        0.0369
      7 C          -4.3461  -19.2678   20.6669 C.ar    1  UNL1        0.0257
      8 C          -3.4840  -19.8149   21.7656 C.ar    1  UNL1        0.1201
      9 N          -1.9898  -19.7507   21.6492 N.ar    1  UNL1       -0.1687
     10 N          -1.3579  -19.1392   20.4340 N.ar    1  UNL1       -0.2421
     11 C          -2.2201  -18.5920   19.3352 C.ar    1  UNL1        0.2733
     12 O          -1.5882  -17.9805   18.1200 O.2     1  UNL1       -0.2658
     13 C          -3.7141  -18.6563   19.4517 C.ar    1  UNL1        0.0636
     14 H          -0.3773  -19.0970   20.3575 H       1  UNL1        0.1921
     15 O         -10.3225  -19.5249   21.1327 O.3     1  UNL1       -0.4754
     16 C         -11.1806  -18.6529   20.2648 C.3     1  UNL1        0.2067
     17 C         -11.4890  -16.1378   19.6909 C.3     1  UNL1        0.0053
     18 C         -11.5032  -17.2524   20.6946 C.3     1  UNL1        0.0597
     19 C         -11.8399  -16.9665   22.1281 C.3     1  UNL1        0.0757
     20 N         -10.7755  -17.0575   23.1810 N.3     1  UNL1       -0.2738
     21 C          -9.5821  -16.1576   23.3085 C.3     1  UNL1        0.0721
     22 C          -8.7866  -16.6082   24.4976 C.3     1  UNL1        0.0187
     23 C          -9.4884  -17.7866   25.1051 C.3     1  UNL1        0.0174
     24 C         -10.7175  -18.0643   24.2914 C.3     1  UNL1        0.0576
     25 C         -11.7137  -19.1569   24.5439 C.3     1  UNL1        0.0173
@<TRIPOS>BOND
     1    18    17    1
     2    18    16    1
     3    16    15    1
     4    15     1    1
     5     1     2   ar
     6     2     3   ar
     7     3     4   ar
     8     4     7    1
     9     7     8   ar
    10     8     9   ar
    11     9    10   ar
    12    10    11   ar
    13    11    12    2
    14    11    13   ar
    15     4     5   ar
    16     5     6   ar
    17    18    19    1
    18    19    20    1
    19    20    21    1
    20    21    22    1
    21    22    23    1
    22    23    24    1
    23    24    25    1
    24     6     1   ar
    25    24    20    1
    26    13     7   ar
    27    10    14    1
@<TRIPOS>MOLECULE
*****
 25 27 0 0 0
SMALL
GASTEIGER

@<TRIPOS>ATOM
      1 C          -8.6097  -19.5945   21.3037 C.ar    1  UNL1        0.1386
      2 C          -7.6808  -19.7844   22.4660 C.ar    1  UNL1        0.0369
      3 C          -6.2000  -19.6418   22.2738 C.ar    1  UNL1        0.0032
      4 C          -5.6482  -19.3093   20.9192 C.ar    1  UNL1        0.0019
      5 C          -6.5771  -19.1195   19.7568 C.ar    1  UNL1        0.0032
      6 C          -8.0578  -19.2620   19.9491 C.ar    1  UNL1        0.0369
      7 C          -4.1673  -19.1668   20.7269 C.ar    1  UNL1        0.0257
      8 C          -3.2270  -19.5582   21.8280 C.ar    1  UNL1        0.1201
      9 N          -1.7461  -19.4156   21.6358 N.ar    1  UNL1       -0.1687
     10 N          -1.2058  -18.8816   20.3424 N.ar    1  UNL1       -0.2421
     11 C          -2.1462  -18.4902   19.2413 C.ar    1  UNL1        0.2733
     12 O          -1.6058  -17.9561   17.9479 O.2     1  UNL1       -0.2658
     13 C          -3.6269  -18.6327   19.4336 C.ar    1  UNL1        0.0636
     14 H          -0.2339  -18.7880   20.2162 H       1  UNL1        0.1921
     15 O         -10.0905  -19.7371   21.4959 O.3     1  UNL1       -0.4754
     16 C         -10.6590  -19.8590   22.8786 C.3     1  UNL1        0.2067
     17 C         -12.3537  -17.9530   23.3738 C.3     1  UNL1        0.0053
     18 C         -11.0410  -18.6267   23.6439 C.3     1  UNL1        0.0597
     19 C         -10.1103  -18.0682   24.6792 C.3     1  UNL1        0.0757
     20 N          -9.1703  -16.9557   24.3206 N.3     1  UNL1       -0.2738
     21 C          -8.8800  -16.4587   22.9354 C.3     1  UNL1        0.0721
     22 C          -7.8858  -15.3406   23.0429 C.3     1  UNL1        0.0187
     23 C          -7.5617  -15.1467   24.4946 C.3     1  UNL1        0.0174
     24 C          -8.3556  -16.1448   25.2842 C.3     1  UNL1        0.0576
     25 C          -8.3378  -16.3040   26.7756 C.3     1  UNL1        0.0173
@<TRIPOS>BOND
     1    18    17    1
     2    18    16    1
     3    16    15    1
     4    15     1    1
     5     1     2   ar
     6     2     3   ar
     7     3     4   ar
     8     4     7    1
     9     7     8   ar
    10     8     9   ar
    11     9    10   ar
    12    10    11   ar
    13    11    12    2
    14    11    13   ar
    15     4     5   ar
    16     5     6   ar
    17    18    19    1
    18    19    20    1
    19    20    21    1
    20    21    22    1
    21    22    23    1
    22    23    24    1
    23    24    25    1
    24     6     1   ar
    25    24    20    1
    26    13     7   ar
    27    10    14    1
@<TRIPOS>MOLECULE
*****
 25 27 0 0 0
SMALL
GASTEIGER

@<TRIPOS>ATOM
      1 C         -10.0850  -19.4890   21.1100 C.ar    1  UNL1        0.1386
      2 C          -9.3824  -19.7362   22.4120 C.ar    1  UNL1        0.0369
      3 C          -7.8848  -19.8094   22.4539 C.ar    1  UNL1        0.0032
      4 C          -7.0898  -19.6354   21.1939 C.ar    1  UNL1        0.0019
      5 C          -7.7924  -19.3882   19.8919 C.ar    1  UNL1        0.0032
      6 C          -9.2900  -19.3150   19.8499 C.ar    1  UNL1        0.0369
      7 C          -5.5921  -19.7085   21.2359 C.ar    1  UNL1        0.0257
      8 C          -4.8626  -20.6655   20.3404 C.ar    1  UNL1        0.1201
      9 N          -3.3649  -20.7387   20.3824 N.ar    1  UNL1       -0.1687
     10 N          -2.5969  -19.8549   21.3200 N.ar    1  UNL1       -0.2421
     11 C          -3.3265  -18.8979   22.2155 C.ar    1  UNL1        0.2733
     12 O          -2.5584  -18.0141   23.1530 O.2     1  UNL1       -0.2658
     13 C          -4.8241  -18.8247   22.1735 C.ar    1  UNL1        0.0636
     14 H          -1.6139  -19.9029   21.3476 H       1  UNL1        0.1921
     15 O         -11.5827  -19.4158   21.0680 O.3     1  UNL1       -0.4754
     16 C         -12.2733  -18.0924   21.2143 C.3     1  UNL1        0.2067
     17 C         -13.2564  -18.0461   23.6187 C.3     1  UNL1        0.0053
     18 C         -12.3760  -17.4450   22.5636 C.3     1  UNL1        0.0597
     19 C         -11.5982  -16.1966   22.8576 C.3     1  UNL1        0.0757
     20 N         -10.1423  -16.2850   23.2075 N.3     1  UNL1       -0.2738
     21 C          -9.5770  -16.7415   24.5198 C.3     1  UNL1        0.0721
     22 C          -8.0814  -16.6710   24.4300 C.3     1  UNL1        0.0187
     23 C          -7.7223  -16.1709   23.0621 C.3     1  UNL1        0.0174
     24 C          -8.9960  -15.9323   22.3066 C.3     1  UNL1        0.0576
     25 C          -9.1043  -15.4293   20.8977 C.3     1  UNL1        0.0173
@<TRIPOS>BOND
     1    18    17    1
     2    18    16    1
     3    16    15    1
     4    15     1    1
     5     1     2   ar
     6     2     3   ar
     7     3     4   ar
     8     4     7    1
     9     7     8   ar
    10     8     9   ar
    11     9    10   ar
    12    10    11   ar
    13    11    12    2
    14    11    13   ar
    15     4     5   ar
    16     5     6   ar
    17    18    19    1
    18    19    20    1
    19    20    21    1
    20    21    22    1
    21    22    23    1
    22    23    24    1
    23    24    25    1
    24     6     1   ar
    25    24    20    1
    26    13     7   ar
    27    10    14    1
@<TRIPOS>MOLECULE
*****
 25 27 0 0 0
SMALL
GASTEIGER

@<TRIPOS>ATOM
      1 C          -7.8266  -18.4208   20.7164 C.ar    1  UNL1        0.1386
      2 C          -8.6945  -17.2644   21.1157 C.ar    1  UNL1        0.0369
      3 C          -8.3908  -16.4959   22.3674 C.ar    1  UNL1        0.0032
      4 C          -7.2191  -16.8837   23.2200 C.ar    1  UNL1        0.0019
      5 C          -6.3512  -18.0401   22.8207 C.ar    1  UNL1        0.0032
      6 C          -6.6550  -18.8086   21.5689 C.ar    1  UNL1        0.0369
      7 C          -6.9154  -16.1151   24.4718 C.ar    1  UNL1        0.0257
      8 C          -5.5530  -15.5215   24.6755 C.ar    1  UNL1        0.1201
      9 N          -5.2493  -14.7529   25.9274 N.ar    1  UNL1       -0.1687
     10 N          -6.3080  -14.5779   26.9755 N.ar    1  UNL1       -0.2421
     11 C          -7.6704  -15.1715   26.7717 C.ar    1  UNL1        0.2733
     12 O          -8.7292  -14.9964   27.8198 O.2     1  UNL1       -0.2658
     13 C          -7.9741  -15.9400   25.5199 C.ar    1  UNL1        0.0636
     14 H          -6.1087  -14.0734   27.7971 H       1  UNL1        0.1921
     15 O          -8.1304  -19.1894   19.4646 O.3     1  UNL1       -0.4754
     16 C          -9.4672  -19.8480   19.2946 C.3     1  UNL1        0.2067
     17 C         -11.3343  -18.0692   19.6109 C.3     1  UNL1        0.0053
     18 C         -10.6577  -19.3343   20.0489 C.3     1  UNL1        0.0597
     19 C         -11.1716  -20.0857   21.2411 C.3     1  UNL1        0.0757
     20 N         -10.8201  -19.6271   22.6253 N.3     1  UNL1       -0.2738
     21 C          -9.6666  -20.1164   23.4499 C.3     1  UNL1        0.0721
     22 C          -9.6939  -19.3904   24.7622 C.3     1  UNL1        0.0187
     23 C         -10.8643  -18.4522   24.7485 C.3     1  UNL1        0.0174
     24 C         -11.5603  -18.5985   23.4279 C.3     1  UNL1        0.0576
     25 C         -12.7820  -17.8480   22.9872 C.3     1  UNL1        0.0173
@<TRIPOS>BOND
     1    18    17    1
     2    18    16    1
     3    16    15    1
     4    15     1    1
     5     1     2   ar
     6     2     3   ar
     7     3     4   ar
     8     4     7    1
     9     7     8   ar
    10     8     9   ar
    11     9    10   ar
    12    10    11   ar
    13    11    12    2
    14    11    13   ar
    15     4     5   ar
    16     5     6   ar
    17    18    19    1
    18    19    20    1
    19    20    21    1
    20    21    22    1
    21    22    23    1
    22    23    24    1
    23    24    25    1
    24     6     1   ar
    25    24    20    1
    26    13     7   ar
    27    10    14    1
@<TRIPOS>MOLECULE
*****
 25 27 0 0 0
SMALL
GASTEIGER

@<TRIPOS>ATOM
      1 C          -6.2430  -20.3269   21.9392 C.ar    1  UNL1        0.1386
      2 C          -5.5010  -19.1670   22.5342 C.ar    1  UNL1        0.0369
      3 C          -4.2693  -18.6393   21.8601 C.ar    1  UNL1        0.0032
      4 C          -3.7797  -19.2714   20.5910 C.ar    1  UNL1        0.0019
      5 C          -4.5217  -20.4312   19.9959 C.ar    1  UNL1        0.0032
      6 C          -5.7534  -20.9589   20.6700 C.ar    1  UNL1        0.0369
      7 C          -2.5480  -18.7435   19.9169 C.ar    1  UNL1        0.0257
      8 C          -2.5991  -18.3347   18.4746 C.ar    1  UNL1        0.1201
      9 N          -1.3674  -17.8069   17.8005 N.ar    1  UNL1       -0.1687
     10 N          -0.0846  -17.6879   18.5688 N.ar    1  UNL1       -0.2421
     11 C          -0.0335  -18.0967   20.0111 C.ar    1  UNL1        0.2733
     12 O           1.2493  -17.9778   20.7794 O.2     1  UNL1       -0.2658
     13 C          -1.2652  -18.6245   20.6851 C.ar    1  UNL1        0.0636
     14 H           0.7238  -17.3415   18.1264 H       1  UNL1        0.1921
     15 O          -7.4747  -20.8547   22.6133 O.3     1  UNL1       -0.4754
     16 C          -8.5217  -19.9041   23.1135 C.3     1  UNL1        0.2067
     17 C          -9.1633  -19.2399   20.6851 C.3     1  UNL1        0.0053
     18 C          -9.2011  -18.9669   22.1595 C.3     1  UNL1        0.0597
     19 C          -9.9184  -17.7567   22.6800 C.3     1  UNL1        0.0757
     20 N         -11.3109  -17.8857   23.2224 N.3     1  UNL1       -0.2738
     21 C         -11.6985  -18.5590   24.5055 C.3     1  UNL1        0.0721
     22 C         -13.1875  -18.4535   24.6530 C.3     1  UNL1        0.0187
     23 C         -13.7202  -17.7150   23.4609 C.3     1  UNL1        0.0174
     24 C         -12.5604  -17.3641   22.5768 C.3     1  UNL1        0.0576
     25 C         -12.6366  -16.6219   21.2755 C.3     1  UNL1        0.0173
@<TRIPOS>BOND
     1    18    17    1
     2    18    16    1
     3    16    15    1
     4    15     1    1
     5     1     2   ar
     6     2     3   ar
     7     3     4   ar
     8     4     7    1
     9     7     8   ar
    10     8     9   ar
    11     9    10   ar
    12    10    11   ar
    13    11    12    2
    14    11    13   ar
    15     4     5   ar
    16     5     6   ar
    17    18    19    1
    18    19    20    1
    19    20    21    1
    20    21    22    1
    21    22    23    1
    22    23    24    1
    23    24    25    1
    24     6     1   ar
    25    24    20    1
    26    13     7   ar
    27    10    14    1
@<TRIPOS>MOLECULE
*****
 25 27 0 0 0
SMALL
GASTEIGER

@<TRIPOS>ATOM
      1 C         -10.3783  -15.9512   23.0338 C.ar    1  UNL1        0.1386
      2 C          -9.6268  -16.2671   24.2929 C.ar    1  UNL1        0.0369
      3 C          -8.2249  -16.7952   24.2170 C.ar    1  UNL1        0.0032
      4 C          -7.5746  -17.0074   22.8821 C.ar    1  UNL1        0.0019
      5 C          -8.3261  -16.6915   21.6230 C.ar    1  UNL1        0.0032
      6 C          -9.7280  -16.1634   21.6988 C.ar    1  UNL1        0.0369
      7 C          -6.1726  -17.5356   22.8063 C.ar    1  UNL1        0.0257
      8 C          -5.0930  -16.9206   23.6466 C.ar    1  UNL1        0.1201
      9 N          -3.6911  -17.4487   23.5708 N.ar    1  UNL1       -0.1687
     10 N          -3.3688  -18.5918   22.6546 N.ar    1  UNL1       -0.2421
     11 C          -4.4485  -19.2068   21.8143 C.ar    1  UNL1        0.2733
     12 O          -4.1262  -20.3500   20.8981 O.2     1  UNL1       -0.2658
     13 C          -5.8503  -18.6787   21.8901 C.ar    1  UNL1        0.0636
     14 H          -2.4487  -18.9385   22.6049 H       1  UNL1        0.1921
     15 O         -11.7803  -15.4231   23.1096 O.3     1  UNL1       -0.4754
     16 C         -12.9177  -16.2339   22.5630 C.3     1  UNL1        0.2067
     17 C         -14.0198  -17.9615   24.1602 C.3     1  UNL1        0.0053
     18 C         -13.1092  -17.6533   23.0088 C.3     1  UNL1        0.0597
     19 C         -12.3901  -18.7645   22.3030 C.3     1  UNL1        0.0757
     20 N         -11.1651  -19.3744   22.9173 N.3     1  UNL1       -0.2738
     21 C         -10.9527  -19.6458   24.3772 C.3     1  UNL1        0.0721
     22 C          -9.5938  -20.2591   24.5418 C.3     1  UNL1        0.0187
     23 C          -8.9662  -20.3666   23.1836 C.3     1  UNL1        0.0174
     24 C          -9.9374  -19.8198   22.1796 C.3     1  UNL1        0.0576
     25 C          -9.7191  -19.7336   20.6981 C.3     1  UNL1        0.0173
@<TRIPOS>BOND
     1    18    17    1
     2    18    16    1
     3    16    15    1
     4    15     1    1
     5     1     2   ar
     6     2     3   ar
     7     3     4   ar
     8     4     7    1
     9     7     8   ar
    10     8     9   ar
    11     9    10   ar
    12    10    11   ar
    13    11    12    2
    14    11    13   ar
    15     4     5   ar
    16     5     6   ar
    17    18    19    1
    18    19    20    1
    19    20    21    1
    20    21    22    1
    21    22    23    1
    22    23    24    1
    23    24    25    1
    24     6     1   ar
    25    24    20    1
    26    13     7   ar
    27    10    14    1
@<TRIPOS>MOLECULE
*****
 25 27 0 0 0
SMALL
GASTEIGER

@<TRIPOS>ATOM
      1 C          -5.9950  -19.7715   21.1644 C.ar    1  UNL1        0.1386
      2 C          -6.6863  -20.1406   22.4434 C.ar    1  UNL1        0.0369
      3 C          -8.1208  -19.7585   22.6578 C.ar    1  UNL1        0.0032
      4 C          -8.8641  -19.0073   21.5932 C.ar    1  UNL1        0.0019
      5 C          -8.1727  -18.6382   20.3142 C.ar    1  UNL1        0.0032
      6 C          -6.7382  -19.0203   20.0998 C.ar    1  UNL1        0.0369
      7 C         -10.2987  -18.6252   21.8077 C.ar    1  UNL1        0.0257
      8 C         -11.1157  -18.1053   20.6622 C.ar    1  UNL1        0.1201
      9 N         -12.5503  -17.7232   20.8766 N.ar    1  UNL1       -0.1687
     10 N         -13.1678  -17.8610   22.2367 N.ar    1  UNL1       -0.2421
     11 C         -12.3508  -18.3809   23.3822 C.ar    1  UNL1        0.2733
     12 O         -12.9683  -18.5186   24.7422 O.2     1  UNL1       -0.2658
     13 C         -10.9162  -18.7629   23.1677 C.ar    1  UNL1        0.0636
     14 H         -14.1094  -17.6102   22.3774 H       1  UNL1        0.1921
     15 O          -4.5603  -20.1536   20.9500 O.3     1  UNL1       -0.4754
     16 C          -3.5308  -19.8144   21.9867 C.3     1  UNL1        0.2067
     17 C          -4.1845  -17.7879   23.4753 C.3     1  UNL1        0.0053
     18 C          -3.3259  -18.3875   22.4015 C.3     1  UNL1        0.0597
     19 C          -2.2622  -17.5603   21.7424 C.3     1  UNL1        0.0757
     20 N          -2.1243  -17.5678   20.2488 N.3     1  UNL1       -0.2738
     21 C          -3.2354  -17.3751   19.2597 C.3     1  UNL1        0.0721
     22 C          -2.6488  -17.4575   17.8816 C.3     1  UNL1        0.0187
     23 C          -1.1751  -17.7010   18.0190 C.3     1  UNL1        0.0174
     24 C          -0.8509  -17.7692   19.4820 C.3     1  UNL1        0.0576
     25 C           0.5080  -17.9985   20.0742 C.3     1  UNL1        0.0173
@<TRIPOS>BOND
     1    18    17    1
     2    18    16    1
     3    16    15    1
     4    15     1    1
     5     1     2   ar
     6     2     3   ar
     7     3     4   ar
     8     4     7    1
     9     7     8   ar
    10     8     9   ar
    11     9    10   ar
    12    10    11   ar
    13    11    12    2
    14    11    13   ar
    15     4     5   ar
    16     5     6   ar
    17    18    19    1
    18    19    20    1
    19    20    21    1
    20    21    22    1
    21    22    23    1
    22    23    24    1
    23    24    25    1
    24     6     1   ar
    25    24    20    1
    26    13     7   ar
    27    10    14    1
@<TRIPOS>MOLECULE
*****
 25 27 0 0 0
SMALL
GASTEIGER

@<TRIPOS>ATOM
      1 C          -6.3068  -19.8323   21.2243 C.ar    1  UNL1        0.1386
      2 C          -7.0952  -19.1485   20.1469 C.ar    1  UNL1        0.0369
      3 C          -8.5235  -18.7624   20.3931 C.ar    1  UNL1        0.0032
      4 C          -9.1635  -19.0600   21.7166 C.ar    1  UNL1        0.0019
      5 C          -8.3752  -19.7438   22.7940 C.ar    1  UNL1        0.0032
      6 C          -6.9468  -20.1300   22.5479 C.ar    1  UNL1        0.0369
      7 C         -10.5920  -18.6738   21.9627 C.ar    1  UNL1        0.0257
      8 C         -11.4335  -18.1546   20.8348 C.ar    1  UNL1        0.1201
      9 N         -12.8619  -17.7684   21.0809 N.ar    1  UNL1       -0.1687
     10 N         -13.4488  -17.9015   22.4550 N.ar    1  UNL1       -0.2421
     11 C         -12.6071  -18.4207   23.5829 C.ar    1  UNL1        0.2733
     12 O         -13.1939  -18.5537   24.9569 O.2     1  UNL1       -0.2658
     13 C         -11.1788  -18.8069   23.3367 C.ar    1  UNL1        0.0636
     14 H         -14.3863  -17.6480   22.6165 H       1  UNL1        0.1921
     15 O          -4.8784  -20.2185   20.9782 O.3     1  UNL1       -0.4754
     16 C          -3.8060  -19.7694   21.9260 C.3     1  UNL1        0.2067
     17 C          -3.0019  -17.3939   21.2474 C.3     1  UNL1        0.0053
     18 C          -3.6474  -18.3118   22.2428 C.3     1  UNL1        0.0597
     19 C          -4.1343  -17.7721   23.5549 C.3     1  UNL1        0.0757
     20 N          -5.3183  -16.8520   23.5946 N.3     1  UNL1       -0.2738
     21 C          -6.3606  -16.7098   22.5253 C.3     1  UNL1        0.0721
     22 C          -7.3543  -15.6825   22.9803 C.3     1  UNL1        0.0187
     23 C          -6.9262  -15.1898   24.3309 C.3     1  UNL1        0.0174
     24 C          -5.6678  -15.9126   24.7105 C.3     1  UNL1        0.0576
     25 C          -4.8948  -15.7284   25.9827 C.3     1  UNL1        0.0173
@<TRIPOS>BOND
     1    18    17    1
     2    18    16    1
     3    16    15    1
     4    15     1    1
     5     1     2   ar
     6     2     3   ar
     7     3     4   ar
     8     4     7    1
     9     7     8   ar
    10     8     9   ar
    11     9    10   ar
    12    10    11   ar
    13    11    12    2
    14    11    13   ar
    15     4     5   ar
    16     5     6   ar
    17    18    19    1
    18    19    20    1
    19    20    21    1
    20    21    22    1
    21    22    23    1
    22    23    24    1
    23    24    25    1
    24     6     1   ar
    25    24    20    1
    26    13     7   ar
    27    10    14    1
@<TRIPOS>MOLECULE
*****
 25 27 0 0 0
SMALL
GASTEIGER

@<TRIPOS>ATOM
      1 C           0.6563    1.1361   21.8291 C.ar    1  UNL1        0.1386
      2 C           1.8895    0.5678   22.4664 C.ar    1  UNL1        0.0369
      3 C           2.7761   -0.3594   21.6890 C.ar    1  UNL1        0.0032
      4 C           2.4294   -0.7182   20.2744 C.ar    1  UNL1        0.0019
      5 C           1.1962   -0.1499   19.6372 C.ar    1  UNL1        0.0032
      6 C           0.3096    0.7773   20.4145 C.ar    1  UNL1        0.0369
      7 C           3.3161   -1.6455   19.4971 C.ar    1  UNL1        0.0257
      8 C           4.1486   -1.1157   18.3674 C.ar    1  UNL1        0.1201
      9 N           5.0352   -2.0429   17.5901 N.ar    1  UNL1       -0.1687
     10 N           5.0893   -3.4999   17.9425 N.ar    1  UNL1       -0.2421
     11 C           4.2567   -4.0297   19.0722 C.ar    1  UNL1        0.2733
     12 O           4.3108   -5.4867   19.4247 O.2     1  UNL1       -0.2658
     13 C           3.3702   -3.1025   19.8495 C.ar    1  UNL1        0.0636
     14 H           5.6712   -4.1085   17.4323 H       1  UNL1        0.1921
     15 O          -0.2304    2.0633   22.6065 O.3     1  UNL1       -0.4754
     16 C           0.2147    2.5832   23.9412 C.3     1  UNL1        0.2067
     17 C          -1.8484    3.1221   25.4256 C.3     1  UNL1        0.0053
     18 C          -0.6115    2.3149   25.1641 C.3     1  UNL1        0.0597
     19 C          -0.2008    1.2392   26.1255 C.3     1  UNL1        0.0757
     20 N           0.1088    1.5861   27.5516 N.3     1  UNL1       -0.2738
     21 C           0.9313    2.7510   28.0171 C.3     1  UNL1        0.0721
     22 C           0.9810    2.7139   29.5158 C.3     1  UNL1        0.0187
     23 C           0.1891    1.5261   29.9766 C.3     1  UNL1        0.0174
     24 C          -0.3499    0.8292   28.7626 C.3     1  UNL1        0.0576
     25 C          -1.1986   -0.4076   28.7602 C.3     1  UNL1        0.0173
@<TRIPOS>BOND
     1    18    17    1
     2    18    16    1
     3    16    15    1
     4    15     1    1
     5     1     2   ar
     6     2     3   ar
     7     3     4   ar
     8     4     7    1
     9     7     8   ar
    10     8     9   ar
    11     9    10   ar
    12    10    11   ar
    13    11    12    2
    14    11    13   ar
    15     4     5   ar
    16     5     6   ar
    17    18    19    1
    18    19    20    1
    19    20    21    1
    20    21    22    1
    21    22    23    1
    22    23    24    1
    23    24    25    1
    24     6     1   ar
    25    24    20    1
    26    13     7   ar
    27    10    14    1
