@<TRIPOS>MOLECULE
*****
 35 37 0 0 0
SMALL
GASTEIGER

@<TRIPOS>ATOM
      1 C           7.1069   -4.1532   23.2355 C.ar    1  UNL1        0.0528
      2 C           6.5381   -3.7285   24.5569 C.ar    1  UNL1        0.0167
      3 C           6.8202   -4.5361   25.7891 C.ar    1  UNL1        0.0505
      4 C           7.6710   -5.7682   25.6998 C.ar    1  UNL1        0.0170
      5 C           8.2397   -6.1929   24.3784 C.ar    1  UNL1        0.0307
      6 C           7.9577   -5.3853   23.1463 C.ar    1  UNL1        0.1402
      7 F           8.5264   -5.8100   21.8248 F       1  UNL1       -0.2044
      8 C           8.0399   -2.6283   22.5124 C.3     1  UNL1        0.0607
      9 C           6.8249   -3.3457   22.0032 C.3     1  UNL1        0.2223
     10 C           5.7079   -4.3435   21.9220 C.3     1  UNL1        0.1959
     11 O           4.7308   -4.2846   20.7854 O.3     1  UNL1       -0.3357
     12 C           4.8708   -3.2280   19.7300 C.3     1  UNL1        0.2740
     13 C           4.5888   -2.4204   18.4978 C.3     1  UNL1        0.0512
     14 C           5.9878   -2.2302   19.8112 C.2     1  UNL1        0.3217
     15 N           6.1277   -1.1735   18.7558 N.pl3   1  UNL1       -0.2480
     16 N           6.9648   -2.2890   20.9478 N.2     1  UNL1       -0.0692
     17 H           5.4864   -1.1348   18.0098 H       1  UNL1        0.2882
     18 H           6.8609   -0.5186   18.8090 H       1  UNL1        0.2882
     19 C           3.6558   -3.9453   19.2208 C.3     1  UNL1        0.4305
     20 F           2.4408   -4.6627   18.7117 F       1  UNL1       -0.1670
     21 F           2.7861   -2.8351   19.7318 F       1  UNL1       -0.1670
     22 F           4.5255   -5.0555   18.7099 F       1  UNL1       -0.1670
     23 N           6.2514   -4.1114   27.1106 N.am    1  UNL1       -0.2791
     24 C           7.1298   -3.4398   28.1241 C.2     1  UNL1        0.2681
     25 O           8.5770   -3.1927   27.8161 O.2     1  UNL1       -0.2681
     26 H           5.3016   -4.2736   27.3127 H       1  UNL1        0.1552
     27 C           6.5611   -3.0151   29.4455 C.ar    1  UNL1        0.1453
     28 N           5.8235   -1.7142   29.5614 N.ar    1  UNL1       -0.2377
     29 C           5.2548   -1.2896   30.8830 C.ar    1  UNL1        0.1093
     30 C           5.4238   -2.1659   32.0885 C.ar    1  UNL1        0.0884
     31 C           6.1614   -3.4669   31.9726 C.ar    1  UNL1        0.0249
     32 C           6.7301   -3.8915   30.6512 C.ar    1  UNL1        0.0804
     33 CL          7.4677   -5.1925   30.5353 Cl      1  UNL1       -0.0805
     34 C           4.8551   -1.7413   33.4100 C.1     1  UNL1        0.1020
     35 N           4.2864   -1.3167   34.7315 N.1     1  UNL1       -0.1908
@<TRIPOS>BOND
     1     9     8    1
     2     9     1    1
     3     1     2   ar
     4     2     3   ar
     5     3    23    1
     6    23    24   am
     7    24    25    2
     8    24    27    1
     9    27    28   ar
    10    28    29   ar
    11    29    30   ar
    12    30    34    1
    13    34    35    3
    14    30    31   ar
    15    31    32   ar
    16    32    33    1
    17     3     4   ar
    18     4     5   ar
    19     5     6   ar
    20     6     7    1
    21     9    10    1
    22    10    11    1
    23    11    12    1
    24    12    13    1
    25    12    19    1
    26    19    20    1
    27    19    21    1
    28    19    22    1
    29    12    14    1
    30    14    15    1
    31    14    16    2
    32    16     9    1
    33     6     1   ar
    34    32    27   ar
    35    23    26    1
    36    15    17    1
    37    15    18    1
@<TRIPOS>MOLECULE
*****
 35 37 0 0 0
SMALL
GASTEIGER

@<TRIPOS>ATOM
      1 C           2.0532    0.6421   20.5244 C.ar    1  UNL1        0.0528
      2 C           0.6417    0.8904   20.9671 C.ar    1  UNL1        0.0167
      3 C          -0.1723    1.9654   20.3100 C.ar    1  UNL1        0.0505
      4 C           0.4252    2.7921   19.2102 C.ar    1  UNL1        0.0170
      5 C           1.8367    2.5438   18.7675 C.ar    1  UNL1        0.0307
      6 C           2.6507    1.4688   19.4246 C.ar    1  UNL1        0.1402
      7 F           4.0622    1.2204   18.9818 F       1  UNL1       -0.2044
      8 C           2.6924    0.5055   22.3386 C.3     1  UNL1        0.0607
      9 C           2.8672   -0.4329   21.1815 C.3     1  UNL1        0.2223
     10 C           2.7593   -0.9979   19.7962 C.3     1  UNL1        0.1959
     11 O           3.4047   -2.3121   19.4698 O.3     1  UNL1       -0.3357
     12 C           4.1580   -3.0612   20.5288 C.3     1  UNL1        0.2740
     13 C           4.9720   -4.1361   21.1859 C.3     1  UNL1        0.0512
     14 C           4.2659   -2.4961   21.9141 C.2     1  UNL1        0.3217
     15 N           5.0193   -3.2452   22.9731 N.pl3   1  UNL1       -0.2480
     16 N           3.6206   -1.1820   22.2405 N.2     1  UNL1       -0.0692
     17 H           5.4429   -4.1078   22.7589 H       1  UNL1        0.2882
     18 H           5.0901   -2.8744   23.8823 H       1  UNL1        0.2882
     19 C           4.3328   -3.9996   19.3717 C.3     1  UNL1        0.4305
     20 F           4.5076   -4.9380   18.2146 F       1  UNL1       -0.1670
     21 F           2.8527   -4.2419   19.3446 F       1  UNL1       -0.1670
     22 F           5.8128   -3.7572   19.3988 F       1  UNL1       -0.1670
     23 N          -1.5838    2.2138   20.7527 N.am    1  UNL1       -0.2791
     24 C          -1.9006    3.3952   21.6210 C.2     1  UNL1        0.2681
     25 O          -0.8059    4.3283   22.0466 O.2     1  UNL1       -0.2681
     26 H          -2.3023    1.6014   20.4734 H       1  UNL1        0.1552
     27 C          -3.3121    3.6436   22.0637 C.ar    1  UNL1        0.1453
     28 N          -4.3816    3.9090   21.0461 N.ar    1  UNL1       -0.2377
     29 C          -5.7931    4.1574   21.4889 C.ar    1  UNL1        0.1093
     30 C          -6.1350    4.1404   22.9493 C.ar    1  UNL1        0.0884
     31 C          -5.0655    3.8750   23.9669 C.ar    1  UNL1        0.0249
     32 C          -3.6540    3.6266   23.5242 C.ar    1  UNL1        0.0804
     33 CL         -2.5845    3.3612   24.5419 Cl      1  UNL1       -0.0805
     34 C          -7.5465    4.3888   23.3920 C.1     1  UNL1        0.1020
     35 N          -8.9580    4.6371   23.8347 N.1     1  UNL1       -0.1908
@<TRIPOS>BOND
     1     9     8    1
     2     9     1    1
     3     1     2   ar
     4     2     3   ar
     5     3    23    1
     6    23    24   am
     7    24    25    2
     8    24    27    1
     9    27    28   ar
    10    28    29   ar
    11    29    30   ar
    12    30    34    1
    13    34    35    3
    14    30    31   ar
    15    31    32   ar
    16    32    33    1
    17     3     4   ar
    18     4     5   ar
    19     5     6   ar
    20     6     7    1
    21     9    10    1
    22    10    11    1
    23    11    12    1
    24    12    13    1
    25    12    19    1
    26    19    20    1
    27    19    21    1
    28    19    22    1
    29    12    14    1
    30    14    15    1
    31    14    16    2
    32    16     9    1
    33     6     1   ar
    34    32    27   ar
    35    23    26    1
    36    15    17    1
    37    15    18    1
@<TRIPOS>MOLECULE
*****
 35 37 0 0 0
SMALL
GASTEIGER

@<TRIPOS>ATOM
      1 C           3.2891    0.7553   18.4643 C.ar    1  UNL1        0.0528
      2 C           1.8619    1.1966   18.5997 C.ar    1  UNL1        0.0167
      3 C           1.5207    2.6565   18.5526 C.ar    1  UNL1        0.0505
      4 C           2.6066    3.6751   18.3699 C.ar    1  UNL1        0.0170
      5 C           4.0338    3.2337   18.2345 C.ar    1  UNL1        0.0307
      6 C           4.3750    1.7739   18.2817 C.ar    1  UNL1        0.1402
      7 F           5.8022    1.3324   18.1462 F       1  UNL1       -0.2044
      8 C           3.4983   -0.5158   17.0292 C.3     1  UNL1        0.0607
      9 C           3.6304   -0.7046   18.5115 C.3     1  UNL1        0.2223
     10 C           3.6440   -0.3865   19.9772 C.3     1  UNL1        0.1959
     11 O           3.9530   -1.4626   20.9754 O.3     1  UNL1       -0.3357
     12 C           4.2484   -2.8570   20.5078 C.3     1  UNL1        0.2740
     13 C           4.5897   -4.3168   20.5549 C.3     1  UNL1        0.0512
     14 C           4.2348   -3.1751   19.0421 C.2     1  UNL1        0.3217
     15 N           4.5302   -4.5694   18.5744 N.pl3   1  UNL1       -0.2480
     16 N           3.9258   -2.0990   18.0438 N.2     1  UNL1       -0.0692
     17 H           4.7330   -5.2758   19.2296 H       1  UNL1        0.2882
     18 H           4.5213   -4.7782   17.6124 H       1  UNL1        0.2882
     19 C           4.3805   -3.0458   21.9900 C.3     1  UNL1        0.4305
     20 F           4.5126   -3.2347   23.4723 F       1  UNL1       -0.1670
     21 F           3.2460   -2.0901   22.2129 F       1  UNL1       -0.1670
     22 F           5.5149   -4.0015   21.7671 F       1  UNL1       -0.1670
     23 N           0.0935    3.0979   18.6880 N.am    1  UNL1       -0.2791
     24 C          -0.4918    3.3368   20.0483 C.2     1  UNL1        0.2681
     25 O           0.3502    3.1344   21.2731 O.2     1  UNL1       -0.2681
     26 H          -0.4591    3.2308   17.8841 H       1  UNL1        0.1552
     27 C          -1.9189    3.7782   20.1838 C.ar    1  UNL1        0.1453
     28 N          -2.9565    2.8181   20.6854 N.ar    1  UNL1       -0.2377
     29 C          -4.3837    3.2596   20.8209 C.ar    1  UNL1        0.1093
     30 C          -4.7733    4.6611   20.4548 C.ar    1  UNL1        0.0884
     31 C          -3.7357    5.6212   19.9532 C.ar    1  UNL1        0.0249
     32 C          -2.3085    5.1798   19.8177 C.ar    1  UNL1        0.0804
     33 CL         -1.2709    6.1399   19.3160 Cl      1  UNL1       -0.0805
     34 C          -6.2004    5.1025   20.5903 C.1     1  UNL1        0.1020
     35 N          -7.6276    5.5438   20.7258 N.1     1  UNL1       -0.1908
@<TRIPOS>BOND
     1     9     8    1
     2     9     1    1
     3     1     2   ar
     4     2     3   ar
     5     3    23    1
     6    23    24   am
     7    24    25    2
     8    24    27    1
     9    27    28   ar
    10    28    29   ar
    11    29    30   ar
    12    30    34    1
    13    34    35    3
    14    30    31   ar
    15    31    32   ar
    16    32    33    1
    17     3     4   ar
    18     4     5   ar
    19     5     6   ar
    20     6     7    1
    21     9    10    1
    22    10    11    1
    23    11    12    1
    24    12    13    1
    25    12    19    1
    26    19    20    1
    27    19    21    1
    28    19    22    1
    29    12    14    1
    30    14    15    1
    31    14    16    2
    32    16     9    1
    33     6     1   ar
    34    32    27   ar
    35    23    26    1
    36    15    17    1
    37    15    18    1
@<TRIPOS>MOLECULE
*****
 35 37 0 0 0
SMALL
GASTEIGER

@<TRIPOS>ATOM
      1 C           2.5695    0.6953   21.0459 C.ar    1  UNL1        0.0528
      2 C           1.2023    1.0283   20.5264 C.ar    1  UNL1        0.0167
      3 C           0.1820    1.6414   21.4391 C.ar    1  UNL1        0.0505
      4 C           0.5289    1.9215   22.8713 C.ar    1  UNL1        0.0170
      5 C           1.8960    1.5885   23.3909 C.ar    1  UNL1        0.0307
      6 C           2.9163    0.9754   22.4782 C.ar    1  UNL1        0.1402
      7 F           4.2836    0.6424   22.9977 F       1  UNL1       -0.2044
      8 C           3.9058    1.5356   19.9383 C.3     1  UNL1        0.0607
      9 C           3.5899    0.0822   20.1332 C.3     1  UNL1        0.2223
     10 C           2.9196   -1.1582   20.6451 C.3     1  UNL1        0.1959
     11 O           3.3793   -2.5069   20.1766 O.3     1  UNL1       -0.3357
     12 C           4.5094   -2.6152   19.1962 C.3     1  UNL1        0.2740
     13 C           5.5298   -3.2283   18.2836 C.3     1  UNL1        0.0512
     14 C           5.1797   -1.3749   18.6843 C.2     1  UNL1        0.3217
     15 N           6.3099   -1.4832   17.7039 N.pl3   1  UNL1       -0.2480
     16 N           4.7200   -0.0261   19.1528 N.2     1  UNL1       -0.0692
     17 H           6.6116   -2.3684   17.3965 H       1  UNL1        0.2882
     18 H           6.7498   -0.6691   17.3680 H       1  UNL1        0.2882
     19 C           4.1935   -4.0686   19.3912 C.3     1  UNL1        0.4305
     20 F           3.8775   -5.5220   19.5861 F       1  UNL1       -0.1670
     21 F           2.7591   -3.8037   19.0414 F       1  UNL1       -0.1670
     22 F           5.6278   -4.3335   19.7409 F       1  UNL1       -0.1670
     23 N          -1.1853    1.9744   20.9196 N.am    1  UNL1       -0.2791
     24 C          -1.6326    3.4043   20.8482 C.2     1  UNL1        0.2681
     25 O          -0.7128    4.5013   21.2962 O.2     1  UNL1       -0.2681
     26 H          -1.7890    1.2544   20.6256 H       1  UNL1        0.1552
     27 C          -2.9998    3.7374   20.3287 C.ar    1  UNL1        0.1453
     28 N          -3.1913    4.0660   18.8777 N.ar    1  UNL1       -0.2377
     29 C          -4.5586    4.3991   18.3583 C.ar    1  UNL1        0.1093
     30 C          -5.7342    4.4035   19.2898 C.ar    1  UNL1        0.0884
     31 C          -5.5427    4.0748   20.7407 C.ar    1  UNL1        0.0249
     32 C          -4.1756    3.7418   21.2602 C.ar    1  UNL1        0.0804
     33 CL         -3.9841    3.4131   22.7112 Cl      1  UNL1       -0.0805
     34 C          -7.1014    4.7365   18.7703 C.1     1  UNL1        0.1020
     35 N          -8.4686    5.0696   18.2508 N.1     1  UNL1       -0.1908
@<TRIPOS>BOND
     1     9     8    1
     2     9     1    1
     3     1     2   ar
     4     2     3   ar
     5     3    23    1
     6    23    24   am
     7    24    25    2
     8    24    27    1
     9    27    28   ar
    10    28    29   ar
    11    29    30   ar
    12    30    34    1
    13    34    35    3
    14    30    31   ar
    15    31    32   ar
    16    32    33    1
    17     3     4   ar
    18     4     5   ar
    19     5     6   ar
    20     6     7    1
    21     9    10    1
    22    10    11    1
    23    11    12    1
    24    12    13    1
    25    12    19    1
    26    19    20    1
    27    19    21    1
    28    19    22    1
    29    12    14    1
    30    14    15    1
    31    14    16    2
    32    16     9    1
    33     6     1   ar
    34    32    27   ar
    35    23    26    1
    36    15    17    1
    37    15    18    1
@<TRIPOS>MOLECULE
*****
 35 37 0 0 0
SMALL
GASTEIGER

@<TRIPOS>ATOM
      1 C           4.1349    1.0317   34.0444 C.ar    1  UNL1        0.0528
      2 C           3.4884    1.5151   32.7801 C.ar    1  UNL1        0.0167
      3 C           3.2385    0.5582   31.6523 C.ar    1  UNL1        0.0505
      4 C           3.6351   -0.8819   31.7888 C.ar    1  UNL1        0.0170
      5 C           4.2816   -1.3653   33.0530 C.ar    1  UNL1        0.0307
      6 C           4.5315   -0.4084   34.1808 C.ar    1  UNL1        0.1402
      7 F           5.1780   -0.8917   35.4452 F       1  UNL1       -0.2044
      8 C           5.6920    2.0968   34.4444 C.3     1  UNL1        0.0607
      9 C           4.3848    1.9886   35.1723 C.3     1  UNL1        0.2223
     10 C           2.9910    1.5482   35.5084 C.3     1  UNL1        0.1959
     11 O           2.3009    2.1021   36.7196 O.3     1  UNL1       -0.3357
     12 C           3.0049    3.0965   37.5947 C.3     1  UNL1        0.2740
     13 C           3.2548    4.0533   38.7225 C.3     1  UNL1        0.0512
     14 C           4.3987    3.5369   37.2585 C.2     1  UNL1        0.3217
     15 N           5.1027    4.5314   38.1336 N.pl3   1  UNL1       -0.2480
     16 N           5.0888    2.9830   36.0473 N.2     1  UNL1       -0.0692
     17 H           4.6498    4.8949   38.9285 H       1  UNL1        0.2882
     18 H           6.0175    4.8204   37.9129 H       1  UNL1        0.2882
     19 C           1.6977    2.9883   38.3225 C.3     1  UNL1        0.4305
     20 F           0.3906    2.8802   39.0504 F       1  UNL1       -0.1670
     21 F           1.0892    3.9815   37.3773 F       1  UNL1       -0.1670
     22 F           2.3063    1.9952   39.2677 F       1  UNL1       -0.1670
     23 N           2.5920    1.0415   30.3880 N.am    1  UNL1       -0.2791
     24 C           1.1853    1.5617   30.4163 C.2     1  UNL1        0.2681
     25 O           0.4252    1.5984   31.7090 O.2     1  UNL1       -0.2681
     26 H           3.0909    1.0174   29.5396 H       1  UNL1        0.1552
     27 C           0.5388    2.0449   29.1521 C.ar    1  UNL1        0.1453
     28 N           0.6892    3.4773   28.7328 N.ar    1  UNL1       -0.2377
     29 C           0.0426    3.9606   27.4685 C.ar    1  UNL1        0.1093
     30 C          -0.7543    3.0115   26.6235 C.ar    1  UNL1        0.0884
     31 C          -0.9048    1.5792   27.0427 C.ar    1  UNL1        0.0249
     32 C          -0.2582    1.0959   28.3070 C.ar    1  UNL1        0.0804
     33 CL         -0.4087   -0.3365   28.7262 Cl      1  UNL1       -0.0805
     34 C          -1.4009    3.4948   25.3593 C.1     1  UNL1        0.1020
     35 N          -2.0475    3.9782   24.0950 N.1     1  UNL1       -0.1908
@<TRIPOS>BOND
     1     9     8    1
     2     9     1    1
     3     1     2   ar
     4     2     3   ar
     5     3    23    1
     6    23    24   am
     7    24    25    2
     8    24    27    1
     9    27    28   ar
    10    28    29   ar
    11    29    30   ar
    12    30    34    1
    13    34    35    3
    14    30    31   ar
    15    31    32   ar
    16    32    33    1
    17     3     4   ar
    18     4     5   ar
    19     5     6   ar
    20     6     7    1
    21     9    10    1
    22    10    11    1
    23    11    12    1
    24    12    13    1
    25    12    19    1
    26    19    20    1
    27    19    21    1
    28    19    22    1
    29    12    14    1
    30    14    15    1
    31    14    16    2
    32    16     9    1
    33     6     1   ar
    34    32    27   ar
    35    23    26    1
    36    15    17    1
    37    15    18    1
@<TRIPOS>MOLECULE
*****
 35 37 0 0 0
SMALL
GASTEIGER

@<TRIPOS>ATOM
      1 C           3.0416    1.1009   19.9055 C.ar    1  UNL1        0.0528
      2 C           1.5864    1.3754   19.6669 C.ar    1  UNL1        0.0167
      3 C           1.1717    2.5578   18.8424 C.ar    1  UNL1        0.0505
      4 C           2.2121    3.4657   18.2565 C.ar    1  UNL1        0.0170
      5 C           3.6673    3.1912   18.4952 C.ar    1  UNL1        0.0307
      6 C           4.0821    2.0088   19.3197 C.ar    1  UNL1        0.1402
      7 F           5.5373    1.7342   19.5583 F       1  UNL1       -0.2044
      8 C           3.2962    0.9463   21.8108 C.3     1  UNL1        0.0607
      9 C           3.4565   -0.0816   20.7301 C.3     1  UNL1        0.2223
     10 C           3.4727   -0.6987   19.3630 C.3     1  UNL1        0.1959
     11 O           3.8480   -2.1413   19.1958 O.3     1  UNL1       -0.3357
     12 C           4.2072   -2.9668   20.3957 C.3     1  UNL1        0.2740
     13 C           4.6220   -4.1491   21.2202 C.3     1  UNL1        0.0512
     14 C           4.1910   -2.3496   21.7627 C.2     1  UNL1        0.3217
     15 N           4.5502   -3.1751   22.9626 N.pl3   1  UNL1       -0.2480
     16 N           3.8156   -0.9070   21.9299 N.2     1  UNL1       -0.0692
     17 H           4.7965   -4.1219   22.8529 H       1  UNL1        0.2882
     18 H           4.5395   -2.7700   23.8598 H       1  UNL1        0.2882
     19 C           4.3675   -3.9946   19.3150 C.3     1  UNL1        0.4305
     20 F           4.5277   -5.0224   18.2342 F       1  UNL1       -0.1670
     21 F           2.8764   -4.0804   19.1754 F       1  UNL1       -0.1670
     22 F           5.8584   -3.9088   19.4545 F       1  UNL1       -0.1670
     23 N          -0.2836    2.8324   18.6037 N.am    1  UNL1       -0.2791
     24 C          -1.0524    3.6900   19.5647 C.2     1  UNL1        0.2681
     25 O          -0.3660    4.2731   20.7643 O.2     1  UNL1       -0.2681
     26 H          -0.7341    2.4498   17.8164 H       1  UNL1        0.1552
     27 C          -2.5076    3.9646   19.3261 C.ar    1  UNL1        0.1453
     28 N          -3.5490    3.2325   20.1195 N.ar    1  UNL1       -0.2377
     29 C          -5.0042    3.5071   19.8809 C.ar    1  UNL1        0.1093
     30 C          -5.4181    4.5138   18.8488 C.ar    1  UNL1        0.0884
     31 C          -4.3767    5.2460   18.0553 C.ar    1  UNL1        0.0249
     32 C          -2.9215    4.9714   18.2940 C.ar    1  UNL1        0.0804
     33 CL         -1.8802    5.7035   17.5005 Cl      1  UNL1       -0.0805
     34 C          -6.8732    4.7884   18.6102 C.1     1  UNL1        0.1020
     35 N          -8.3285    5.0630   18.3716 N.1     1  UNL1       -0.1908
@<TRIPOS>BOND
     1     9     8    1
     2     9     1    1
     3     1     2   ar
     4     2     3   ar
     5     3    23    1
     6    23    24   am
     7    24    25    2
     8    24    27    1
     9    27    28   ar
    10    28    29   ar
    11    29    30   ar
    12    30    34    1
    13    34    35    3
    14    30    31   ar
    15    31    32   ar
    16    32    33    1
    17     3     4   ar
    18     4     5   ar
    19     5     6   ar
    20     6     7    1
    21     9    10    1
    22    10    11    1
    23    11    12    1
    24    12    13    1
    25    12    19    1
    26    19    20    1
    27    19    21    1
    28    19    22    1
    29    12    14    1
    30    14    15    1
    31    14    16    2
    32    16     9    1
    33     6     1   ar
    34    32    27   ar
    35    23    26    1
    36    15    17    1
    37    15    18    1
@<TRIPOS>MOLECULE
*****
 35 37 0 0 0
SMALL
GASTEIGER

@<TRIPOS>ATOM
      1 C           7.8679   -4.3340   27.8718 C.ar    1  UNL1        0.0528
      2 C           7.2525   -3.7720   26.6247 C.ar    1  UNL1        0.0167
      3 C           6.9587   -4.6726   25.4618 C.ar    1  UNL1        0.0505
      4 C           7.2802   -6.1353   25.5460 C.ar    1  UNL1        0.0170
      5 C           7.8956   -6.6974   26.7931 C.ar    1  UNL1        0.0307
      6 C           8.1894   -5.7967   27.9560 C.ar    1  UNL1        0.1402
      7 F           8.8049   -6.3587   29.2033 F       1  UNL1       -0.2044
      8 C           9.3690   -3.1649   28.1859 C.3     1  UNL1        0.0607
      9 C           8.1617   -3.4333   29.0348 C.3     1  UNL1        0.2223
     10 C           6.8525   -4.0145   29.4798 C.3     1  UNL1        0.1959
     11 O           6.2563   -3.6018   30.7929 O.3     1  UNL1       -0.3357
     12 C           6.9695   -2.6079   31.6611 C.3     1  UNL1        0.2740
     13 C           7.2634   -1.7073   32.8240 C.3     1  UNL1        0.0512
     14 C           8.2787   -2.0268   31.2161 C.2     1  UNL1        0.3217
     15 N           8.9919   -1.0329   32.0843 N.pl3   1  UNL1       -0.2480
     16 N           8.8749   -2.4394   29.9030 N.2     1  UNL1       -0.0692
     17 H           8.6006   -0.7620   32.9461 H       1  UNL1        0.2882
     18 H           9.8512   -0.6514   31.7922 H       1  UNL1        0.2882
     19 C           5.7622   -2.8763   32.5099 C.3     1  UNL1        0.4305
     20 F           4.5550   -3.1447   33.3588 F       1  UNL1       -0.1670
     21 F           5.2912   -1.4700   32.2847 F       1  UNL1       -0.1670
     22 F           6.2332   -4.2825   32.7351 F       1  UNL1       -0.1670
     23 N           6.3432   -4.1106   24.2146 N.am    1  UNL1       -0.2791
     24 C           7.1816   -3.9180   22.9857 C.2     1  UNL1        0.2681
     25 O           8.6353   -4.2875   23.0040 O.2     1  UNL1       -0.2681
     26 H           5.3891   -3.8682   24.2026 H       1  UNL1        0.1552
     27 C           6.5662   -3.3561   21.7385 C.ar    1  UNL1        0.1453
     28 N           6.0424   -4.2795   20.6788 N.ar    1  UNL1       -0.2377
     29 C           5.4270   -3.7174   19.4316 C.ar    1  UNL1        0.1093
     30 C           5.3355   -2.2320   19.2441 C.ar    1  UNL1        0.0884
     31 C           5.8593   -1.3086   20.3038 C.ar    1  UNL1        0.0249
     32 C           6.4747   -1.8706   21.5510 C.ar    1  UNL1        0.0804
     33 CL          6.9985   -0.9472   22.6107 Cl      1  UNL1       -0.0805
     34 C           4.7202   -1.6700   17.9970 C.1     1  UNL1        0.1020
     35 N           4.1048   -1.1080   16.7497 N.1     1  UNL1       -0.1908
@<TRIPOS>BOND
     1     9     8    1
     2     9     1    1
     3     1     2   ar
     4     2     3   ar
     5     3    23    1
     6    23    24   am
     7    24    25    2
     8    24    27    1
     9    27    28   ar
    10    28    29   ar
    11    29    30   ar
    12    30    34    1
    13    34    35    3
    14    30    31   ar
    15    31    32   ar
    16    32    33    1
    17     3     4   ar
    18     4     5   ar
    19     5     6   ar
    20     6     7    1
    21     9    10    1
    22    10    11    1
    23    11    12    1
    24    12    13    1
    25    12    19    1
    26    19    20    1
    27    19    21    1
    28    19    22    1
    29    12    14    1
    30    14    15    1
    31    14    16    2
    32    16     9    1
    33     6     1   ar
    34    32    27   ar
    35    23    26    1
    36    15    17    1
    37    15    18    1
@<TRIPOS>MOLECULE
*****
 35 37 0 0 0
SMALL
GASTEIGER

@<TRIPOS>ATOM
      1 C           3.9405   -0.3376   22.9161 C.ar    1  UNL1        0.0528
      2 C           2.5536    0.2087   23.0833 C.ar    1  UNL1        0.0167
      3 C           2.0003    0.4425   24.4577 C.ar    1  UNL1        0.0505
      4 C           2.8339    0.1300   25.6650 C.ar    1  UNL1        0.0170
      5 C           4.2208   -0.4164   25.4978 C.ar    1  UNL1        0.0307
      6 C           4.7741   -0.6502   24.1233 C.ar    1  UNL1        0.1402
      7 F           6.1610   -1.1965   23.9561 F       1  UNL1       -0.2044
      8 C           4.8245    0.8817   21.7118 C.3     1  UNL1        0.0607
      9 C           4.4938   -0.5715   21.5416 C.3     1  UNL1        0.2223
     10 C           3.9710   -1.9434   21.8487 C.3     1  UNL1        0.1959
     11 O           4.1164   -3.0445   20.8406 O.3     1  UNL1       -0.3357
     12 C           4.7846   -2.7736   19.5252 C.3     1  UNL1        0.2740
     13 C           5.3380   -3.0074   18.1508 C.3     1  UNL1        0.0512
     14 C           5.3074   -1.4017   19.2180 C.2     1  UNL1        0.3217
     15 N           5.9756   -1.1308   17.9027 N.pl3   1  UNL1       -0.2480
     16 N           5.1621   -0.3006   20.2262 N.2     1  UNL1       -0.0692
     17 H           6.0711   -1.8535   17.2409 H       1  UNL1        0.2882
     18 H           6.3188   -0.2303   17.7011 H       1  UNL1        0.2882
     19 C           4.4539   -4.2268   19.3550 C.3     1  UNL1        0.4305
     20 F           4.1233   -5.6800   19.1848 F       1  UNL1       -0.1670
     21 F           3.0551   -3.8617   18.9548 F       1  UNL1       -0.1670
     22 F           5.8527   -4.5919   19.7552 F       1  UNL1       -0.1670
     23 N           0.6133    0.9888   24.6250 N.am    1  UNL1       -0.2791
     24 C           0.4012    2.4673   24.7630 C.2     1  UNL1        0.2681
     25 O           1.5761    3.3995   24.7338 O.2     1  UNL1       -0.2681
     26 H          -0.1578    0.3770   24.6441 H       1  UNL1        0.1552
     27 C          -0.9857    3.0137   24.9303 C.ar    1  UNL1        0.1453
     28 N          -1.7388    3.5259   23.7384 N.ar    1  UNL1       -0.2377
     29 C          -3.1257    4.0723   23.9057 C.ar    1  UNL1        0.1093
     30 C          -3.7595    4.1064   25.2648 C.ar    1  UNL1        0.0884
     31 C          -3.0064    3.5942   26.4566 C.ar    1  UNL1        0.0249
     32 C          -1.6195    3.0479   26.2894 C.ar    1  UNL1        0.0804
     33 CL         -0.8664    2.5357   27.4812 Cl      1  UNL1       -0.0805
     34 C          -5.1464    4.6528   25.4320 C.1     1  UNL1        0.1020
     35 N          -6.5333    5.1992   25.5993 N.1     1  UNL1       -0.1908
@<TRIPOS>BOND
     1     9     8    1
     2     9     1    1
     3     1     2   ar
     4     2     3   ar
     5     3    23    1
     6    23    24   am
     7    24    25    2
     8    24    27    1
     9    27    28   ar
    10    28    29   ar
    11    29    30   ar
    12    30    34    1
    13    34    35    3
    14    30    31   ar
    15    31    32   ar
    16    32    33    1
    17     3     4   ar
    18     4     5   ar
    19     5     6   ar
    20     6     7    1
    21     9    10    1
    22    10    11    1
    23    11    12    1
    24    12    13    1
    25    12    19    1
    26    19    20    1
    27    19    21    1
    28    19    22    1
    29    12    14    1
    30    14    15    1
    31    14    16    2
    32    16     9    1
    33     6     1   ar
    34    32    27   ar
    35    23    26    1
    36    15    17    1
    37    15    18    1
@<TRIPOS>MOLECULE
*****
 35 37 0 0 0
SMALL
GASTEIGER

@<TRIPOS>ATOM
      1 C           2.4797    1.0184   20.1487 C.ar    1  UNL1        0.0528
      2 C           1.0840    1.1586   20.6800 C.ar    1  UNL1        0.0167
      3 C           0.6002    2.4891   21.1754 C.ar    1  UNL1        0.0505
      4 C           1.5122    3.6795   21.1396 C.ar    1  UNL1        0.0170
      5 C           2.9079    3.5394   20.6084 C.ar    1  UNL1        0.0307
      6 C           3.3917    2.2088   20.1129 C.ar    1  UNL1        0.1402
      7 F           4.7875    2.0686   19.5816 F       1  UNL1       -0.2044
      8 C           2.4438    0.2695   18.3720 C.3     1  UNL1        0.0607
      9 C           2.9636   -0.3122   19.6533 C.3     1  UNL1        0.2223
     10 C           3.3153   -0.4318   21.1065 C.3     1  UNL1        0.1959
     11 O           3.9703   -1.6800   21.6193 O.3     1  UNL1       -0.3357
     12 C           4.2736   -2.8086   20.6788 C.3     1  UNL1        0.2740
     13 C           4.7574   -4.1391   20.1833 C.3     1  UNL1        0.0512
     14 C           3.9219   -2.6889   19.2256 C.2     1  UNL1        0.3217
     15 N           4.2252   -3.8175   18.2852 N.pl3   1  UNL1       -0.2480
     16 N           3.2669   -1.4408   18.7128 N.2     1  UNL1       -0.0692
     17 H           4.6551   -4.6367   18.6217 H       1  UNL1        0.2882
     18 H           3.9943   -3.7390   17.3313 H       1  UNL1        0.2882
     19 C           4.7934   -3.3903   21.9600 C.3     1  UNL1        0.4305
     20 F           5.3132   -3.9721   23.2413 F       1  UNL1       -0.1670
     21 F           3.8736   -4.5644   21.8001 F       1  UNL1       -0.1670
     22 F           5.7132   -2.2163   22.1199 F       1  UNL1       -0.1670
     23 N          -0.7955    2.6294   21.7067 N.am    1  UNL1       -0.2791
     24 C          -1.7433    3.6062   21.0763 C.2     1  UNL1        0.2681
     25 O          -1.2954    4.4429   19.9147 O.2     1  UNL1       -0.2681
     26 H          -1.0895    2.0802   22.4691 H       1  UNL1        0.1552
     27 C          -3.1391    3.7465   21.6076 C.ar    1  UNL1        0.1453
     28 N          -3.3703    3.8732   23.0842 N.ar    1  UNL1       -0.2377
     29 C          -4.7662    4.0134   23.6154 C.ar    1  UNL1        0.1093
     30 C          -5.9306    4.0270   22.6700 C.ar    1  UNL1        0.0884
     31 C          -5.6993    3.9003   21.1934 C.ar    1  UNL1        0.0249
     32 C          -4.3036    3.7601   20.6621 C.ar    1  UNL1        0.0804
     33 CL         -4.0723    3.6334   19.1855 Cl      1  UNL1       -0.0805
     34 C          -7.3263    4.1673   23.2012 C.1     1  UNL1        0.1020
     35 N          -8.7221    4.3076   23.7325 N.1     1  UNL1       -0.1908
@<TRIPOS>BOND
     1     9     8    1
     2     9     1    1
     3     1     2   ar
     4     2     3   ar
     5     3    23    1
     6    23    24   am
     7    24    25    2
     8    24    27    1
     9    27    28   ar
    10    28    29   ar
    11    29    30   ar
    12    30    34    1
    13    34    35    3
    14    30    31   ar
    15    31    32   ar
    16    32    33    1
    17     3     4   ar
    18     4     5   ar
    19     5     6   ar
    20     6     7    1
    21     9    10    1
    22    10    11    1
    23    11    12    1
    24    12    13    1
    25    12    19    1
    26    19    20    1
    27    19    21    1
    28    19    22    1
    29    12    14    1
    30    14    15    1
    31    14    16    2
    32    16     9    1
    33     6     1   ar
    34    32    27   ar
    35    23    26    1
    36    15    17    1
    37    15    18    1
