@<TRIPOS>MOLECULE
*****
 34 35 0 0 0
SMALL
GASTEIGER

@<TRIPOS>ATOM
      1 N          -6.3581  -17.0650   23.6259 N.am    1  UNL1       -0.3046
      2 C          -6.6109  -15.5925   23.7588 C.2     1  UNL1        0.2425
      3 O          -5.6801  -14.6103   23.1115 O.2     1  UNL1       -0.2733
      4 H          -6.9690  -17.7096   24.0507 H       1  UNL1        0.1494
      5 C          -5.3634  -18.5628   21.7504 C.3     1  UNL1        0.0193
      6 C          -4.1798  -19.0531   20.9702 C.3     1  UNL1        0.0176
      7 C          -2.8074  -18.5361   21.2853 C.3     1  UNL1        0.0576
      8 C          -2.6186  -17.5288   22.3805 C.3     1  UNL1        0.0176
      9 C          -3.8021  -17.0384   23.1607 C.3     1  UNL1        0.0209
     10 C          -5.1745  -17.5554   22.8456 C.3     1  UNL1        0.0716
     11 N          -1.6239  -19.0265   20.5050 N.3     1  UNL1       -0.2741
     12 C          -1.2099  -20.4654   20.5956 C.3     1  UNL1        0.0896
     13 C          -0.8543  -18.0780   19.6343 C.3     1  UNL1        0.0576
     14 C          -1.4254  -17.6354   18.3197 C.3     1  UNL1        0.0173
     15 C           0.4862  -17.5721   20.0781 C.3     1  UNL1        0.0173
     16 C          -6.7358  -19.0798   21.4354 C.3     1  UNL1        0.0017
     17 C          -7.4120  -20.0335   22.3751 C.3     1  UNL1        0.0001
     18 C          -9.3643  -20.4728   24.0321 C.3     1  UNL1        0.0000
     19 C          -8.8211  -19.7757   22.8200 C.3     1  UNL1        0.0000
     20 C          -7.7945  -15.1021   24.5391 C.3     1  UNL1        0.1759
     21 N          -9.1510  -15.6940   24.2953 N.am    1  UNL1       -0.2931
     22 C          -9.5144  -16.1996   22.9306 C.2     1  UNL1        0.2462
     23 O          -8.5213  -16.1132   21.8098 O.2     1  UNL1       -0.2701
     24 H          -9.8028  -15.7507   25.0309 H       1  UNL1        0.1502
     25 C         -10.8709  -16.7916   22.6868 C.ar    1  UNL1        0.0533
     26 C         -11.4220  -16.8552   21.2932 C.ar    1  UNL1        0.0045
     27 C         -12.7785  -17.4471   21.0494 C.ar    1  UNL1        0.0001
     28 C         -13.5839  -17.9755   22.1992 C.ar    1  UNL1        0.0039
     29 C         -13.0328  -17.9119   23.5929 C.ar    1  UNL1        0.0716
     30 C         -11.6764  -17.3199   23.8366 C.ar    1  UNL1        0.0084
     31 C         -13.8383  -18.4403   24.7427 C.3     1  UNL1        0.4186
     32 F         -14.6437  -18.9686   25.8925 F       1  UNL1       -0.1659
     33 F         -12.5729  -18.7887   25.4689 F       1  UNL1       -0.1659
     34 F         -15.1036  -18.0918   24.0165 F       1  UNL1       -0.1659
@<TRIPOS>BOND
     1    18    19    1
     2    19    17    1
     3    17    16    1
     4     5    16    1
     5     5     6    1
     6     6     7    1
     7     7    11    1
     8    11    12    1
     9    11    13    1
    10    13    14    1
    11    13    15    1
    12     7     8    1
    13     8     9    1
    14     9    10    1
    15    10     1    1
    16     1     2   am
    17     2     3    2
    18     2    20    1
    19    20    21    1
    20    21    22   am
    21    22    23    2
    22    22    25    1
    23    25    26   ar
    24    26    27   ar
    25    27    28   ar
    26    28    29   ar
    27    29    31    1
    28    31    32    1
    29    31    33    1
    30    31    34    1
    31    29    30   ar
    32    10     5    1
    33    30    25   ar
    34     1     4    1
    35    21    24    1
@<TRIPOS>MOLECULE
*****
 34 35 0 0 0
SMALL
GASTEIGER

@<TRIPOS>ATOM
      1 N           6.4569   -4.4175   25.0552 N.am    1  UNL1       -0.3046
      2 C           7.6654   -4.1048   24.2236 C.2     1  UNL1        0.2425
      3 O           8.9783   -3.8140   24.8881 O.2     1  UNL1       -0.2733
      4 H           5.5951   -4.6084   24.6190 H       1  UNL1        0.1494
      5 C           6.7832   -5.7380   27.2688 C.3     1  UNL1        0.0193
      6 C           6.8876   -5.7600   28.7649 C.3     1  UNL1        0.0176
      7 C           6.7700   -4.4834   29.5438 C.3     1  UNL1        0.0576
      8 C           6.5480   -3.1850   28.8265 C.3     1  UNL1        0.0176
      9 C           6.4436   -3.1630   27.3303 C.3     1  UNL1        0.0209
     10 C           6.5612   -4.4395   26.5514 C.3     1  UNL1        0.0716
     11 N           6.8744   -4.5054   31.0400 N.3     1  UNL1       -0.2741
     12 C           7.0319   -5.8109   31.7617 C.3     1  UNL1        0.0896
     13 C           6.8212   -3.2220   31.8145 C.3     1  UNL1        0.0576
     14 C           5.5036   -2.6902   32.2954 C.3     1  UNL1        0.0173
     15 C           8.0856   -2.4703   32.1082 C.3     1  UNL1        0.0173
     16 C           6.9008   -7.0146   26.4899 C.3     1  UNL1        0.0017
     17 C           8.2187   -7.4100   25.8926 C.3     1  UNL1        0.0001
     18 C           9.5279   -7.2708   23.6528 C.3     1  UNL1        0.0000
     19 C           8.3184   -7.7066   24.4256 C.3     1  UNL1        0.0000
     20 C           7.5610   -4.0828   22.7273 C.3     1  UNL1        0.1759
     21 N           6.6786   -3.0753   22.0518 N.am    1  UNL1       -0.2931
     22 C           5.2030   -3.3227   21.9451 C.2     1  UNL1        0.2462
     23 O           4.6098   -4.5775   22.5140 O.2     1  UNL1       -0.2701
     24 H           7.0679   -2.2518   21.6784 H       1  UNL1        0.1502
     25 C           4.3205   -2.3152   21.2696 C.ar    1  UNL1        0.0533
     26 C           3.3687   -1.4878   22.0816 C.ar    1  UNL1        0.0045
     27 C           2.4863   -0.4803   21.4060 C.ar    1  UNL1        0.0001
     28 C           2.5557   -0.3004   19.9185 C.ar    1  UNL1        0.0039
     29 C           3.5075   -1.1278   19.1065 C.ar    1  UNL1        0.0716
     30 C           4.3899   -2.1352   19.7820 C.ar    1  UNL1        0.0084
     31 C           3.5769   -0.9478   17.6189 C.3     1  UNL1        0.4186
     32 F           3.6463   -0.7678   16.1314 F       1  UNL1       -0.1659
     33 F           4.6299   -2.0131   17.5392 F       1  UNL1       -0.1659
     34 F           2.5239    0.1175   17.6987 F       1  UNL1       -0.1659
@<TRIPOS>BOND
     1    18    19    1
     2    19    17    1
     3    17    16    1
     4     5    16    1
     5     5     6    1
     6     6     7    1
     7     7    11    1
     8    11    12    1
     9    11    13    1
    10    13    14    1
    11    13    15    1
    12     7     8    1
    13     8     9    1
    14     9    10    1
    15    10     1    1
    16     1     2   am
    17     2     3    2
    18     2    20    1
    19    20    21    1
    20    21    22   am
    21    22    23    2
    22    22    25    1
    23    25    26   ar
    24    26    27   ar
    25    27    28   ar
    26    28    29   ar
    27    29    31    1
    28    31    32    1
    29    31    33    1
    30    31    34    1
    31    29    30   ar
    32    10     5    1
    33    30    25   ar
    34     1     4    1
    35    21    24    1
@<TRIPOS>MOLECULE
*****
 34 35 0 0 0
SMALL
GASTEIGER

@<TRIPOS>ATOM
      1 N           1.1851    2.0794   18.5529 N.am    1  UNL1       -0.3046
      2 C           1.5427    3.3622   19.2431 C.2     1  UNL1        0.2425
      3 O           2.7776    3.4386   20.0912 O.2     1  UNL1       -0.2733
      4 H           0.3746    2.0293   17.9963 H       1  UNL1        0.1494
      5 C           1.7256   -0.1704   19.7345 C.3     1  UNL1        0.0193
      6 C           2.6029   -1.3769   19.8923 C.3     1  UNL1        0.0176
      7 C           3.8168   -1.5400   19.0265 C.3     1  UNL1        0.0576
      8 C           4.1535   -0.4966   18.0027 C.3     1  UNL1        0.0176
      9 C           3.2763    0.7098   17.8449 C.3     1  UNL1        0.0209
     10 C           2.0623    0.8729   18.7108 C.3     1  UNL1        0.0716
     11 N           4.6941   -2.7465   19.1843 N.3     1  UNL1       -0.2741
     12 C           5.9902   -2.8346   18.4344 C.3     1  UNL1        0.0896
     13 C           4.2752   -3.8647   20.0921 C.3     1  UNL1        0.0576
     14 C           4.6213   -3.8162   21.5509 C.3     1  UNL1        0.0173
     15 C           3.5103   -5.0315   19.5412 C.3     1  UNL1        0.0173
     16 C           0.5117   -0.0074   20.6004 C.3     1  UNL1        0.0017
     17 C           0.5959    0.7912   21.8673 C.3     1  UNL1        0.0001
     18 C           2.4177    0.1113   23.5904 C.3     1  UNL1        0.0000
     19 C           1.9275    1.0338   22.5139 C.3     1  UNL1        0.0000
     20 C           0.6655    4.5687   19.0852 C.3     1  UNL1        0.1759
     21 N          -0.7829    4.4983   19.4690 N.am    1  UNL1       -0.2931
     22 C          -1.7905    3.9577   18.4983 C.2     1  UNL1        0.2462
     23 O          -1.3498    3.4875   17.1438 O.2     1  UNL1       -0.2701
     24 H          -1.0721    4.8069   20.3580 H       1  UNL1        0.1502
     25 C          -3.2389    3.8873   18.8820 C.ar    1  UNL1        0.0533
     26 C          -4.2984    3.9183   17.8206 C.ar    1  UNL1        0.0045
     27 C          -5.7467    3.8478   18.2044 C.ar    1  UNL1        0.0001
     28 C          -6.1356    3.7464   19.6496 C.ar    1  UNL1        0.0039
     29 C          -5.0761    3.7154   20.7110 C.ar    1  UNL1        0.0716
     30 C          -3.6278    3.7858   20.3272 C.ar    1  UNL1        0.0084
     31 C          -5.4650    3.6140   22.1561 C.3     1  UNL1        0.4186
     32 F          -5.8539    3.5125   23.6013 F       1  UNL1       -0.1659
     33 F          -4.0969    3.0961   22.4879 F       1  UNL1       -0.1659
     34 F          -6.8331    4.1319   21.8243 F       1  UNL1       -0.1659
@<TRIPOS>BOND
     1    18    19    1
     2    19    17    1
     3    17    16    1
     4     5    16    1
     5     5     6    1
     6     6     7    1
     7     7    11    1
     8    11    12    1
     9    11    13    1
    10    13    14    1
    11    13    15    1
    12     7     8    1
    13     8     9    1
    14     9    10    1
    15    10     1    1
    16     1     2   am
    17     2     3    2
    18     2    20    1
    19    20    21    1
    20    21    22   am
    21    22    23    2
    22    22    25    1
    23    25    26   ar
    24    26    27   ar
    25    27    28   ar
    26    28    29   ar
    27    29    31    1
    28    31    32    1
    29    31    33    1
    30    31    34    1
    31    29    30   ar
    32    10     5    1
    33    30    25   ar
    34     1     4    1
    35    21    24    1
@<TRIPOS>MOLECULE
*****
 34 35 0 0 0
SMALL
GASTEIGER

@<TRIPOS>ATOM
      1 N          -0.5637    1.7360   20.8309 N.am    1  UNL1       -0.3046
      2 C          -0.4442    2.8699   19.8563 C.2     1  UNL1        0.2425
      3 O           0.8030    3.0272   19.0379 O.2     1  UNL1       -0.2733
      4 H          -1.3823    1.6328   21.3680 H       1  UNL1        0.1494
      5 C           1.3649    0.7350   22.2551 C.3     1  UNL1        0.0193
      6 C           2.4926   -0.2416   22.4113 C.3     1  UNL1        0.0176
      7 C           2.8193   -1.1941   21.2995 C.3     1  UNL1        0.0576
      8 C           2.0183   -1.1699   20.0315 C.3     1  UNL1        0.0176
      9 C           0.8907   -0.1932   19.8753 C.3     1  UNL1        0.0209
     10 C           0.5640    0.7593   20.9871 C.3     1  UNL1        0.0716
     11 N           3.9470   -2.1708   21.4558 N.3     1  UNL1       -0.2741
     12 C           4.5162   -2.4479   22.8156 C.3     1  UNL1        0.0896
     13 C           4.5055   -2.8704   20.2522 C.3     1  UNL1        0.0576
     14 C           4.0059   -4.2346   19.8785 C.3     1  UNL1        0.0173
     15 C           5.5635   -2.2059   19.4222 C.3     1  UNL1        0.0173
     16 C           1.0382    1.6875   23.3669 C.3     1  UNL1        0.0017
     17 C           0.5177    1.1653   24.6731 C.3     1  UNL1        0.0001
     18 C          -0.6133    1.9383   26.8807 C.3     1  UNL1        0.0000
     19 C          -0.5898    1.8875   25.3817 C.3     1  UNL1        0.0000
     20 C          -1.5720    3.8466   19.7000 C.3     1  UNL1        0.1759
     21 N          -2.5167    4.0899   20.8394 N.am    1  UNL1       -0.2931
     22 C          -3.9862    3.8488   20.6597 C.2     1  UNL1        0.2462
     23 O          -4.5110    3.3643   19.3406 O.2     1  UNL1       -0.2701
     24 H          -2.1723    4.4079   21.7051 H       1  UNL1        0.1502
     25 C          -4.9311    4.0921   21.7991 C.ar    1  UNL1        0.0533
     26 C          -6.3622    4.4473   21.5239 C.ar    1  UNL1        0.0045
     27 C          -7.3069    4.6906   22.6632 C.ar    1  UNL1        0.0001
     28 C          -6.8206    4.5786   24.0778 C.ar    1  UNL1        0.0039
     29 C          -5.3895    4.2234   24.3530 C.ar    1  UNL1        0.0716
     30 C          -4.4447    3.9801   23.2136 C.ar    1  UNL1        0.0084
     31 C          -4.9032    4.1115   25.7675 C.3     1  UNL1        0.4186
     32 F          -4.4169    3.9996   27.1821 F       1  UNL1       -0.1659
     33 F          -3.7597    3.2570   25.3068 F       1  UNL1       -0.1659
     34 F          -6.0467    4.9660   26.2283 F       1  UNL1       -0.1659
@<TRIPOS>BOND
     1    18    19    1
     2    19    17    1
     3    17    16    1
     4     5    16    1
     5     5     6    1
     6     6     7    1
     7     7    11    1
     8    11    12    1
     9    11    13    1
    10    13    14    1
    11    13    15    1
    12     7     8    1
    13     8     9    1
    14     9    10    1
    15    10     1    1
    16     1     2   am
    17     2     3    2
    18     2    20    1
    19    20    21    1
    20    21    22   am
    21    22    23    2
    22    22    25    1
    23    25    26   ar
    24    26    27   ar
    25    27    28   ar
    26    28    29   ar
    27    29    31    1
    28    31    32    1
    29    31    33    1
    30    31    34    1
    31    29    30   ar
    32    10     5    1
    33    30    25   ar
    34     1     4    1
    35    21    24    1
@<TRIPOS>MOLECULE
*****
 34 35 0 0 0
SMALL
GASTEIGER

@<TRIPOS>ATOM
      1 N           6.6096   -4.2251   23.2968 N.am    1  UNL1       -0.3046
      2 C           7.7637   -3.9236   22.3873 C.2     1  UNL1        0.2425
      3 O           9.0710   -3.4640   22.9616 O.2     1  UNL1       -0.2733
      4 H           5.7516   -4.5267   22.9199 H       1  UNL1        0.1494
      5 C           7.4529   -5.1314   25.5810 C.3     1  UNL1        0.0193
      6 C           7.6061   -4.9732   27.0647 C.3     1  UNL1        0.0176
      7 C           7.0691   -3.7507   27.7480 C.3     1  UNL1        0.0576
      8 C           6.3789   -2.6863   26.9477 C.3     1  UNL1        0.0176
      9 C           6.2258   -2.8444   25.4639 C.3     1  UNL1        0.0209
     10 C           6.7628   -4.0670   24.7806 C.3     1  UNL1        0.0716
     11 N           7.2223   -3.5926   29.2318 N.3     1  UNL1       -0.2741
     12 C           6.7118   -2.3564   29.9110 C.3     1  UNL1        0.0896
     13 C           7.8859   -4.6706   30.0364 C.3     1  UNL1        0.0576
     14 C           9.3730   -4.6526   30.2322 C.3     1  UNL1        0.0173
     15 C           7.0625   -5.7667   30.6453 C.3     1  UNL1        0.0173
     16 C           7.9900   -6.3539   24.8976 C.3     1  UNL1        0.0017
     17 C           7.7793   -7.7078   25.5080 C.3     1  UNL1        0.0001
     18 C           8.5527   -8.7318   27.7671 C.3     1  UNL1        0.0000
     19 C           8.8530   -8.3239   26.3551 C.3     1  UNL1        0.0000
     20 C           7.6105   -4.0817   20.9035 C.3     1  UNL1        0.1759
     21 N           6.8251   -3.0730   20.1189 N.am    1  UNL1       -0.2931
     22 C           5.3278   -3.1536   20.0804 C.2     1  UNL1        0.2462
     23 O           4.6159   -4.2429   20.8265 O.2     1  UNL1       -0.2701
     24 H           7.2924   -2.3581   19.6292 H       1  UNL1        0.1502
     25 C           4.5423   -2.1449   19.2958 C.ar    1  UNL1        0.0533
     26 C           5.0530   -1.6630   17.9703 C.ar    1  UNL1        0.0045
     27 C           4.2675   -0.6543   17.1857 C.ar    1  UNL1        0.0001
     28 C           2.9714   -0.1275   17.7266 C.ar    1  UNL1        0.0039
     29 C           2.4608   -0.6094   19.0521 C.ar    1  UNL1        0.0716
     30 C           3.2462   -1.6181   19.8367 C.ar    1  UNL1        0.0084
     31 C           1.1647   -0.0826   19.5931 C.3     1  UNL1        0.4186
     32 F          -0.1314    0.4442   20.1340 F       1  UNL1       -0.1659
     33 F           0.8740    0.5612   18.2698 F       1  UNL1       -0.1659
     34 F           1.4553   -0.7264   20.9164 F       1  UNL1       -0.1659
@<TRIPOS>BOND
     1    18    19    1
     2    19    17    1
     3    17    16    1
     4     5    16    1
     5     5     6    1
     6     6     7    1
     7     7    11    1
     8    11    12    1
     9    11    13    1
    10    13    14    1
    11    13    15    1
    12     7     8    1
    13     8     9    1
    14     9    10    1
    15    10     1    1
    16     1     2   am
    17     2     3    2
    18     2    20    1
    19    20    21    1
    20    21    22   am
    21    22    23    2
    22    22    25    1
    23    25    26   ar
    24    26    27   ar
    25    27    28   ar
    26    28    29   ar
    27    29    31    1
    28    31    32    1
    29    31    33    1
    30    31    34    1
    31    29    30   ar
    32    10     5    1
    33    30    25   ar
    34     1     4    1
    35    21    24    1
@<TRIPOS>MOLECULE
*****
 34 35 0 0 0
SMALL
GASTEIGER

@<TRIPOS>ATOM
      1 N           0.3853    1.8619   21.3194 N.am    1  UNL1       -0.3046
      2 C           0.7223    3.1618   20.6510 C.2     1  UNL1        0.2425
      3 O           1.9833    3.2876   19.8484 O.2     1  UNL1       -0.2733
      4 H          -0.4424    1.7794   21.8461 H       1  UNL1        0.1494
      5 C           2.3014    0.3867   22.2692 C.3     1  UNL1        0.0193
      6 C           3.2253   -0.7873   22.1351 C.3     1  UNL1        0.0176
      7 C           3.1571   -1.6601   20.9171 C.3     1  UNL1        0.0576
      8 C           2.1650   -1.3589   19.8332 C.3     1  UNL1        0.0176
      9 C           1.2411   -0.1849   19.9673 C.3     1  UNL1        0.0209
     10 C           1.3093    0.6879   21.1853 C.3     1  UNL1        0.0716
     11 N           4.0811   -2.8341   20.7830 N.3     1  UNL1       -0.2741
     12 C           4.7163   -3.4319   22.0034 C.3     1  UNL1        0.0896
     13 C           4.3699   -3.4104   19.4286 C.3     1  UNL1        0.0576
     14 C           3.6761   -4.6636   18.9832 C.3     1  UNL1        0.0173
     15 C           5.3526   -2.7336   18.5195 C.3     1  UNL1        0.0173
     16 C           2.3696    1.2594   23.4873 C.3     1  UNL1        0.0017
     17 C           1.6482    0.8573   24.7394 C.3     1  UNL1        0.0001
     18 C          -0.2844    1.4630   26.3668 C.3     1  UNL1        0.0000
     19 C           0.2356    1.3068   24.9685 C.3     1  UNL1        0.0000
     20 C          -0.2017    4.3358   20.7850 C.3     1  UNL1        0.1759
     21 N          -1.0991    4.4511   21.9814 N.am    1  UNL1       -0.2931
     22 C          -2.3972    3.7005   22.0203 C.2     1  UNL1        0.2462
     23 O          -2.7978    2.8345   20.8629 O.2     1  UNL1       -0.2701
     24 H          -0.8362    5.0195   22.7410 H       1  UNL1        0.1502
     25 C          -3.2947    3.8158   23.2167 C.ar    1  UNL1        0.0533
     26 C          -2.7434    3.5863   24.5927 C.ar    1  UNL1        0.0045
     27 C          -3.6409    3.7016   25.7890 C.ar    1  UNL1        0.0001
     28 C          -5.0896    4.0464   25.6093 C.ar    1  UNL1        0.0039
     29 C          -5.6409    4.2760   24.2333 C.ar    1  UNL1        0.0716
     30 C          -4.7434    4.1607   23.0370 C.ar    1  UNL1        0.0084
     31 C          -7.0896    4.6208   24.0537 C.3     1  UNL1        0.4186
     32 F          -8.5383    4.9657   23.8740 F       1  UNL1       -0.1659
     33 F          -7.0804    5.3441   25.3677 F       1  UNL1       -0.1659
     34 F          -7.0988    3.8975   22.7396 F       1  UNL1       -0.1659
@<TRIPOS>BOND
     1    18    19    1
     2    19    17    1
     3    17    16    1
     4     5    16    1
     5     5     6    1
     6     6     7    1
     7     7    11    1
     8    11    12    1
     9    11    13    1
    10    13    14    1
    11    13    15    1
    12     7     8    1
    13     8     9    1
    14     9    10    1
    15    10     1    1
    16     1     2   am
    17     2     3    2
    18     2    20    1
    19    20    21    1
    20    21    22   am
    21    22    23    2
    22    22    25    1
    23    25    26   ar
    24    26    27   ar
    25    27    28   ar
    26    28    29   ar
    27    29    31    1
    28    31    32    1
    29    31    33    1
    30    31    34    1
    31    29    30   ar
    32    10     5    1
    33    30    25   ar
    34     1     4    1
    35    21    24    1
@<TRIPOS>MOLECULE
*****
 34 35 0 0 0
SMALL
GASTEIGER

@<TRIPOS>ATOM
      1 N           2.9084   -0.8531   26.1636 N.am    1  UNL1       -0.3046
      2 C           2.9784    0.3951   25.3347 C.2     1  UNL1        0.2425
      3 O           3.7789    1.5697   25.8137 O.2     1  UNL1       -0.2733
      4 H           2.3829   -1.6240   25.8491 H       1  UNL1        0.1494
      5 C           2.8989   -0.7063   28.7575 C.3     1  UNL1        0.0193
      6 C           3.6295   -0.7799   30.0654 C.3     1  UNL1        0.0176
      7 C           5.1002   -1.0740   30.0875 C.3     1  UNL1        0.0576
      8 C           5.8403   -1.2944   28.8016 C.3     1  UNL1        0.0176
      9 C           5.1097   -1.2208   27.4936 C.3     1  UNL1        0.0209
     10 C           3.6390   -0.9267   27.4716 C.3     1  UNL1        0.0716
     11 N           5.8308   -1.1476   31.3955 N.3     1  UNL1       -0.2741
     12 C           6.7617   -0.0424   31.7978 C.3     1  UNL1        0.0896
     13 C           5.6305   -2.3265   32.3011 C.3     1  UNL1        0.0576
     14 C           6.4865   -3.5481   32.1425 C.3     1  UNL1        0.0173
     15 C           4.5743   -2.2838   33.3653 C.3     1  UNL1        0.0173
     16 C           1.4281   -0.4122   28.7355 C.3     1  UNL1        0.0017
     17 C           0.9461    0.9823   28.4654 C.3     1  UNL1        0.0001
     18 C          -1.5078    0.2512   28.9061 C.3     1  UNL1        0.0000
     19 C          -0.5251    1.2695   28.4086 C.3     1  UNL1        0.0000
     20 C           2.2477    0.4687   24.0266 C.3     1  UNL1        0.1759
     21 N           2.9026   -0.0300   22.7727 N.am    1  UNL1       -0.2931
     22 C           2.1485   -0.0157   21.4761 C.2     1  UNL1        0.2462
     23 O           0.7396    0.4974   21.4335 O.2     1  UNL1       -0.2701
     24 H           3.8273   -0.3667   22.8007 H       1  UNL1        0.1502
     25 C           2.8034   -0.5144   20.2221 C.ar    1  UNL1        0.0533
     26 C           3.0605    0.4285   19.0842 C.ar    1  UNL1        0.0045
     27 C           3.7153   -0.0702   17.8303 C.ar    1  UNL1        0.0001
     28 C           4.1130   -1.5119   17.7142 C.ar    1  UNL1        0.0039
     29 C           3.8559   -2.4548   18.8520 C.ar    1  UNL1        0.0716
     30 C           3.2011   -1.9560   20.1060 C.ar    1  UNL1        0.0084
     31 C           4.2536   -3.8964   18.7359 C.3     1  UNL1        0.4186
     32 F           4.6513   -5.3381   18.6198 F       1  UNL1       -0.1659
     33 F           5.6530   -3.4825   18.3892 F       1  UNL1       -0.1659
     34 F           2.8542   -4.3104   19.0827 F       1  UNL1       -0.1659
@<TRIPOS>BOND
     1    18    19    1
     2    19    17    1
     3    17    16    1
     4     5    16    1
     5     5     6    1
     6     6     7    1
     7     7    11    1
     8    11    12    1
     9    11    13    1
    10    13    14    1
    11    13    15    1
    12     7     8    1
    13     8     9    1
    14     9    10    1
    15    10     1    1
    16     1     2   am
    17     2     3    2
    18     2    20    1
    19    20    21    1
    20    21    22   am
    21    22    23    2
    22    22    25    1
    23    25    26   ar
    24    26    27   ar
    25    27    28   ar
    26    28    29   ar
    27    29    31    1
    28    31    32    1
    29    31    33    1
    30    31    34    1
    31    29    30   ar
    32    10     5    1
    33    30    25   ar
    34     1     4    1
    35    21    24    1
@<TRIPOS>MOLECULE
*****
 34 35 0 0 0
SMALL
GASTEIGER

@<TRIPOS>ATOM
      1 N           6.4867   -4.2730   23.4353 N.am    1  UNL1       -0.3046
      2 C           7.6991   -4.1182   22.5658 C.2     1  UNL1        0.2425
      3 O           9.0305   -3.8083   23.1835 O.2     1  UNL1       -0.2733
      4 H           5.6130   -4.4764   23.0299 H       1  UNL1        0.1494
      5 C           6.4678   -2.7621   25.5488 C.3     1  UNL1        0.0193
      6 C           6.5867   -2.6072   27.0360 C.3     1  UNL1        0.0176
      7 C           6.8434   -3.8083   27.8970 C.3     1  UNL1        0.0576
      8 C           6.9812   -5.1644   27.2708 C.3     1  UNL1        0.0176
      9 C           6.8623   -5.3192   25.7836 C.3     1  UNL1        0.0209
     10 C           6.6056   -4.1181   24.9226 C.3     1  UNL1        0.0716
     11 N           6.9623   -3.6534   29.3843 N.3     1  UNL1       -0.2741
     12 C           6.3046   -2.4941   30.0725 C.3     1  UNL1        0.0896
     13 C           7.7388   -4.6576   30.1833 C.3     1  UNL1        0.0576
     14 C           9.2381   -4.6562   30.1359 C.3     1  UNL1        0.0173
     15 C           7.0161   -5.6633   31.0296 C.3     1  UNL1        0.0173
     16 C           6.2112   -1.5609   24.6877 C.3     1  UNL1        0.0017
     17 C           4.8559   -0.9182   24.6817 C.3     1  UNL1        0.0001
     18 C           2.7324   -0.3332   23.3037 C.3     1  UNL1        0.0000
     19 C           3.8648   -1.2677   23.6114 C.3     1  UNL1        0.0000
     20 C           7.5803   -4.2731   21.0785 C.3     1  UNL1        0.1759
     21 N           6.8572   -3.2357   20.2718 N.am    1  UNL1       -0.2931
     22 C           5.3606   -3.2688   20.1763 C.2     1  UNL1        0.2462
     23 O           4.5872   -4.3393   20.8875 O.2     1  UNL1       -0.2701
     24 H           7.3648   -2.5331   19.8050 H       1  UNL1        0.1502
     25 C           4.6374   -2.2313   19.3696 C.ar    1  UNL1        0.0533
     26 C           5.2219   -1.7448   18.0767 C.ar    1  UNL1        0.0045
     27 C           4.4987   -0.7074   17.2700 C.ar    1  UNL1        0.0001
     28 C           3.1910   -0.1565   17.7563 C.ar    1  UNL1        0.0039
     29 C           2.6065   -0.6430   19.0491 C.ar    1  UNL1        0.0716
     30 C           3.3297   -1.6804   19.8558 C.ar    1  UNL1        0.0084
     31 C           1.2988   -0.0921   19.5354 C.3     1  UNL1        0.4186
     32 F          -0.0089    0.4588   20.0216 F       1  UNL1       -0.1659
     33 F           1.2241   -1.1792   20.5662 F       1  UNL1       -0.1659
     34 F           1.3735    0.9950   18.5045 F       1  UNL1       -0.1659
@<TRIPOS>BOND
     1    18    19    1
     2    19    17    1
     3    17    16    1
     4     5    16    1
     5     5     6    1
     6     6     7    1
     7     7    11    1
     8    11    12    1
     9    11    13    1
    10    13    14    1
    11    13    15    1
    12     7     8    1
    13     8     9    1
    14     9    10    1
    15    10     1    1
    16     1     2   am
    17     2     3    2
    18     2    20    1
    19    20    21    1
    20    21    22   am
    21    22    23    2
    22    22    25    1
    23    25    26   ar
    24    26    27   ar
    25    27    28   ar
    26    28    29   ar
    27    29    31    1
    28    31    32    1
    29    31    33    1
    30    31    34    1
    31    29    30   ar
    32    10     5    1
    33    30    25   ar
    34     1     4    1
    35    21    24    1
@<TRIPOS>MOLECULE
*****
 34 35 0 0 0
SMALL
GASTEIGER

@<TRIPOS>ATOM
      1 N          -0.0242    3.4283   22.8989 N.am    1  UNL1       -0.3046
      2 C          -0.0673    2.6048   21.6460 C.2     1  UNL1        0.2425
      3 O          -1.3865    2.2521   21.0253 O.2     1  UNL1       -0.2733
      4 H           0.8417    3.6598   23.3063 H       1  UNL1        0.1494
      5 C          -1.7830    3.2701   24.8046 C.3     1  UNL1        0.0193
      6 C          -3.0591    3.7409   25.4369 C.3     1  UNL1        0.0176
      7 C          -3.8525    4.8407   24.7960 C.3     1  UNL1        0.0576
      8 C          -3.3699    5.4698   23.5227 C.3     1  UNL1        0.0176
      9 C          -2.0938    4.9990   22.8904 C.3     1  UNL1        0.0209
     10 C          -1.3004    3.8991   23.5313 C.3     1  UNL1        0.0716
     11 N          -5.1287    5.3115   25.4284 N.3     1  UNL1       -0.2741
     12 C          -5.1516    5.6895   26.8798 C.3     1  UNL1        0.0896
     13 C          -6.3819    5.4042   24.6093 C.3     1  UNL1        0.0576
     14 C          -7.3228    6.5559   24.8058 C.3     1  UNL1        0.0173
     15 C          -6.6944    4.3453   23.5939 C.3     1  UNL1        0.0173
     16 C          -0.9896    2.1702   25.4455 C.3     1  UNL1        0.0017
     17 C          -0.6649    2.2342   26.9085 C.3     1  UNL1        0.0001
     18 C          -1.3493    0.4428   28.6614 C.3     1  UNL1        0.0000
     19 C          -0.3620    0.9750   27.6653 C.3     1  UNL1        0.0000
     20 C           1.2089    2.1340   21.0136 C.3     1  UNL1        0.1759
     21 N           1.8041    0.8173   21.4159 N.am    1  UNL1       -0.2931
     22 C           2.7673    0.1192   20.5023 C.2     1  UNL1        0.2462
     23 O           3.1353    0.7379   19.1863 O.2     1  UNL1       -0.2701
     24 H           1.5625    0.4113   22.2797 H       1  UNL1        0.1502
     25 C           3.3626   -1.1976   20.9046 C.ar    1  UNL1        0.0533
     26 C           3.7063   -1.4576   22.3414 C.ar    1  UNL1        0.0045
     27 C           4.3015   -2.7743   22.7436 C.ar    1  UNL1        0.0001
     28 C           4.5531   -3.8310   21.7092 C.ar    1  UNL1        0.0039
     29 C           4.2094   -3.5710   20.2725 C.ar    1  UNL1        0.0716
     30 C           3.6141   -2.2543   19.8702 C.ar    1  UNL1        0.0084
     31 C           4.4609   -4.6277   19.2380 C.3     1  UNL1        0.4186
     32 F           4.7124   -5.6844   18.2036 F       1  UNL1       -0.1659
     33 F           5.4632   -3.7344   18.5692 F       1  UNL1       -0.1659
     34 F           3.4586   -5.5210   19.9068 F       1  UNL1       -0.1659
@<TRIPOS>BOND
     1    18    19    1
     2    19    17    1
     3    17    16    1
     4     5    16    1
     5     5     6    1
     6     6     7    1
     7     7    11    1
     8    11    12    1
     9    11    13    1
    10    13    14    1
    11    13    15    1
    12     7     8    1
    13     8     9    1
    14     9    10    1
    15    10     1    1
    16     1     2   am
    17     2     3    2
    18     2    20    1
    19    20    21    1
    20    21    22   am
    21    22    23    2
    22    22    25    1
    23    25    26   ar
    24    26    27   ar
    25    27    28   ar
    26    28    29   ar
    27    29    31    1
    28    31    32    1
    29    31    33    1
    30    31    34    1
    31    29    30   ar
    32    10     5    1
    33    30    25   ar
    34     1     4    1
    35    21    24    1
