@<TRIPOS>MOLECULE
*****
 27 30 0 0 0
SMALL
GASTEIGER

@<TRIPOS>ATOM
      1 C           2.8673    0.5658   18.0861 C.3     1  UNL1        0.1331
      2 C           1.3954    0.7317   18.3226 C.3     1  UNL1        0.0424
      3 C           1.1401    2.1696   18.6650 C.3     1  UNL1        0.0752
      4 C           2.4543    2.8924   18.6401 C.3     1  UNL1        0.0851
      5 N           3.5218    1.9011   18.2824 N.3     1  UNL1       -0.2902
      6 H           4.2070    1.8434   19.0357 H       1  UNL1        0.1237
      7 O           3.9258   -0.9824   16.2881 O.2     1  UNL1       -0.2734
      8 C           3.5626   -0.7114   17.7180 C.2     1  UNL1        0.2401
      9 N           3.8948   -1.7174   18.7798 N.am    1  UNL1       -0.2730
     10 C           4.5845   -3.0319   18.5641 C.3     1  UNL1        0.0993
     11 C           4.7115   -3.7125   19.8947 C.3     1  UNL1        0.0898
     12 C           4.1004   -2.8188   20.9328 C.3     1  UNL1        0.2835
     13 F           4.4946   -3.9128   21.8803 F       1  UNL1       -0.2024
     14 F           3.5716   -2.1536   22.1690 F       1  UNL1       -0.2024
     15 C           3.5956   -1.5857   20.2437 C.3     1  UNL1        0.1601
     16 N          -0.1949    2.7781   18.9774 N.3     1  UNL1       -0.2697
     17 C          -0.9024    3.6048   17.9450 C.3     1  UNL1        0.0939
     18 C          -2.2374    4.2132   18.2575 C.3     1  UNL1        0.1109
     19 N          -2.8649    3.9948   19.6023 N.pl3   1  UNL1       -0.2753
     20 C          -2.1574    3.1681   20.6347 C.3     1  UNL1        0.1109
     21 C          -0.8224    2.5597   20.3223 C.3     1  UNL1        0.0939
     22 C          -4.1999    4.6033   19.9147 C.ar    1  UNL1        0.2203
     23 N          -5.1896    3.8502   20.7533 N.ar    1  UNL1       -0.2121
     24 C          -6.5246    4.4586   21.0657 C.ar    1  UNL1        0.1034
     25 C          -6.8699    5.8202   20.5395 C.ar    1  UNL1        0.0414
     26 C          -5.8801    6.5733   19.7009 C.ar    1  UNL1        0.1034
     27 N          -4.5452    5.9649   19.3885 N.ar    1  UNL1       -0.2121
@<TRIPOS>BOND
     1     7     8    2
     2     1     8    1
     3     1     2    1
     4     2     3    1
     5     3    16    1
     6    16    17    1
     7    17    18    1
     8    18    19    1
     9    19    22    1
    10    22    23   ar
    11    23    24   ar
    12    24    25   ar
    13    25    26   ar
    14    26    27   ar
    15    19    20    1
    16    20    21    1
    17     3     4    1
    18     4     5    1
    19     8     9   am
    20     9    10    1
    21    10    11    1
    22    11    12    1
    23    12    13    1
    24    12    14    1
    25    12    15    1
    26     5     1    1
    27    15     9    1
    28    21    16    1
    29    27    22   ar
    30     5     6    1
@<TRIPOS>MOLECULE
*****
 27 30 0 0 0
SMALL
GASTEIGER

@<TRIPOS>ATOM
      1 C           5.6955   -3.7531   20.8322 C.3     1  UNL1        0.1331
      2 C           5.2970   -3.6189   22.2721 C.3     1  UNL1        0.0424
      3 C           6.4689   -4.0223   23.1169 C.3     1  UNL1        0.0752
      4 C           7.5918   -4.4058   22.1992 C.3     1  UNL1        0.0851
      5 N           7.1138   -4.2394   20.7872 N.3     1  UNL1       -0.2902
      6 H           7.1576   -5.1341   20.2993 H       1  UNL1        0.1237
      7 O           3.9605   -4.5281   19.0605 O.2     1  UNL1       -0.2734
      8 C           4.8281   -3.4535   19.6457 C.2     1  UNL1        0.2401
      9 N           4.8283   -2.0793   19.0444 N.am    1  UNL1       -0.2730
     10 C           4.0180   -1.6336   17.8634 C.3     1  UNL1        0.0993
     11 C           4.3277   -0.1885   17.6076 C.3     1  UNL1        0.0898
     12 C           5.3294    0.2591   18.6304 C.3     1  UNL1        0.2835
     13 F           5.2249    1.5790   17.9254 F       1  UNL1       -0.2024
     14 F           6.3093    0.9824   19.5060 F       1  UNL1       -0.2024
     15 C           5.6388   -0.9096   19.5184 C.3     1  UNL1        0.1601
     16 N           6.5108   -4.0392   24.6163 N.3     1  UNL1       -0.2697
     17 C           6.1512   -2.8058   25.3906 C.3     1  UNL1        0.0939
     18 C           6.1931   -2.8228   26.8899 C.3     1  UNL1        0.1109
     19 N           6.5944   -4.0731   27.6149 N.pl3   1  UNL1       -0.2753
     20 C           6.9539   -5.3065   26.8406 C.3     1  UNL1        0.1109
     21 C           6.9121   -5.2895   25.3413 C.3     1  UNL1        0.0939
     22 C           6.6362   -4.0901   29.1143 C.ar    1  UNL1        0.2203
     23 N           6.9302   -5.3683   29.8420 N.ar    1  UNL1       -0.2121
     24 C           6.9720   -5.3852   31.3414 C.ar    1  UNL1        0.1034
     25 C           6.7198   -4.1238   32.1129 C.ar    1  UNL1        0.0414
     26 C           6.4259   -2.8455   31.3851 C.ar    1  UNL1        0.1034
     27 N           6.3841   -2.8287   29.8859 N.ar    1  UNL1       -0.2121
@<TRIPOS>BOND
     1     7     8    2
     2     1     8    1
     3     1     2    1
     4     2     3    1
     5     3    16    1
     6    16    17    1
     7    17    18    1
     8    18    19    1
     9    19    22    1
    10    22    23   ar
    11    23    24   ar
    12    24    25   ar
    13    25    26   ar
    14    26    27   ar
    15    19    20    1
    16    20    21    1
    17     3     4    1
    18     4     5    1
    19     8     9   am
    20     9    10    1
    21    10    11    1
    22    11    12    1
    23    12    13    1
    24    12    14    1
    25    12    15    1
    26     5     1    1
    27    15     9    1
    28    21    16    1
    29    27    22   ar
    30     5     6    1
@<TRIPOS>MOLECULE
*****
 27 30 0 0 0
SMALL
GASTEIGER

@<TRIPOS>ATOM
      1 C          -0.0885    1.3770   27.1335 C.3     1  UNL1        0.1331
      2 C           0.6522    2.0082   28.2749 C.3     1  UNL1        0.0424
      3 C           0.6809    1.0262   29.4084 C.3     1  UNL1        0.0752
      4 C          -0.0422   -0.2119   28.9675 C.3     1  UNL1        0.0851
      5 N          -0.5177    0.0049   27.5615 N.3     1  UNL1       -0.2902
      6 H          -1.5345   -0.0668   27.5251 H       1  UNL1        0.1237
      7 O           0.6124    1.8055   24.6687 O.2     1  UNL1       -0.2734
      8 C          -0.3536    2.0073   25.7984 C.2     1  UNL1        0.2401
      9 N          -1.5846    2.8394   25.5929 N.am    1  UNL1       -0.2730
     10 C          -1.9809    3.5286   24.3209 C.3     1  UNL1        0.0993
     11 C          -3.2766    4.2434   24.5653 C.3     1  UNL1        0.0898
     12 C          -3.6814    3.9961   25.9883 C.3     1  UNL1        0.2835
     13 F          -4.8633    4.8495   25.6352 F       1  UNL1       -0.2024
     14 F          -4.3331    3.9271   27.3376 F       1  UNL1       -0.2024
     15 C          -2.6356    3.1283   26.6234 C.3     1  UNL1        0.1601
     16 N           1.3203    1.2440   30.7478 N.3     1  UNL1       -0.2697
     17 C           2.4925    0.4059   31.1644 C.3     1  UNL1        0.0939
     18 C           3.1319    0.6237   32.5037 C.3     1  UNL1        0.1109
     19 N           2.5991    1.6797   33.4263 N.pl3   1  UNL1       -0.2753
     20 C           1.4270    2.5177   33.0096 C.3     1  UNL1        0.1109
     21 C           0.7876    2.2999   31.6704 C.3     1  UNL1        0.0939
     22 C           3.2386    1.8975   34.7656 C.ar    1  UNL1        0.2203
     23 N           4.7112    1.6712   34.9393 N.ar    1  UNL1       -0.2121
     24 C           5.3507    1.8891   36.2786 C.ar    1  UNL1        0.1034
     25 C           4.5174    2.3331   37.4442 C.ar    1  UNL1        0.0414
     26 C           3.0448    2.5593   37.2705 C.ar    1  UNL1        0.1034
     27 N           2.4054    2.3415   35.9312 N.ar    1  UNL1       -0.2121
@<TRIPOS>BOND
     1     7     8    2
     2     1     8    1
     3     1     2    1
     4     2     3    1
     5     3    16    1
     6    16    17    1
     7    17    18    1
     8    18    19    1
     9    19    22    1
    10    22    23   ar
    11    23    24   ar
    12    24    25   ar
    13    25    26   ar
    14    26    27   ar
    15    19    20    1
    16    20    21    1
    17     3     4    1
    18     4     5    1
    19     8     9   am
    20     9    10    1
    21    10    11    1
    22    11    12    1
    23    12    13    1
    24    12    14    1
    25    12    15    1
    26     5     1    1
    27    15     9    1
    28    21    16    1
    29    27    22   ar
    30     5     6    1
@<TRIPOS>MOLECULE
*****
 27 30 0 0 0
SMALL
GASTEIGER

@<TRIPOS>ATOM
      1 C           3.0485    0.4971   19.4799 C.3     1  UNL1        0.1331
      2 C           2.3230    1.0738   20.6594 C.3     1  UNL1        0.0424
      3 C           0.9952    1.5835   20.1828 C.3     1  UNL1        0.0752
      4 C           0.9001    1.3220   18.7088 C.3     1  UNL1        0.0851
      5 N           2.1691    0.6505   18.2744 N.3     1  UNL1       -0.2902
      6 H           2.6402    1.2216   17.5727 H       1  UNL1        0.1237
      7 O           5.6289    0.7414   19.6597 O.2     1  UNL1       -0.2734
      8 C           4.4138   -0.1239   19.5021 C.2     1  UNL1        0.2401
      9 N           4.5639   -1.6102   19.3667 N.am    1  UNL1       -0.2730
     10 C           5.8574   -2.3697   19.3710 C.3     1  UNL1        0.0993
     11 C           5.5399   -3.8268   19.2101 C.3     1  UNL1        0.0898
     12 C           4.0502   -3.9679   19.1063 C.3     1  UNL1        0.2835
     13 F           4.3552   -5.4313   18.9825 F       1  UNL1       -0.2024
     14 F           2.6241   -4.4148   18.9767 F       1  UNL1       -0.2024
     15 C           3.4470   -2.5979   19.2031 C.3     1  UNL1        0.1601
     16 N          -0.0535    2.2397   21.0313 N.3     1  UNL1       -0.2697
     17 C          -1.3040    2.7742   20.3983 C.3     1  UNL1        0.0939
     18 C          -2.3526    3.4303   21.2468 C.3     1  UNL1        0.1109
     19 N          -2.1507    3.5519   22.7282 N.pl3   1  UNL1       -0.2753
     20 C          -0.9002    3.0175   23.3611 C.3     1  UNL1        0.1109
     21 C           0.1484    2.3613   22.5126 C.3     1  UNL1        0.0939
     22 C          -3.1994    4.2081   23.5766 C.ar    1  UNL1        0.2203
     23 N          -4.2316    3.3720   24.2733 N.ar    1  UNL1       -0.2121
     24 C          -5.2803    4.0282   25.1217 C.ar    1  UNL1        0.1034
     25 C          -5.2967    5.5204   25.2735 C.ar    1  UNL1        0.0414
     26 C          -4.2643    6.3565   24.5767 C.ar    1  UNL1        0.1034
     27 N          -3.2157    5.7003   23.7283 N.ar    1  UNL1       -0.2121
@<TRIPOS>BOND
     1     7     8    2
     2     1     8    1
     3     1     2    1
     4     2     3    1
     5     3    16    1
     6    16    17    1
     7    17    18    1
     8    18    19    1
     9    19    22    1
    10    22    23   ar
    11    23    24   ar
    12    24    25   ar
    13    25    26   ar
    14    26    27   ar
    15    19    20    1
    16    20    21    1
    17     3     4    1
    18     4     5    1
    19     8     9   am
    20     9    10    1
    21    10    11    1
    22    11    12    1
    23    12    13    1
    24    12    14    1
    25    12    15    1
    26     5     1    1
    27    15     9    1
    28    21    16    1
    29    27    22   ar
    30     5     6    1
@<TRIPOS>MOLECULE
*****
 27 30 0 0 0
SMALL
GASTEIGER

@<TRIPOS>ATOM
      1 C          -2.7442    4.2334   20.8040 C.3     1  UNL1        0.1331
      2 C          -2.0824    2.8910   20.7042 C.3     1  UNL1        0.0424
      3 C          -0.7137    3.0909   20.1241 C.3     1  UNL1        0.0752
      4 C          -0.5295    4.5569   19.8654 C.3     1  UNL1        0.0851
      5 N          -1.7844    5.2630   20.2856 N.3     1  UNL1       -0.2902
      6 H          -2.1939    5.7464   19.4862 H       1  UNL1        0.1237
      7 O          -5.2083    4.9491   20.3966 O.2     1  UNL1       -0.2734
      8 C          -4.1236    4.4995   21.3300 C.2     1  UNL1        0.2401
      9 N          -4.4182    4.3160   22.7892 N.am    1  UNL1       -0.2730
     10 C          -5.7423    4.5424   23.4567 C.3     1  UNL1        0.0993
     11 C          -5.5828    4.2402   24.9172 C.3     1  UNL1        0.0898
     12 C          -4.1602    3.8270   25.1525 C.3     1  UNL1        0.2835
     13 F          -4.6019    3.6877   26.5792 F       1  UNL1       -0.2024
     14 F          -2.8298    3.3846   25.6859 F       1  UNL1       -0.2024
     15 C          -3.4404    3.8738   23.8373 C.3     1  UNL1        0.1601
     16 N           0.2940    2.0139   19.8507 N.3     1  UNL1       -0.2697
     17 C           0.1831    0.6891   20.5453 C.3     1  UNL1        0.0939
     18 C           1.1907   -0.3878   20.2719 C.3     1  UNL1        0.1109
     19 N           2.3094   -0.1399   19.3038 N.pl3   1  UNL1       -0.2753
     20 C           2.4203    1.1849   18.6092 C.3     1  UNL1        0.1109
     21 C           1.4127    2.2618   18.8826 C.3     1  UNL1        0.0939
     22 C           3.3171   -1.2169   19.0304 C.ar    1  UNL1        0.2203
     23 N           4.5316   -0.9152   18.2034 N.ar    1  UNL1       -0.2121
     24 C           5.5393   -1.9922   17.9299 C.ar    1  UNL1        0.1034
     25 C           5.3325   -3.3708   18.4836 C.ar    1  UNL1        0.0414
     26 C           4.1179   -3.6725   19.3107 C.ar    1  UNL1        0.1034
     27 N           3.1103   -2.5955   19.5840 N.ar    1  UNL1       -0.2121
@<TRIPOS>BOND
     1     7     8    2
     2     1     8    1
     3     1     2    1
     4     2     3    1
     5     3    16    1
     6    16    17    1
     7    17    18    1
     8    18    19    1
     9    19    22    1
    10    22    23   ar
    11    23    24   ar
    12    24    25   ar
    13    25    26   ar
    14    26    27   ar
    15    19    20    1
    16    20    21    1
    17     3     4    1
    18     4     5    1
    19     8     9   am
    20     9    10    1
    21    10    11    1
    22    11    12    1
    23    12    13    1
    24    12    14    1
    25    12    15    1
    26     5     1    1
    27    15     9    1
    28    21    16    1
    29    27    22   ar
    30     5     6    1
@<TRIPOS>MOLECULE
*****
 27 30 0 0 0
SMALL
GASTEIGER

@<TRIPOS>ATOM
      1 C           5.9931   -1.9948   20.3571 C.3     1  UNL1        0.1331
      2 C           5.9116   -1.7865   21.8403 C.3     1  UNL1        0.0424
      3 C           6.3592   -3.0511   22.5113 C.3     1  UNL1        0.0752
      4 C           6.7174   -4.0410   21.4427 C.3     1  UNL1        0.0851
      5 N           6.4912   -3.3882   20.1114 N.3     1  UNL1       -0.2902
      6 H           5.7976   -3.9152   19.5808 H       1  UNL1        0.1237
      7 O           6.7051   -0.4353   18.4048 O.2     1  UNL1       -0.2734
      8 C           5.6389   -0.9866   19.3043 C.2     1  UNL1        0.2401
      9 N           4.2184   -0.5298   19.1512 N.am    1  UNL1       -0.2730
     10 C           3.7159    0.4670   18.1493 C.3     1  UNL1        0.0993
     11 C           2.2380    0.6232   18.3519 C.3     1  UNL1        0.0898
     12 C           1.8268   -0.2771   19.4790 C.3     1  UNL1        0.2835
     13 F           0.4571    0.2713   19.2089 F       1  UNL1       -0.2024
     14 F           1.1295   -1.0628   20.5497 F       1  UNL1       -0.2024
     15 C           3.0509   -0.9897   19.9730 C.3     1  UNL1        0.1601
     16 N           6.4352   -3.2849   23.9911 N.3     1  UNL1       -0.2697
     17 C           6.9441   -4.5936   24.5184 C.3     1  UNL1        0.0939
     18 C           7.0201   -4.8273   25.9981 C.3     1  UNL1        0.1109
     19 N           6.5873   -3.7522   26.9504 N.pl3   1  UNL1       -0.2753
     20 C           6.0785   -2.4435   26.4231 C.3     1  UNL1        0.1109
     21 C           6.0024   -2.2098   24.9434 C.3     1  UNL1        0.0939
     22 C           6.6634   -3.9860   28.4302 C.ar    1  UNL1        0.2203
     23 N           6.5651   -2.8280   29.3785 N.ar    1  UNL1       -0.2121
     24 C           6.6411   -3.0617   30.8583 C.ar    1  UNL1        0.1034
     25 C           6.8155   -4.4535   31.3897 C.ar    1  UNL1        0.0414
     26 C           6.9138   -5.6116   30.4413 C.ar    1  UNL1        0.1034
     27 N           6.8377   -5.3778   28.9617 N.ar    1  UNL1       -0.2121
@<TRIPOS>BOND
     1     7     8    2
     2     1     8    1
     3     1     2    1
     4     2     3    1
     5     3    16    1
     6    16    17    1
     7    17    18    1
     8    18    19    1
     9    19    22    1
    10    22    23   ar
    11    23    24   ar
    12    24    25   ar
    13    25    26   ar
    14    26    27   ar
    15    19    20    1
    16    20    21    1
    17     3     4    1
    18     4     5    1
    19     8     9   am
    20     9    10    1
    21    10    11    1
    22    11    12    1
    23    12    13    1
    24    12    14    1
    25    12    15    1
    26     5     1    1
    27    15     9    1
    28    21    16    1
    29    27    22   ar
    30     5     6    1
@<TRIPOS>MOLECULE
*****
 27 30 0 0 0
SMALL
GASTEIGER

@<TRIPOS>ATOM
      1 C           3.8170   -0.0641   21.8007 C.3     1  UNL1        0.1331
      2 C           2.6830    0.9076   21.9414 C.3     1  UNL1        0.0424
      3 C           2.0439    0.6834   23.2798 C.3     1  UNL1        0.0752
      4 C           2.7829   -0.4268   23.9662 C.3     1  UNL1        0.0851
      5 N           3.8788   -0.8888   23.0522 N.3     1  UNL1       -0.2902
      6 H           3.7470   -1.8742   22.8242 H       1  UNL1        0.1237
      7 O           5.5745    0.9759   20.1945 O.2     1  UNL1       -0.2734
      8 C           4.7292   -0.1891   20.6164 C.2     1  UNL1        0.2401
      9 N           4.7960   -1.4793   19.8542 N.am    1  UNL1       -0.2730
     10 C           5.6562   -1.7518   18.6559 C.3     1  UNL1        0.0993
     11 C           5.4062   -3.1643   18.2175 C.3     1  UNL1        0.0898
     12 C           4.3915   -3.7649   19.1448 C.3     1  UNL1        0.2835
     13 F           4.5641   -4.9851   18.2897 F       1  UNL1       -0.2024
     14 F           3.4129   -4.6204   19.8934 F       1  UNL1       -0.2024
     15 C           4.0144   -2.7233   20.1563 C.3     1  UNL1        0.1601
     16 N           0.8715    1.4372   23.8344 N.3     1  UNL1       -0.2697
     17 C           0.4316    1.2043   25.2493 C.3     1  UNL1        0.0939
     18 C          -0.7408    1.9580   25.8038 C.3     1  UNL1        0.1109
     19 N          -1.4731    2.9446   24.9434 N.pl3   1  UNL1       -0.2753
     20 C          -1.0332    3.1774   23.5284 C.3     1  UNL1        0.1109
     21 C           0.1391    2.4237   22.9739 C.3     1  UNL1        0.0939
     22 C          -2.6455    3.6983   25.4980 C.ar    1  UNL1        0.2203
     23 N          -2.4561    4.6345   26.6545 N.ar    1  UNL1       -0.2121
     24 C          -3.6285    5.3883   27.2091 C.ar    1  UNL1        0.1034
     25 C          -4.9902    5.2057   26.6071 C.ar    1  UNL1        0.0414
     26 C          -5.1796    4.2694   25.4505 C.ar    1  UNL1        0.1034
     27 N          -4.0072    3.5157   24.8960 N.ar    1  UNL1       -0.2121
@<TRIPOS>BOND
     1     7     8    2
     2     1     8    1
     3     1     2    1
     4     2     3    1
     5     3    16    1
     6    16    17    1
     7    17    18    1
     8    18    19    1
     9    19    22    1
    10    22    23   ar
    11    23    24   ar
    12    24    25   ar
    13    25    26   ar
    14    26    27   ar
    15    19    20    1
    16    20    21    1
    17     3     4    1
    18     4     5    1
    19     8     9   am
    20     9    10    1
    21    10    11    1
    22    11    12    1
    23    12    13    1
    24    12    14    1
    25    12    15    1
    26     5     1    1
    27    15     9    1
    28    21    16    1
    29    27    22   ar
    30     5     6    1
@<TRIPOS>MOLECULE
*****
 27 30 0 0 0
SMALL
GASTEIGER

@<TRIPOS>ATOM
      1 C           6.8887   -3.0850   29.6018 C.3     1  UNL1        0.1331
      2 C           6.1476   -3.4888   28.3617 C.3     1  UNL1        0.0424
      3 C           6.9077   -2.9692   27.1776 C.3     1  UNL1        0.0752
      4 C           8.1186   -2.2444   27.6858 C.3     1  UNL1        0.0851
      5 N           8.1069   -2.3159   29.1840 N.3     1  UNL1       -0.2902
      6 H           8.0730   -1.3746   29.5753 H       1  UNL1        0.1237
      7 O           7.0245   -4.6156   31.6968 O.2     1  UNL1       -0.2734
      8 C           6.4829   -3.3958   31.0120 C.2     1  UNL1        0.2401
      9 N           5.5355   -2.4869   31.7375 N.am    1  UNL1       -0.2730
     10 C           5.0421   -2.6675   33.1424 C.3     1  UNL1        0.0993
     11 C           4.1169   -1.5301   33.4586 C.3     1  UNL1        0.0898
     12 C           4.0384   -0.6464   32.2491 C.3     1  UNL1        0.2835
     13 F           3.1044    0.1652   33.0970 F       1  UNL1       -0.2024
     14 F           3.7648    0.4069   31.2167 F       1  UNL1       -0.2024
     15 C           4.9152   -1.2378   31.1853 C.3     1  UNL1        0.1601
     16 N           6.5242   -3.1438   25.7379 N.3     1  UNL1       -0.2697
     17 C           5.5215   -2.2207   25.1116 C.3     1  UNL1        0.0939
     18 C           5.1381   -2.3954   23.6720 C.3     1  UNL1        0.1109
     19 N           5.7574   -3.4931   22.8588 N.pl3   1  UNL1       -0.2753
     20 C           6.7601   -4.4163   23.4851 C.3     1  UNL1        0.1109
     21 C           7.1435   -4.2416   24.9247 C.3     1  UNL1        0.0939
     22 C           5.3739   -3.6677   21.4191 C.ar    1  UNL1        0.2203
     23 N           4.3143   -4.6595   21.0402 N.ar    1  UNL1       -0.2121
     24 C           3.9309   -4.8341   19.6005 C.ar    1  UNL1        0.1034
     25 C           4.6071   -4.0169   18.5399 C.ar    1  UNL1        0.0414
     26 C           5.6668   -3.0252   18.9188 C.ar    1  UNL1        0.1034
     27 N           6.0502   -2.8506   20.3584 N.ar    1  UNL1       -0.2121
@<TRIPOS>BOND
     1     7     8    2
     2     1     8    1
     3     1     2    1
     4     2     3    1
     5     3    16    1
     6    16    17    1
     7    17    18    1
     8    18    19    1
     9    19    22    1
    10    22    23   ar
    11    23    24   ar
    12    24    25   ar
    13    25    26   ar
    14    26    27   ar
    15    19    20    1
    16    20    21    1
    17     3     4    1
    18     4     5    1
    19     8     9   am
    20     9    10    1
    21    10    11    1
    22    11    12    1
    23    12    13    1
    24    12    14    1
    25    12    15    1
    26     5     1    1
    27    15     9    1
    28    21    16    1
    29    27    22   ar
    30     5     6    1
@<TRIPOS>MOLECULE
*****
 27 30 0 0 0
SMALL
GASTEIGER

@<TRIPOS>ATOM
      1 C           3.4572    1.3412   19.5431 C.3     1  UNL1        0.1331
      2 C           2.2032    1.7312   18.8182 C.3     1  UNL1        0.0424
      3 C           1.2523    2.3172   19.8194 C.3     1  UNL1        0.0752
      4 C           1.9186    2.2895   21.1630 C.3     1  UNL1        0.0851
      5 N           3.2814    1.6863   20.9923 N.3     1  UNL1       -0.2902
      6 H           3.3605    0.8432   21.5609 H       1  UNL1        0.1237
      7 O           5.8054    1.5812   18.4574 O.2     1  UNL1       -0.2734
      8 C           4.6736    0.7160   18.9270 C.2     1  UNL1        0.2401
      9 N           4.7582   -0.7744   18.7803 N.am    1  UNL1       -0.2730
     10 C           5.9046   -1.5383   18.1871 C.3     1  UNL1        0.0993
     11 C           5.5662   -2.9985   18.2413 C.3     1  UNL1        0.0898
     12 C           4.2105   -3.1372   18.8681 C.3     1  UNL1        0.2835
     13 F           4.4363   -4.6050   18.6568 F       1  UNL1       -0.2024
     14 F           2.9019   -3.5826   19.4507 F       1  UNL1       -0.2024
     15 C           3.7111   -1.7625   19.2012 C.3     1  UNL1        0.1601
     16 N          -0.1234    2.8393   19.5281 N.3     1  UNL1       -0.2697
     17 C          -0.4371    3.4149   18.1790 C.3     1  UNL1        0.0939
     18 C          -1.8128    3.9370   17.8878 C.3     1  UNL1        0.1109
     19 N          -2.8748    3.8835   18.9457 N.pl3   1  UNL1       -0.2753
     20 C          -2.5612    3.3078   20.2948 C.3     1  UNL1        0.1109
     21 C          -1.1855    2.7857   20.5860 C.3     1  UNL1        0.0939
     22 C          -4.2506    4.4056   18.6544 C.ar    1  UNL1        0.2203
     23 N          -5.4562    3.6219   19.0815 N.ar    1  UNL1       -0.2121
     24 C          -6.8319    4.1441   18.7902 C.ar    1  UNL1        0.1034
     25 C          -7.0020    5.4498   18.0718 C.ar    1  UNL1        0.0414
     26 C          -5.7963    6.2335   17.6447 C.ar    1  UNL1        0.1034
     27 N          -4.4207    5.7113   17.9360 N.ar    1  UNL1       -0.2121
@<TRIPOS>BOND
     1     7     8    2
     2     1     8    1
     3     1     2    1
     4     2     3    1
     5     3    16    1
     6    16    17    1
     7    17    18    1
     8    18    19    1
     9    19    22    1
    10    22    23   ar
    11    23    24   ar
    12    24    25   ar
    13    25    26   ar
    14    26    27   ar
    15    19    20    1
    16    20    21    1
    17     3     4    1
    18     4     5    1
    19     8     9   am
    20     9    10    1
    21    10    11    1
    22    11    12    1
    23    12    13    1
    24    12    14    1
    25    12    15    1
    26     5     1    1
    27    15     9    1
    28    21    16    1
    29    27    22   ar
    30     5     6    1
