@<TRIPOS>MOLECULE
*****
 30 32 0 0 0
SMALL
GASTEIGER

@<TRIPOS>ATOM
      1 C          -5.4972  -15.5706   24.7959 C.3     1  UNL1        0.0591
      2 C          -4.9133  -15.7831   26.1611 C.3     1  UNL1        0.2092
      3 O          -6.0391  -15.7804   27.1524 O.3     1  UNL1       -0.4485
      4 C          -7.3189  -15.5664   26.3997 C.2     1  UNL1        0.3169
      5 O          -8.6924  -15.4946   26.9983 O.2     1  UNL1       -0.2501
      6 C          -6.9839  -15.4367   24.9433 C.3     1  UNL1        0.1073
      7 C          -4.7293  -15.5039   23.5091 C.3     1  UNL1        0.0307
      8 C          -2.1009  -17.8659   21.7029 C.ar    1  UNL1        0.1718
      9 C          -2.7574  -16.6329   22.2494 C.ar    1  UNL1        0.0358
     10 C          -4.0729  -16.7370   22.9626 C.ar    1  UNL1       -0.0188
     11 C          -4.7319  -18.0741   23.1293 C.ar    1  UNL1       -0.0010
     12 C          -4.0755  -19.3071   22.5828 C.ar    1  UNL1        0.0395
     13 C          -2.7600  -19.2030   21.8696 C.ar    1  UNL1        0.1677
     14 O          -2.1035  -20.4361   21.3231 O.3     1  UNL1       -0.5029
     15 H          -2.5152  -21.2714   21.4272 H       1  UNL1        0.2923
     16 C          -0.7385  -17.8127   19.4913 C.3     1  UNL1        0.2526
     17 O          -0.7854  -17.7619   20.9897 O.3     1  UNL1       -0.4684
     18 C          -7.9638  -15.2125   23.8299 C.3     1  UNL1        0.0378
     19 C          -8.7180  -16.3720   23.2496 C.ar    1  UNL1       -0.0154
     20 C          -8.2049  -17.0607   22.0199 C.ar    1  UNL1        0.0360
     21 C          -8.9592  -18.2202   21.4396 C.ar    1  UNL1        0.1749
     22 C         -10.2267  -18.6909   22.0892 C.ar    1  UNL1        0.2024
     23 O         -10.9810  -19.8503   21.5090 O.3     1  UNL1       -0.5009
     24 C         -10.7399  -18.0022   23.3190 C.ar    1  UNL1        0.1749
     25 C          -9.9856  -16.8427   23.8992 C.ar    1  UNL1        0.0360
     26 H         -10.6605  -20.2805   20.7408 H       1  UNL1        0.2924
     27 O          -8.4461  -18.9089   20.2099 O.3     1  UNL1       -0.4683
     28 C          -7.0102  -19.3359   20.1334 C.3     1  UNL1        0.2526
     29 O         -12.0074  -18.4728   23.9685 O.3     1  UNL1       -0.4683
     30 C         -13.3286  -17.9189   23.5238 C.3     1  UNL1        0.2526
@<TRIPOS>BOND
     1    16    17    1
     2    17     8    1
     3     8     9   ar
     4     9    10   ar
     5    10     7    1
     6     1     7    1
     7     1     2    1
     8     2     3    1
     9     3     4    1
    10     4     5    2
    11     4     6    1
    12     6    18    1
    13    18    19    1
    14    19    20   ar
    15    20    21   ar
    16    21    27    1
    17    27    28    1
    18    21    22   ar
    19    22    23    1
    20    22    24   ar
    21    24    29    1
    22    29    30    1
    23    24    25   ar
    24    10    11   ar
    25    11    12   ar
    26    12    13   ar
    27    13    14    1
    28    13     8   ar
    29     6     1    1
    30    25    19   ar
    31    23    26    1
    32    14    15    1
@<TRIPOS>MOLECULE
*****
 30 32 0 0 0
SMALL
GASTEIGER

@<TRIPOS>ATOM
      1 C          -8.4319  -19.3047   21.1175 C.3     1  UNL1        0.0591
      2 C          -8.4852  -19.5150   19.6333 C.3     1  UNL1        0.2092
      3 O          -9.7242  -18.8473   19.1147 O.3     1  UNL1       -0.4485
      4 C         -10.4367  -18.2243   20.2784 C.2     1  UNL1        0.3169
      5 O         -11.7222  -17.4539   20.2154 O.2     1  UNL1       -0.2501
      6 C          -9.6380  -18.5070   21.5162 C.3     1  UNL1        0.1073
      7 C          -7.3606  -19.8043   22.0409 C.3     1  UNL1        0.0307
      8 C          -3.5468  -18.7195   21.8717 C.ar    1  UNL1        0.1718
      9 C          -4.9859  -18.7801   22.2902 C.ar    1  UNL1        0.0358
     10 C          -5.9214  -19.7438   21.6223 C.ar    1  UNL1       -0.0188
     11 C          -5.4177  -20.6469   20.5357 C.ar    1  UNL1       -0.0010
     12 C          -3.9786  -20.5863   20.1171 C.ar    1  UNL1        0.0395
     13 C          -3.0432  -19.6226   20.7851 C.ar    1  UNL1        0.1677
     14 O          -1.6040  -19.5621   20.3665 O.3     1  UNL1       -0.5029
     15 H          -1.2894  -20.1263   19.6877 H       1  UNL1        0.2923
     16 C          -2.0279  -16.6147   21.7603 C.3     1  UNL1        0.2526
     17 O          -2.6113  -17.7558   22.5396 O.3     1  UNL1       -0.4684
     18 C          -9.9846  -18.0689   22.9083 C.3     1  UNL1        0.0378
     19 C          -9.0492  -17.1762   23.6685 C.ar    1  UNL1       -0.0154
     20 C          -7.9810  -16.4153   22.9406 C.ar    1  UNL1        0.0360
     21 C          -7.0455  -15.5226   23.7010 C.ar    1  UNL1        0.1749
     22 C          -7.1784  -15.3908   25.1892 C.ar    1  UNL1        0.2024
     23 O          -6.2431  -14.4981   25.9496 O.3     1  UNL1       -0.5009
     24 C          -8.2467  -16.1517   25.9172 C.ar    1  UNL1        0.1749
     25 C          -9.1821  -17.0444   25.1569 C.ar    1  UNL1        0.0360
     26 H          -5.5758  -14.0228   25.4949 H       1  UNL1        0.2924
     27 O          -5.9774  -14.7617   22.9731 O.3     1  UNL1       -0.4683
     28 C          -4.5313  -15.0462   23.2523 C.3     1  UNL1        0.2526
     29 O          -8.3796  -16.0199   27.4055 O.3     1  UNL1       -0.4683
     30 C          -8.7308  -14.6939   28.0126 C.3     1  UNL1        0.2526
@<TRIPOS>BOND
     1    16    17    1
     2    17     8    1
     3     8     9   ar
     4     9    10   ar
     5    10     7    1
     6     1     7    1
     7     1     2    1
     8     2     3    1
     9     3     4    1
    10     4     5    2
    11     4     6    1
    12     6    18    1
    13    18    19    1
    14    19    20   ar
    15    20    21   ar
    16    21    27    1
    17    27    28    1
    18    21    22   ar
    19    22    23    1
    20    22    24   ar
    21    24    29    1
    22    29    30    1
    23    24    25   ar
    24    10    11   ar
    25    11    12   ar
    26    12    13   ar
    27    13    14    1
    28    13     8   ar
    29     6     1    1
    30    25    19   ar
    31    23    26    1
    32    14    15    1
@<TRIPOS>MOLECULE
*****
 30 32 0 0 0
SMALL
GASTEIGER

@<TRIPOS>ATOM
      1 C          -8.4113  -19.3122   21.1071 C.3     1  UNL1        0.0591
      2 C          -8.4668  -19.4990   19.6198 C.3     1  UNL1        0.2092
      3 O          -9.7024  -18.8164   19.1126 O.3     1  UNL1       -0.4485
      4 C         -10.4107  -18.2077   20.2865 C.2     1  UNL1        0.3169
      5 O         -11.6919  -17.4292   20.2365 O.2     1  UNL1       -0.2501
      6 C          -9.6127  -18.5141   21.5191 C.3     1  UNL1        0.1073
      7 C          -7.3422  -19.8322   22.0218 C.3     1  UNL1        0.0307
      8 C          -3.5301  -18.7378   21.8799 C.ar    1  UNL1        0.1718
      9 C          -4.9702  -18.8076   22.2935 C.ar    1  UNL1        0.0358
     10 C          -5.9021  -19.7624   21.6081 C.ar    1  UNL1       -0.0188
     11 C          -5.3938  -20.6476   20.5089 C.ar    1  UNL1       -0.0010
     12 C          -3.9537  -20.5778   20.0952 C.ar    1  UNL1        0.0395
     13 C          -3.0219  -19.6229   20.7807 C.ar    1  UNL1        0.1677
     14 O          -1.5817  -19.5532   20.3670 O.3     1  UNL1       -0.5029
     15 H          -1.2642  -20.1061   19.6803 H       1  UNL1        0.2923
     16 C          -2.0312  -16.6168   21.8113 C.3     1  UNL1        0.2526
     17 O          -2.5983  -17.7829   22.5653 O.3     1  UNL1       -0.4684
     18 C          -9.9559  -18.0958   22.9181 C.3     1  UNL1        0.0378
     19 C          -9.0294  -17.1959   23.6807 C.ar    1  UNL1       -0.0154
     20 C          -9.1709  -17.0599   25.1677 C.ar    1  UNL1        0.0360
     21 C          -8.2443  -16.1599   25.9302 C.ar    1  UNL1        0.1749
     22 C          -7.1761  -15.3959   25.2055 C.ar    1  UNL1        0.2024
     23 O          -6.2494  -14.4959   25.9679 O.3     1  UNL1       -0.5009
     24 C          -7.0344  -15.5318   23.7184 C.ar    1  UNL1        0.1749
     25 C          -7.9611  -16.4318   22.9560 C.ar    1  UNL1        0.0360
     26 H          -6.3378  -14.4109   26.8969 H       1  UNL1        0.2924
     27 O          -8.3858  -16.0239   27.4172 O.3     1  UNL1       -0.4683
     28 C          -8.7137  -14.6903   28.0206 C.3     1  UNL1        0.2526
     29 O          -5.9662  -14.7678   22.9937 O.3     1  UNL1       -0.4683
     30 C          -4.5201  -15.0479   23.2777 C.3     1  UNL1        0.2526
@<TRIPOS>BOND
     1    16    17    1
     2    17     8    1
     3     8     9   ar
     4     9    10   ar
     5    10     7    1
     6     1     7    1
     7     1     2    1
     8     2     3    1
     9     3     4    1
    10     4     5    2
    11     4     6    1
    12     6    18    1
    13    18    19    1
    14    19    20   ar
    15    20    21   ar
    16    21    27    1
    17    27    28    1
    18    21    22   ar
    19    22    23    1
    20    22    24   ar
    21    24    29    1
    22    29    30    1
    23    24    25   ar
    24    10    11   ar
    25    11    12   ar
    26    12    13   ar
    27    13    14    1
    28    13     8   ar
    29     6     1    1
    30    25    19   ar
    31    23    26    1
    32    14    15    1
@<TRIPOS>MOLECULE
*****
 30 32 0 0 0
SMALL
GASTEIGER

@<TRIPOS>ATOM
      1 C          -4.9156  -16.5569   24.4826 C.3     1  UNL1        0.0591
      2 C          -4.7001  -15.6013   25.6185 C.3     1  UNL1        0.2092
      3 O          -5.8822  -14.6800   25.6800 O.3     1  UNL1       -0.4485
      4 C          -6.8284  -15.0662   24.5820 C.2     1  UNL1        0.3169
      5 O          -8.1415  -14.4081   24.2775 O.2     1  UNL1       -0.2501
      6 C          -6.2310  -16.2262   23.8420 C.3     1  UNL1        0.1073
      7 C          -3.9801  -17.6510   24.0612 C.3     1  UNL1        0.0307
      8 C          -3.0244  -18.6436   20.3394 C.ar    1  UNL1        0.1718
      9 C          -3.6593  -18.6815   21.6978 C.ar    1  UNL1        0.0358
     10 C          -3.3451  -17.6131   22.7027 C.ar    1  UNL1       -0.0188
     11 C          -2.3959  -16.5067   22.3491 C.ar    1  UNL1       -0.0010
     12 C          -1.7610  -16.4688   20.9907 C.ar    1  UNL1        0.0395
     13 C          -2.0752  -17.5372   19.9858 C.ar    1  UNL1        0.1677
     14 O          -1.4402  -17.4993   18.6273 O.3     1  UNL1       -0.5029
     15 H          -0.8473  -16.8082   18.4065 H       1  UNL1        0.2923
     16 C          -4.2636  -20.8353   19.6985 C.3     1  UNL1        0.2526
     17 O          -3.3386  -19.7120   19.3345 O.3     1  UNL1       -0.4684
     18 C          -6.8418  -16.9315   22.6675 C.3     1  UNL1        0.0378
     19 C          -8.3126  -17.2256   22.6510 C.ar    1  UNL1       -0.0154
     20 C          -8.8573  -18.3725   23.4495 C.ar    1  UNL1        0.0360
     21 C         -10.3282  -18.6664   23.4329 C.ar    1  UNL1        0.1749
     22 C         -11.2543  -17.8134   22.6177 C.ar    1  UNL1        0.2024
     23 O         -12.7251  -18.1073   22.6011 O.3     1  UNL1       -0.5009
     24 C         -10.7096  -16.6664   21.8190 C.ar    1  UNL1        0.1749
     25 C          -9.2388  -16.3725   21.8357 C.ar    1  UNL1        0.0360
     26 H         -13.0653  -18.8238   23.0999 H       1  UNL1        0.2924
     27 O         -10.8728  -19.8133   24.2315 O.3     1  UNL1       -0.4683
     28 C          -9.9358  -20.7450   24.9413 C.3     1  UNL1        0.2526
     29 O         -11.6357  -15.8133   21.0038 O.3     1  UNL1       -0.4683
     30 C         -11.5688  -15.8536   19.5058 C.3     1  UNL1        0.2526
@<TRIPOS>BOND
     1    16    17    1
     2    17     8    1
     3     8     9   ar
     4     9    10   ar
     5    10     7    1
     6     1     7    1
     7     1     2    1
     8     2     3    1
     9     3     4    1
    10     4     5    2
    11     4     6    1
    12     6    18    1
    13    18    19    1
    14    19    20   ar
    15    20    21   ar
    16    21    27    1
    17    27    28    1
    18    21    22   ar
    19    22    23    1
    20    22    24   ar
    21    24    29    1
    22    29    30    1
    23    24    25   ar
    24    10    11   ar
    25    11    12   ar
    26    12    13   ar
    27    13    14    1
    28    13     8   ar
    29     6     1    1
    30    25    19   ar
    31    23    26    1
    32    14    15    1
@<TRIPOS>MOLECULE
*****
 30 32 0 0 0
SMALL
GASTEIGER

@<TRIPOS>ATOM
      1 C          -4.9225  -16.5303   24.5425 C.3     1  UNL1        0.0591
      2 C          -4.7476  -15.5878   25.6963 C.3     1  UNL1        0.2092
      3 O          -5.9393  -14.6777   25.7362 O.3     1  UNL1       -0.4485
      4 C          -6.8507  -15.0577   24.6071 C.2     1  UNL1        0.3169
      5 O          -8.1606  -14.4071   24.2742 O.2     1  UNL1       -0.2501
      6 C          -6.2223  -16.2027   23.8694 C.3     1  UNL1        0.1073
      7 C          -3.9656  -17.6107   24.1337 C.3     1  UNL1        0.0307
      8 C          -3.0293  -18.6532   20.4206 C.ar    1  UNL1        0.1718
      9 C          -3.6496  -18.6780   21.7861 C.ar    1  UNL1        0.0358
     10 C          -3.3452  -17.5858   22.7681 C.ar    1  UNL1       -0.0188
     11 C          -2.4206  -16.4687   22.3847 C.ar    1  UNL1       -0.0010
     12 C          -1.8003  -16.4439   21.0192 C.ar    1  UNL1        0.0395
     13 C          -2.1046  -17.5361   20.0372 C.ar    1  UNL1        0.1677
     14 O          -1.4843  -17.5112   18.6717 O.3     1  UNL1       -0.5029
     15 H          -0.9067  -16.8134   18.4321 H       1  UNL1        0.2923
     16 C          -4.3414  -20.8024   19.7809 C.3     1  UNL1        0.2526
     17 O          -3.3337  -19.7454   19.4386 O.3     1  UNL1       -0.4684
     18 C          -6.7935  -16.8979   22.6692 C.3     1  UNL1        0.0378
     19 C          -8.2552  -17.2310   22.6203 C.ar    1  UNL1       -0.0154
     20 C          -9.1999  -16.3511   21.8567 C.ar    1  UNL1        0.0360
     21 C         -10.6616  -16.6843   21.8078 C.ar    1  UNL1        0.1749
     22 C         -11.1786  -17.8975   22.5226 C.ar    1  UNL1        0.2024
     23 O         -12.6403  -18.2307   22.4738 O.3     1  UNL1       -0.5009
     24 C         -10.2339  -18.7775   23.2863 C.ar    1  UNL1        0.1749
     25 C          -8.7722  -18.4443   23.3351 C.ar    1  UNL1        0.0360
     26 H         -13.2304  -17.6810   21.9968 H       1  UNL1        0.2924
     27 O         -11.6063  -15.8044   21.0443 O.3     1  UNL1       -0.4683
     28 C         -11.6495  -15.8720   19.5464 C.3     1  UNL1        0.2526
     29 O         -10.7508  -19.9907   24.0010 O.3     1  UNL1       -0.4683
     30 C          -9.7999  -20.8947   24.7282 C.3     1  UNL1        0.2526
@<TRIPOS>BOND
     1    16    17    1
     2    17     8    1
     3     8     9   ar
     4     9    10   ar
     5    10     7    1
     6     1     7    1
     7     1     2    1
     8     2     3    1
     9     3     4    1
    10     4     5    2
    11     4     6    1
    12     6    18    1
    13    18    19    1
    14    19    20   ar
    15    20    21   ar
    16    21    27    1
    17    27    28    1
    18    21    22   ar
    19    22    23    1
    20    22    24   ar
    21    24    29    1
    22    29    30    1
    23    24    25   ar
    24    10    11   ar
    25    11    12   ar
    26    12    13   ar
    27    13    14    1
    28    13     8   ar
    29     6     1    1
    30    25    19   ar
    31    23    26    1
    32    14    15    1
@<TRIPOS>MOLECULE
*****
 30 32 0 0 0
SMALL
GASTEIGER

@<TRIPOS>ATOM
      1 C          -5.2353  -17.0741   23.4671 C.3     1  UNL1        0.0591
      2 C          -4.9081  -15.7063   23.9888 C.3     1  UNL1        0.2092
      3 O          -6.1967  -14.9627   24.1802 O.3     1  UNL1       -0.4485
      4 C          -7.3203  -15.8709   23.7769 C.2     1  UNL1        0.3169
      5 O          -8.7815  -15.5335   23.8088 O.2     1  UNL1       -0.2501
      6 C          -6.7261  -17.1758   23.3362 C.3     1  UNL1        0.1073
      7 C          -4.2455  -18.1510   23.1348 C.3     1  UNL1        0.0307
      8 C          -1.5259  -17.3725   20.3514 C.ar    1  UNL1        0.1718
      9 C          -2.2383  -17.3900   21.6712 C.ar    1  UNL1        0.0358
     10 C          -3.5331  -18.1335   21.8148 C.ar    1  UNL1       -0.0188
     11 C          -4.1156  -18.8594   20.6385 C.ar    1  UNL1       -0.0010
     12 C          -3.4031  -18.8419   19.3186 C.ar    1  UNL1        0.0395
     13 C          -2.1083  -18.0984   19.1751 C.ar    1  UNL1        0.1677
     14 O          -1.3959  -18.0809   17.8551 O.3     1  UNL1       -0.5029
     15 H          -1.7597  -18.5344   17.1203 H       1  UNL1        0.2923
     16 C           1.0702  -17.3740   20.2498 C.3     1  UNL1        0.2526
     17 O          -0.2310  -16.6290   20.2078 O.3     1  UNL1       -0.4684
     18 C          -7.4889  -18.3723   22.8500 C.3     1  UNL1        0.0378
     19 C          -8.9345  -18.2379   22.4727 C.ar    1  UNL1       -0.0154
     20 C         -10.0040  -18.6266   23.4499 C.ar    1  UNL1        0.0360
     21 C         -11.4495  -18.4921   23.0725 C.ar    1  UNL1        0.1749
     22 C         -11.8254  -17.9689   21.7179 C.ar    1  UNL1        0.2024
     23 O         -13.2709  -17.8344   21.3405 O.3     1  UNL1       -0.5009
     24 C         -10.7559  -17.5801   20.7406 C.ar    1  UNL1        0.1749
     25 C          -9.3104  -17.7146   21.1180 C.ar    1  UNL1        0.0360
     26 H         -13.9391  -18.0772   21.9509 H       1  UNL1        0.2924
     27 O         -12.5190  -18.8808   24.0497 O.3     1  UNL1       -0.4683
     28 C         -13.6670  -17.9521   24.3139 C.3     1  UNL1        0.2526
     29 O         -11.1318  -17.0569   19.3860 O.3     1  UNL1       -0.4683
     30 C         -11.4733  -15.6069   19.2104 C.3     1  UNL1        0.2526
@<TRIPOS>BOND
     1    16    17    1
     2    17     8    1
     3     8     9   ar
     4     9    10   ar
     5    10     7    1
     6     1     7    1
     7     1     2    1
     8     2     3    1
     9     3     4    1
    10     4     5    2
    11     4     6    1
    12     6    18    1
    13    18    19    1
    14    19    20   ar
    15    20    21   ar
    16    21    27    1
    17    27    28    1
    18    21    22   ar
    19    22    23    1
    20    22    24   ar
    21    24    29    1
    22    29    30    1
    23    24    25   ar
    24    10    11   ar
    25    11    12   ar
    26    12    13   ar
    27    13    14    1
    28    13     8   ar
    29     6     1    1
    30    25    19   ar
    31    23    26    1
    32    14    15    1
@<TRIPOS>MOLECULE
*****
 30 32 0 0 0
SMALL
GASTEIGER

@<TRIPOS>ATOM
      1 C          -7.2626  -20.3351   20.5034 C.3     1  UNL1        0.0591
      2 C          -7.3328  -20.5994   19.0285 C.3     1  UNL1        0.2092
      3 O          -8.6936  -20.1898   18.5484 O.3     1  UNL1       -0.4485
      4 C          -9.4644  -19.6723   19.7266 C.2     1  UNL1        0.3169
      5 O         -10.8724  -19.1557   19.7010 O.2     1  UNL1       -0.2501
      6 C          -8.5800  -19.7621   20.9348 C.3     1  UNL1        0.1073
      7 C          -6.0823  -20.5977   21.3910 C.3     1  UNL1        0.0307
      8 C          -2.9151  -18.3704   20.5203 C.ar    1  UNL1        0.1718
      9 C          -4.0044  -19.3943   20.3987 C.ar    1  UNL1        0.0358
     10 C          -4.9928  -19.5737   21.5126 C.ar    1  UNL1       -0.0188
     11 C          -4.8918  -18.7293   22.7482 C.ar    1  UNL1       -0.0010
     12 C          -3.8025  -17.7054   22.8698 C.ar    1  UNL1        0.0395
     13 C          -2.8141  -17.5259   21.7558 C.ar    1  UNL1        0.1677
     14 O          -1.7246  -16.5020   21.8775 O.3     1  UNL1       -0.5029
     15 H          -1.6616  -15.9745   22.6493 H       1  UNL1        0.2923
     16 C          -0.4558  -18.1978   19.7003 C.3     1  UNL1        0.2526
     17 O          -1.9267  -18.1910   19.4063 O.3     1  UNL1       -0.4684
     18 C          -8.9484  -19.3511   22.3296 C.3     1  UNL1        0.0378
     19 C          -8.6436  -17.9624   22.8076 C.ar    1  UNL1       -0.0154
     20 C          -8.6798  -17.6490   24.2739 C.ar    1  UNL1        0.0360
     21 C          -8.3749  -16.2602   24.7519 C.ar    1  UNL1        0.1749
     22 C          -8.0339  -15.1849   23.7633 C.ar    1  UNL1        0.2024
     23 O          -7.7290  -13.7961   24.2412 O.3     1  UNL1       -0.5009
     24 C          -7.9976  -15.4982   22.2968 C.ar    1  UNL1        0.1749
     25 C          -8.3024  -16.8870   21.8189 C.ar    1  UNL1        0.0360
     26 H          -7.7516  -13.6003   25.1572 H       1  UNL1        0.2924
     27 O          -8.4112  -15.9468   26.2183 O.3     1  UNL1       -0.4683
     28 C          -7.1307  -15.7853   26.9826 C.3     1  UNL1        0.2526
     29 O          -7.6565  -14.4229   21.3083 O.3     1  UNL1       -0.4683
     30 C          -8.6976  -13.9297   20.3475 C.3     1  UNL1        0.2526
@<TRIPOS>BOND
     1    16    17    1
     2    17     8    1
     3     8     9   ar
     4     9    10   ar
     5    10     7    1
     6     1     7    1
     7     1     2    1
     8     2     3    1
     9     3     4    1
    10     4     5    2
    11     4     6    1
    12     6    18    1
    13    18    19    1
    14    19    20   ar
    15    20    21   ar
    16    21    27    1
    17    27    28    1
    18    21    22   ar
    19    22    23    1
    20    22    24   ar
    21    24    29    1
    22    29    30    1
    23    24    25   ar
    24    10    11   ar
    25    11    12   ar
    26    12    13   ar
    27    13    14    1
    28    13     8   ar
    29     6     1    1
    30    25    19   ar
    31    23    26    1
    32    14    15    1
@<TRIPOS>MOLECULE
*****
 30 32 0 0 0
SMALL
GASTEIGER

@<TRIPOS>ATOM
      1 C          -5.3237  -16.6273   24.0349 C.3     1  UNL1        0.0591
      2 C          -5.1753  -15.2936   24.7051 C.3     1  UNL1        0.2092
      3 O          -6.5077  -14.6057   24.6688 O.3     1  UNL1       -0.4485
      4 C          -7.4797  -15.5142   23.9761 C.2     1  UNL1        0.3169
      5 O          -8.9290  -15.2242   23.7201 O.2     1  UNL1       -0.2501
      6 C          -6.7479  -16.7636   23.5843 C.3     1  UNL1        0.1073
      7 C          -4.2385  -17.6458   23.8480 C.3     1  UNL1        0.0307
      8 C          -1.8113  -17.3875   20.7187 C.ar    1  UNL1        0.1718
      9 C          -2.3983  -17.1582   22.0799 C.ar    1  UNL1        0.0358
     10 C          -3.6515  -17.8751   22.4867 C.ar    1  UNL1       -0.0188
     11 C          -4.3177  -18.8213   21.5324 C.ar    1  UNL1       -0.0010
     12 C          -3.7307  -19.0506   20.1712 C.ar    1  UNL1        0.0395
     13 C          -2.4775  -18.3337   19.7644 C.ar    1  UNL1        0.1677
     14 O          -1.8905  -18.5630   18.4032 O.3     1  UNL1       -0.5029
     15 H          -2.3067  -19.1541   17.8070 H       1  UNL1        0.2923
     16 C           0.7258  -17.4314   20.1607 C.3     1  UNL1        0.2526
     17 O          -0.5581  -16.6706   20.3119 O.3     1  UNL1       -0.4684
     18 C          -7.3370  -17.9424   22.8678 C.3     1  UNL1        0.0378
     19 C          -8.7828  -17.9316   22.4682 C.ar    1  UNL1       -0.0154
     20 C          -9.1812  -17.4428   21.1073 C.ar    1  UNL1        0.0360
     21 C         -10.6271  -17.4319   20.7078 C.ar    1  UNL1        0.1749
     22 C         -11.6744  -17.9100   21.6694 C.ar    1  UNL1        0.2024
     23 O         -13.1201  -17.8992   21.2700 O.3     1  UNL1       -0.5009
     24 C         -11.2759  -18.3988   23.0304 C.ar    1  UNL1        0.1749
     25 C          -9.8302  -18.4096   23.4298 C.ar    1  UNL1        0.0360
     26 H         -13.3691  -17.5939   20.4198 H       1  UNL1        0.2924
     27 O         -11.0255  -16.9431   19.3469 O.3     1  UNL1       -0.4683
     28 C         -11.6248  -15.5775   19.1862 C.3     1  UNL1        0.2526
     29 O         -12.3232  -18.8769   23.9920 O.3     1  UNL1       -0.4683
     30 C         -13.5193  -18.0203   24.2850 C.3     1  UNL1        0.2526
@<TRIPOS>BOND
     1    16    17    1
     2    17     8    1
     3     8     9   ar
     4     9    10   ar
     5    10     7    1
     6     1     7    1
     7     1     2    1
     8     2     3    1
     9     3     4    1
    10     4     5    2
    11     4     6    1
    12     6    18    1
    13    18    19    1
    14    19    20   ar
    15    20    21   ar
    16    21    27    1
    17    27    28    1
    18    21    22   ar
    19    22    23    1
    20    22    24   ar
    21    24    29    1
    22    29    30    1
    23    24    25   ar
    24    10    11   ar
    25    11    12   ar
    26    12    13   ar
    27    13    14    1
    28    13     8   ar
    29     6     1    1
    30    25    19   ar
    31    23    26    1
    32    14    15    1
@<TRIPOS>MOLECULE
*****
 30 32 0 0 0
SMALL
GASTEIGER

@<TRIPOS>ATOM
      1 C         -10.5390  -18.2749   21.3162 C.3     1  UNL1        0.0591
      2 C         -11.3646  -17.9317   20.1118 C.3     1  UNL1        0.2092
      3 O         -10.8830  -18.7705   18.9653 O.3     1  UNL1       -0.4485
      4 C          -9.7598  -19.6323   19.4612 C.2     1  UNL1        0.3169
      5 O          -8.9852  -20.6259   18.6471 O.2     1  UNL1       -0.2501
      6 C          -9.5472  -19.3259   20.9141 C.3     1  UNL1        0.1073
      7 C         -10.6804  -17.6728   22.6828 C.3     1  UNL1        0.0307
      8 C          -8.1554  -16.0838   25.2999 C.ar    1  UNL1        0.1718
      9 C          -9.2678  -16.9099   24.7255 C.ar    1  UNL1        0.0358
     10 C          -9.5679  -16.8467   23.2572 C.ar    1  UNL1       -0.0188
     11 C          -8.7556  -15.9573   22.3633 C.ar    1  UNL1       -0.0010
     12 C          -7.6432  -15.1312   22.9376 C.ar    1  UNL1        0.0395
     13 C          -7.3430  -15.1944   24.4059 C.ar    1  UNL1        0.1677
     14 O          -6.2305  -14.3683   24.9803 O.3     1  UNL1       -0.5029
     15 H          -5.7231  -13.8127   24.4219 H       1  UNL1        0.2923
     16 C          -8.3789  -15.0834   27.6872 C.3     1  UNL1        0.2526
     17 O          -7.8552  -16.1470   26.7682 O.3     1  UNL1       -0.4684
     18 C          -8.5227  -19.9594   21.8080 C.3     1  UNL1        0.0378
     19 C          -7.0957  -19.5000   21.7569 C.ar    1  UNL1       -0.0154
     20 C          -6.5969  -18.4902   22.7474 C.ar    1  UNL1        0.0360
     21 C          -5.1698  -18.0308   22.6962 C.ar    1  UNL1        0.1749
     22 C          -4.2417  -18.5813   21.6544 C.ar    1  UNL1        0.2024
     23 O          -2.8147  -18.1220   21.6031 O.3     1  UNL1       -0.5009
     24 C          -4.7405  -19.5912   20.6637 C.ar    1  UNL1        0.1749
     25 C          -6.1675  -20.0505   20.7149 C.ar    1  UNL1        0.0360
     26 H          -2.5031  -17.4911   22.2219 H       1  UNL1        0.2924
     27 O          -4.6710  -17.0210   23.6868 O.3     1  UNL1       -0.4683
     28 C          -3.8714  -17.4673   24.8748 C.3     1  UNL1        0.2526
     29 O          -3.8124  -20.1417   19.6218 O.3     1  UNL1       -0.4683
     30 C          -2.8859  -19.2228   18.8819 C.3     1  UNL1        0.2526
@<TRIPOS>BOND
     1    16    17    1
     2    17     8    1
     3     8     9   ar
     4     9    10   ar
     5    10     7    1
     6     1     7    1
     7     1     2    1
     8     2     3    1
     9     3     4    1
    10     4     5    2
    11     4     6    1
    12     6    18    1
    13    18    19    1
    14    19    20   ar
    15    20    21   ar
    16    21    27    1
    17    27    28    1
    18    21    22   ar
    19    22    23    1
    20    22    24   ar
    21    24    29    1
    22    29    30    1
    23    24    25   ar
    24    10    11   ar
    25    11    12   ar
    26    12    13   ar
    27    13    14    1
    28    13     8   ar
    29     6     1    1
    30    25    19   ar
    31    23    26    1
    32    14    15    1
