@<TRIPOS>MOLECULE
*****
 34 36 0 0 0
SMALL
GASTEIGER

@<TRIPOS>ATOM
      1 N          -2.6956    3.6622   19.6528 N.3     1  UNL1       -0.1591
      2 C          -1.6524    3.0796   20.5595 C.3     1  UNL1        0.0991
      3 C          -0.2356    2.9475   20.0852 C.3     1  UNL1        0.0627
      4 C           0.1380    3.3979   18.7040 C.3     1  UNL1        0.1688
      5 C          -0.9052    3.9805   17.7973 C.3     1  UNL1        0.0627
      6 C          -2.3220    4.1126   18.2717 C.3     1  UNL1        0.0991
      7 S          -4.1125    3.7943   20.1271 S.O2    1  UNL1        0.0459
      8 O          -3.8717    2.7199   21.1457 O.2     1  UNL1       -0.1572
      9 O          -4.3534    4.8687   19.1085 O.2     1  UNL1       -0.1572
     10 C          -5.5294    3.9264   20.6015 C.3     1  UNL1        0.1958
     11 C          -6.1803    3.0215   18.9320 C.3     1  UNL1        0.0310
     12 C          -6.6164    4.2762   19.6289 C.3     1  UNL1        0.1509
     13 N          -7.6123    4.3637   18.5106 N.am    1  UNL1       -0.2825
     14 C          -8.4366    5.5994   18.7196 C.2     1  UNL1        0.3068
     15 O          -9.5516    6.0753   17.8363 O.2     1  UNL1       -0.2524
     16 N          -7.9502    6.2756   19.9671 N.am    1  UNL1       -0.2383
     17 C          -6.8253    5.4578   20.5291 C.2     1  UNL1        0.2469
     18 O          -6.0460    5.7673   21.7728 O.2     1  UNL1       -0.2729
     19 H          -7.7080    3.7227   17.7695 H       1  UNL1        0.1514
     20 H          -8.3067    7.1096   20.3498 H       1  UNL1        0.1591
     21 O           1.5550    3.2658   18.2297 O.3     1  UNL1       -0.4791
     22 C           2.3613    2.0574   18.6032 C.ar    1  UNL1        0.1386
     23 C           1.8833    0.6886   18.2184 C.ar    1  UNL1        0.0400
     24 C           2.6897   -0.5199   18.5920 C.ar    1  UNL1        0.0402
     25 C           3.9740   -0.3595   19.3501 C.ar    1  UNL1        0.1444
     26 C           4.4520    1.0093   19.7348 C.ar    1  UNL1        0.0402
     27 C           3.6456    2.2177   19.3614 C.ar    1  UNL1        0.0400
     28 O           4.7803   -1.5679   19.7236 O.3     1  UNL1       -0.4263
     29 C           4.3215   -2.9339   19.3068 C.3     1  UNL1        0.4723
     30 F           3.5948   -3.0874   20.6100 F       1  UNL1       -0.1579
     31 F           5.0482   -2.7803   18.0036 F       1  UNL1       -0.1579
     32 C           3.8627   -4.2998   18.8900 C.3     1  UNL1        0.4202
     33 F           4.8588   -5.3086   18.4002 F       1  UNL1       -0.1876
     34 F           2.4076   -4.6569   18.9630 F       1  UNL1       -0.1876
@<TRIPOS>BOND
     1    12    11    1
     2    12    10    1
     3    10     7    1
     4     7     8    2
     5     7     9    2
     6     7     1    1
     7     1     2    1
     8     2     3    1
     9     3     4    1
    10     4    21    1
    11    21    22    1
    12    22    23   ar
    13    23    24   ar
    14    24    25   ar
    15    25    28    1
    16    28    29    1
    17    29    30    1
    18    29    31    1
    19    29    32    1
    20    32    33    1
    21    32    34    1
    22    25    26   ar
    23    26    27   ar
    24     4     5    1
    25     5     6    1
    26    12    13    1
    27    13    14   am
    28    14    15    2
    29    14    16   am
    30    16    17   am
    31    17    18    2
    32    17    12    1
    33     6     1    1
    34    27    22   ar
    35    13    19    1
    36    16    20    1
@<TRIPOS>MOLECULE
*****
 34 36 0 0 0
SMALL
GASTEIGER

@<TRIPOS>ATOM
      1 N           1.2817    1.8514   18.9702 N.3     1  UNL1       -0.1591
      2 C           0.8838    3.0320   18.1348 C.3     1  UNL1        0.0991
      3 C          -0.3443    3.8188   18.4852 C.3     1  UNL1        0.0627
      4 C          -1.1743    3.4251   19.6709 C.3     1  UNL1        0.1688
      5 C          -0.7764    2.2445   20.5063 C.3     1  UNL1        0.0627
      6 C           0.4516    1.4577   20.1559 C.3     1  UNL1        0.0991
      7 S           2.5098    1.0645   18.6198 S.O2    1  UNL1        0.0459
      8 O           1.8074   -0.2034   19.0059 O.2     1  UNL1       -0.1572
      9 O           3.2121    2.3324   18.2338 O.2     1  UNL1       -0.1572
     10 C           3.7378    0.2776   18.2695 C.3     1  UNL1        0.1958
     11 C           4.0052    0.0171   20.2419 C.3     1  UNL1        0.0310
     12 C           4.1137   -0.9266   19.0810 C.3     1  UNL1        0.1509
     13 N           4.4670   -1.9335   20.1352 N.am    1  UNL1       -0.2825
     14 C           4.7152   -3.2478   19.4561 C.2     1  UNL1        0.3068
     15 O           5.0964   -4.5314   20.1322 O.2     1  UNL1       -0.2524
     16 N           4.5153   -3.0531   17.9823 N.am    1  UNL1       -0.2383
     17 C           4.1436   -1.6186   17.7504 C.2     1  UNL1        0.2469
     18 O           3.8528   -0.9869   16.4214 O.2     1  UNL1       -0.2729
     19 H           4.5256   -1.7619   21.1028 H       1  UNL1        0.1514
     20 H           4.6113   -3.7454   17.2889 H       1  UNL1        0.1591
     21 O          -2.4024    4.2120   20.0213 O.3     1  UNL1       -0.4791
     22 C          -3.0721    4.0061   21.3476 C.ar    1  UNL1        0.1386
     23 C          -2.4840    4.6127   22.5870 C.ar    1  UNL1        0.0400
     24 C          -3.1537    4.4067   23.9133 C.ar    1  UNL1        0.0402
     25 C          -4.4115    3.5941   24.0002 C.ar    1  UNL1        0.1444
     26 C          -4.9997    2.9875   22.7608 C.ar    1  UNL1        0.0402
     27 C          -4.3300    3.1935   21.4345 C.ar    1  UNL1        0.0400
     28 O          -5.0812    3.3881   25.3265 O.3     1  UNL1       -0.4263
     29 C          -5.2715    4.5478   26.2587 C.3     1  UNL1        0.4723
     30 F          -4.3444    3.9051   27.2473 F       1  UNL1       -0.1579
     31 F          -6.1987    5.1904   25.2701 F       1  UNL1       -0.1579
     32 C          -5.4618    5.7074   27.1909 C.3     1  UNL1        0.4202
     33 F          -6.7529    5.8651   27.9380 F       1  UNL1       -0.1876
     34 F          -4.3609    6.7093   27.3761 F       1  UNL1       -0.1876
@<TRIPOS>BOND
     1    12    11    1
     2    12    10    1
     3    10     7    1
     4     7     8    2
     5     7     9    2
     6     7     1    1
     7     1     2    1
     8     2     3    1
     9     3     4    1
    10     4    21    1
    11    21    22    1
    12    22    23   ar
    13    23    24   ar
    14    24    25   ar
    15    25    28    1
    16    28    29    1
    17    29    30    1
    18    29    31    1
    19    29    32    1
    20    32    33    1
    21    32    34    1
    22    25    26   ar
    23    26    27   ar
    24     4     5    1
    25     5     6    1
    26    12    13    1
    27    13    14   am
    28    14    15    2
    29    14    16   am
    30    16    17   am
    31    17    18    2
    32    17    12    1
    33     6     1    1
    34    27    22   ar
    35    13    19    1
    36    16    20    1
@<TRIPOS>MOLECULE
*****
 34 36 0 0 0
SMALL
GASTEIGER

@<TRIPOS>ATOM
      1 N           7.5533   -4.5439   26.7296 N.3     1  UNL1       -0.1591
      2 C           6.6475   -3.5303   26.0955 C.3     1  UNL1        0.0991
      3 C           6.3638   -3.5946   24.6240 C.3     1  UNL1        0.0627
      4 C           6.9858   -4.6725   23.7867 C.3     1  UNL1        0.1688
      5 C           7.8915   -5.6861   24.4207 C.3     1  UNL1        0.0627
      6 C           8.1753   -5.6218   25.8922 C.3     1  UNL1        0.0991
      7 S           7.8371   -4.4797   28.2012 S.O2    1  UNL1        0.0459
      8 O           9.3092   -4.4433   27.9156 O.2     1  UNL1       -0.1572
      9 O           6.3650   -4.5160   28.4867 O.2     1  UNL1       -0.1572
     10 C           8.1209   -4.4154   29.6726 C.3     1  UNL1        0.1958
     11 C           7.4974   -2.5077   29.6320 C.3     1  UNL1        0.0310
     12 C           7.2136   -3.6365   30.5782 C.3     1  UNL1        0.1509
     13 N           6.3656   -2.6217   31.2859 N.am    1  UNL1       -0.2825
     14 C           5.7473   -3.2861   32.4802 C.2     1  UNL1        0.3068
     15 O           4.8250   -2.6387   33.4704 O.2     1  UNL1       -0.2524
     16 N           6.2132   -4.7116   32.5106 N.am    1  UNL1       -0.2383
     17 C           7.1194   -4.9282   31.3351 C.2     1  UNL1        0.2469
     18 O           7.8102   -6.2111   30.9790 O.2     1  UNL1       -0.2729
     19 H           6.2373   -1.6841   31.0143 H       1  UNL1        0.1514
     20 H           5.9674   -5.3865   33.1839 H       1  UNL1        0.1591
     21 O           6.7020   -4.7368   22.3151 O.3     1  UNL1       -0.4791
     22 C           6.0923   -3.5576   21.6167 C.ar    1  UNL1        0.1386
     23 C           6.9580   -2.4108   21.1862 C.ar    1  UNL1        0.0400
     24 C           6.3482   -1.2316   20.4878 C.ar    1  UNL1        0.0402
     25 C           4.8728   -1.1993   20.2198 C.ar    1  UNL1        0.1444
     26 C           4.0070   -2.3461   20.6502 C.ar    1  UNL1        0.0402
     27 C           4.6167   -3.5253   21.3487 C.ar    1  UNL1        0.0400
     28 O           4.2630   -0.0202   19.5214 O.3     1  UNL1       -0.4263
     29 C           2.7726    0.0848   19.3890 C.3     1  UNL1        0.4723
     30 F           2.8574   -0.4671   17.9968 F       1  UNL1       -0.1579
     31 F           2.6878    0.6367   20.7812 F       1  UNL1       -0.1579
     32 C           1.2821    0.1898   19.2566 C.3     1  UNL1        0.4202
     33 F           0.3909   -0.4950   20.2499 F       1  UNL1       -0.1876
     34 F           0.6830    0.9797   18.1309 F       1  UNL1       -0.1876
@<TRIPOS>BOND
     1    12    11    1
     2    12    10    1
     3    10     7    1
     4     7     8    2
     5     7     9    2
     6     7     1    1
     7     1     2    1
     8     2     3    1
     9     3     4    1
    10     4    21    1
    11    21    22    1
    12    22    23   ar
    13    23    24   ar
    14    24    25   ar
    15    25    28    1
    16    28    29    1
    17    29    30    1
    18    29    31    1
    19    29    32    1
    20    32    33    1
    21    32    34    1
    22    25    26   ar
    23    26    27   ar
    24     4     5    1
    25     5     6    1
    26    12    13    1
    27    13    14   am
    28    14    15    2
    29    14    16   am
    30    16    17   am
    31    17    18    2
    32    17    12    1
    33     6     1    1
    34    27    22   ar
    35    13    19    1
    36    16    20    1
@<TRIPOS>MOLECULE
*****
 34 36 0 0 0
SMALL
GASTEIGER

@<TRIPOS>ATOM
      1 N           3.0269    0.4974   18.3217 N.3     1  UNL1       -0.1591
      2 C           3.6271    1.8690   18.4122 C.3     1  UNL1        0.0991
      3 C           2.7453    3.0595   18.6468 C.3     1  UNL1        0.0627
      4 C           1.2633    2.8784   18.7908 C.3     1  UNL1        0.1688
      5 C           0.6630    1.5067   18.7002 C.3     1  UNL1        0.0627
      6 C           1.5448    0.3162   18.4657 C.3     1  UNL1        0.0991
      7 S           3.9087   -0.6932   18.0871 S.O2    1  UNL1        0.0459
      8 O           3.3614   -0.8247   16.6968 O.2     1  UNL1       -0.1572
      9 O           4.4561   -0.5618   19.4775 O.2     1  UNL1       -0.1572
     10 C           4.7905   -1.8838   17.8526 C.3     1  UNL1        0.1958
     11 C           3.7153   -2.9846   19.1417 C.3     1  UNL1        0.0310
     12 C           5.1917   -2.7583   19.0033 C.3     1  UNL1        0.1509
     13 N           5.2842   -3.6802   20.1830 N.am    1  UNL1       -0.2825
     14 C           6.7339   -3.8408   20.5331 C.2     1  UNL1        0.3068
     15 O           7.2837   -4.6772   21.6503 O.2     1  UNL1       -0.2524
     16 N           7.5373   -3.0183   19.5698 N.am    1  UNL1       -0.2383
     17 C           6.5842   -2.3492   18.6243 C.2     1  UNL1        0.2469
     18 O           6.9579   -1.4322   17.4977 O.2     1  UNL1       -0.2729
     19 H           4.5265   -4.1051   20.6461 H       1  UNL1        0.1514
     20 H           8.5180   -2.9325   19.5598 H       1  UNL1        0.1591
     21 O           0.3814    4.0690   19.0253 O.3     1  UNL1       -0.4791
     22 C          -0.9454    3.8976   19.7037 C.ar    1  UNL1        0.1386
     23 C          -1.0081    3.6976   21.1889 C.ar    1  UNL1        0.0400
     24 C          -2.3350    3.5262   21.8673 C.ar    1  UNL1        0.0402
     25 C          -3.5990    3.5548   21.0603 C.ar    1  UNL1        0.1444
     26 C          -3.5363    3.7547   19.5750 C.ar    1  UNL1        0.0402
     27 C          -2.2095    3.9261   18.8967 C.ar    1  UNL1        0.0400
     28 O          -4.9258    3.3834   21.7386 O.3     1  UNL1       -0.4263
     29 C          -5.0583    3.6577   23.2074 C.3     1  UNL1        0.4723
     30 F          -5.1942    5.1238   22.9213 F       1  UNL1       -0.1579
     31 F          -4.9223    2.1915   23.4935 F       1  UNL1       -0.1579
     32 C          -5.1907    3.9319   24.6761 C.3     1  UNL1        0.4202
     33 F          -4.1040    3.5083   25.6192 F       1  UNL1       -0.1876
     34 F          -6.4100    4.6299   25.2018 F       1  UNL1       -0.1876
@<TRIPOS>BOND
     1    12    11    1
     2    12    10    1
     3    10     7    1
     4     7     8    2
     5     7     9    2
     6     7     1    1
     7     1     2    1
     8     2     3    1
     9     3     4    1
    10     4    21    1
    11    21    22    1
    12    22    23   ar
    13    23    24   ar
    14    24    25   ar
    15    25    28    1
    16    28    29    1
    17    29    30    1
    18    29    31    1
    19    29    32    1
    20    32    33    1
    21    32    34    1
    22    25    26   ar
    23    26    27   ar
    24     4     5    1
    25     5     6    1
    26    12    13    1
    27    13    14   am
    28    14    15    2
    29    14    16   am
    30    16    17   am
    31    17    18    2
    32    17    12    1
    33     6     1    1
    34    27    22   ar
    35    13    19    1
    36    16    20    1
@<TRIPOS>MOLECULE
*****
 34 36 0 0 0
SMALL
GASTEIGER

@<TRIPOS>ATOM
      1 N           3.2523    0.3283   18.1689 N.3     1  UNL1       -0.1591
      2 C           3.9119    1.6752   18.1947 C.3     1  UNL1        0.0991
      3 C           3.0823    2.9134   18.3636 C.3     1  UNL1        0.0627
      4 C           1.5931    2.8047   18.5066 C.3     1  UNL1        0.1688
      5 C           0.9335    1.4578   18.4808 C.3     1  UNL1        0.0627
      6 C           1.7631    0.2196   18.3119 C.3     1  UNL1        0.0991
      7 S           4.0818   -0.9101   18.0000 S.O2    1  UNL1        0.0459
      8 O           3.6995   -0.9685   16.5507 O.2     1  UNL1       -0.1572
      9 O           4.4642   -0.8516   19.4492 O.2     1  UNL1       -0.1572
     10 C           4.9113   -2.1483   17.8310 C.3     1  UNL1        0.1958
     11 C           3.8228   -3.2586   19.1007 C.3     1  UNL1        0.0310
     12 C           5.2921   -2.9653   19.0300 C.3     1  UNL1        0.1509
     13 N           5.3657   -3.8436   20.2437 N.am    1  UNL1       -0.2825
     14 C           6.8010   -3.9223   20.6725 C.2     1  UNL1        0.3068
     15 O           7.3300   -4.6951   21.8443 O.2     1  UNL1       -0.2524
     16 N           7.6144   -3.0927   19.7238 N.am    1  UNL1       -0.2383
     17 C           6.6819   -2.5012   18.7087 C.2     1  UNL1        0.2469
     18 O           7.0708   -1.6033   17.5718 O.2     1  UNL1       -0.2729
     19 H           4.6055   -4.2900   20.6819 H       1  UNL1        0.1514
     20 H           8.5892   -2.9597   19.7609 H       1  UNL1        0.1591
     21 O           0.7636    4.0431   18.6755 O.3     1  UNL1       -0.4791
     22 C          -0.6945    4.0227   18.3240 C.ar    1  UNL1        0.1386
     23 C          -1.7276    3.9862   19.4110 C.ar    1  UNL1        0.0400
     24 C          -3.1857    3.9659   19.0594 C.ar    1  UNL1        0.0402
     25 C          -3.6107    3.9821   17.6210 C.ar    1  UNL1        0.1444
     26 C          -2.5776    4.0186   16.5341 C.ar    1  UNL1        0.0402
     27 C          -1.1196    4.0389   16.8856 C.ar    1  UNL1        0.0400
     28 O          -5.0688    3.9617   17.2696 O.3     1  UNL1       -0.4263
     29 C          -6.0962    4.2904   18.3119 C.3     1  UNL1        0.4723
     30 F          -6.3078    2.8271   18.5647 F       1  UNL1       -0.1579
     31 F          -5.8846    5.7537   18.0590 F       1  UNL1       -0.1579
     32 C          -7.1236    4.6191   19.3542 C.3     1  UNL1        0.4202
     33 F          -8.4143    5.2710   18.9556 F       1  UNL1       -0.1876
     34 F          -6.8602    4.2958   20.7951 F       1  UNL1       -0.1876
@<TRIPOS>BOND
     1    12    11    1
     2    12    10    1
     3    10     7    1
     4     7     8    2
     5     7     9    2
     6     7     1    1
     7     1     2    1
     8     2     3    1
     9     3     4    1
    10     4    21    1
    11    21    22    1
    12    22    23   ar
    13    23    24   ar
    14    24    25   ar
    15    25    28    1
    16    28    29    1
    17    29    30    1
    18    29    31    1
    19    29    32    1
    20    32    33    1
    21    32    34    1
    22    25    26   ar
    23    26    27   ar
    24     4     5    1
    25     5     6    1
    26    12    13    1
    27    13    14   am
    28    14    15    2
    29    14    16   am
    30    16    17   am
    31    17    18    2
    32    17    12    1
    33     6     1    1
    34    27    22   ar
    35    13    19    1
    36    16    20    1
@<TRIPOS>MOLECULE
*****
 34 36 0 0 0
SMALL
GASTEIGER

@<TRIPOS>ATOM
      1 N          -2.0838    4.1159   21.6736 N.3     1  UNL1       -0.1591
      2 C          -0.7665    3.5080   22.0544 C.3     1  UNL1        0.0991
      3 C           0.1713    3.0225   20.9891 C.3     1  UNL1        0.0627
      4 C          -0.2083    3.1449   19.5431 C.3     1  UNL1        0.1688
      5 C          -1.5256    3.7529   19.1624 C.3     1  UNL1        0.0627
      6 C          -2.4634    4.2384   20.2276 C.3     1  UNL1        0.0991
      7 S          -3.0216    4.6015   22.7389 S.O2    1  UNL1        0.0459
      8 O          -1.9117    4.5361   23.7458 O.2     1  UNL1       -0.1572
      9 O          -4.1315    4.6669   21.7321 O.2     1  UNL1       -0.1572
     10 C          -3.9594    5.0870   23.8042 C.3     1  UNL1        0.1958
     11 C          -4.7290    3.2332   23.8315 C.3     1  UNL1        0.0310
     12 C          -5.3733    4.5877   23.8431 C.3     1  UNL1        0.1509
     13 N          -6.6525    3.8053   23.8797 N.am    1  UNL1       -0.2825
     14 C          -7.7919    4.7806   23.9058 C.2     1  UNL1        0.3068
     15 O          -9.2503    4.4319   23.9453 O.2     1  UNL1       -0.2524
     16 N          -7.2168    6.1658   23.8854 N.am    1  UNL1       -0.2383
     17 C          -5.7220    6.0466   23.8467 C.2     1  UNL1        0.2469
     18 O          -4.7472    7.1862   23.8168 O.2     1  UNL1       -0.2729
     19 H          -6.7306    2.8239   23.8855 H       1  UNL1        0.1514
     20 H          -7.7302    7.0058   23.8956 H       1  UNL1        0.1591
     21 O           0.7296    2.6594   18.4778 O.3     1  UNL1       -0.4791
     22 C           1.7074    1.5634   18.7821 C.ar    1  UNL1        0.1386
     23 C           1.2125    0.2178   19.2230 C.ar    1  UNL1        0.0400
     24 C           2.1904   -0.8782   19.5273 C.ar    1  UNL1        0.0402
     25 C           3.6631   -0.6286   19.3907 C.ar    1  UNL1        0.1444
     26 C           4.1580    0.7170   18.9497 C.ar    1  UNL1        0.0402
     27 C           3.1802    1.8130   18.6455 C.ar    1  UNL1        0.0400
     28 O           4.6410   -1.7246   19.6950 O.3     1  UNL1       -0.4263
     29 C           4.2994   -3.1474   19.3650 C.3     1  UNL1        0.4723
     30 F           3.9183   -3.3877   20.7958 F       1  UNL1       -0.1579
     31 F           4.6804   -2.9071   17.9343 F       1  UNL1       -0.1579
     32 C           3.9578   -4.5702   19.0351 C.3     1  UNL1        0.4202
     33 F           2.6071   -5.1186   19.3884 F       1  UNL1       -0.1876
     34 F           4.9670   -5.4447   18.3518 F       1  UNL1       -0.1876
@<TRIPOS>BOND
     1    12    11    1
     2    12    10    1
     3    10     7    1
     4     7     8    2
     5     7     9    2
     6     7     1    1
     7     1     2    1
     8     2     3    1
     9     3     4    1
    10     4    21    1
    11    21    22    1
    12    22    23   ar
    13    23    24   ar
    14    24    25   ar
    15    25    28    1
    16    28    29    1
    17    29    30    1
    18    29    31    1
    19    29    32    1
    20    32    33    1
    21    32    34    1
    22    25    26   ar
    23    26    27   ar
    24     4     5    1
    25     5     6    1
    26    12    13    1
    27    13    14   am
    28    14    15    2
    29    14    16   am
    30    16    17   am
    31    17    18    2
    32    17    12    1
    33     6     1    1
    34    27    22   ar
    35    13    19    1
    36    16    20    1
@<TRIPOS>MOLECULE
*****
 34 36 0 0 0
SMALL
GASTEIGER

@<TRIPOS>ATOM
      1 N          -1.6666    3.3232   22.0096 N.3     1  UNL1       -0.1591
      2 C          -1.2039    3.4930   23.4263 C.3     1  UNL1        0.0991
      3 C           0.1579    3.0132   23.8330 C.3     1  UNL1        0.0627
      4 C           1.0568    2.3637   22.8231 C.3     1  UNL1        0.1688
      5 C           0.5941    2.1939   21.4064 C.3     1  UNL1        0.0627
      6 C          -0.7677    2.6737   20.9997 C.3     1  UNL1        0.0991
      7 S          -3.0284    3.8030   21.6028 S.O2    1  UNL1        0.0459
      8 O          -3.0064    4.8088   22.7154 O.2     1  UNL1       -0.1572
      9 O          -3.0505    2.7972   20.4903 O.2     1  UNL1       -0.1572
     10 C          -4.3902    4.2828   21.1961 C.3     1  UNL1        0.1958
     11 C          -4.8259    2.8987   22.5832 C.3     1  UNL1        0.0310
     12 C          -5.5494    4.1344   22.1363 C.3     1  UNL1        0.1509
     13 N          -6.5575    3.7276   23.1700 N.am    1  UNL1       -0.2825
     14 C          -7.6616    4.7429   23.1653 C.2     1  UNL1        0.3068
     15 O          -8.8779    4.7268   24.0431 O.2     1  UNL1       -0.2524
     16 N          -7.3360    5.7771   22.1288 N.am    1  UNL1       -0.2383
     17 C          -6.0306    5.4010   21.4929 C.2     1  UNL1        0.2469
     18 O          -5.3295    6.1586   20.4046 O.2     1  UNL1       -0.2729
     19 H          -6.5038    2.9336   23.7496 H       1  UNL1        0.1514
     20 H          -7.8830    6.5645   21.9052 H       1  UNL1        0.1591
     21 O           2.4186    1.8839   23.2299 O.3     1  UNL1       -0.4791
     22 C           3.1488    0.8889   22.3775 C.ar    1  UNL1        0.1386
     23 C           4.1230    1.3622   21.3397 C.ar    1  UNL1        0.0400
     24 C           4.8532    0.3671   20.4873 C.ar    1  UNL1        0.0402
     25 C           4.6093   -1.1013   20.6726 C.ar    1  UNL1        0.1444
     26 C           3.6351   -1.5746   21.7104 C.ar    1  UNL1        0.0402
     27 C           2.9049   -0.5795   22.5628 C.ar    1  UNL1        0.0400
     28 O           5.3395   -2.0963   19.8202 O.3     1  UNL1       -0.4263
     29 C           4.6662   -3.3740   19.4151 C.3     1  UNL1        0.4723
     30 F           5.7100   -4.1582   20.1536 F       1  UNL1       -0.1579
     31 F           3.6223   -2.5898   18.6767 F       1  UNL1       -0.1579
     32 C           3.9928   -4.6517   19.0101 C.3     1  UNL1        0.4202
     33 F           2.4979   -4.7102   18.9022 F       1  UNL1       -0.1876
     34 F           4.8146   -5.8710   18.7129 F       1  UNL1       -0.1876
@<TRIPOS>BOND
     1    12    11    1
     2    12    10    1
     3    10     7    1
     4     7     8    2
     5     7     9    2
     6     7     1    1
     7     1     2    1
     8     2     3    1
     9     3     4    1
    10     4    21    1
    11    21    22    1
    12    22    23   ar
    13    23    24   ar
    14    24    25   ar
    15    25    28    1
    16    28    29    1
    17    29    30    1
    18    29    31    1
    19    29    32    1
    20    32    33    1
    21    32    34    1
    22    25    26   ar
    23    26    27   ar
    24     4     5    1
    25     5     6    1
    26    12    13    1
    27    13    14   am
    28    14    15    2
    29    14    16   am
    30    16    17   am
    31    17    18    2
    32    17    12    1
    33     6     1    1
    34    27    22   ar
    35    13    19    1
    36    16    20    1
@<TRIPOS>MOLECULE
*****
 34 36 0 0 0
SMALL
GASTEIGER

@<TRIPOS>ATOM
      1 N          -3.0534    3.6596   21.8497 N.3     1  UNL1       -0.1591
      2 C          -2.6342    3.2831   20.4595 C.3     1  UNL1        0.0991
      3 C          -1.1782    3.1422   20.1276 C.3     1  UNL1        0.0627
      4 C          -0.1415    3.3777   21.1857 C.3     1  UNL1        0.1688
      5 C          -0.5607    3.7542   22.5759 C.3     1  UNL1        0.0627
      6 C          -2.0167    3.8952   22.9078 C.3     1  UNL1        0.0991
      7 S          -4.5095    3.8006   22.1817 S.O2    1  UNL1        0.0459
      8 O          -4.2498    5.1686   22.7393 O.2     1  UNL1       -0.1572
      9 O          -4.7691    2.4325   21.6241 O.2     1  UNL1       -0.1572
     10 C          -5.9654    3.9416   22.5137 C.3     1  UNL1        0.1958
     11 C          -5.3451    3.6241   24.3963 C.3     1  UNL1        0.0310
     12 C          -6.3812    4.5447   23.8227 C.3     1  UNL1        0.1509
     13 N          -6.5803    4.9553   25.2516 N.am    1  UNL1       -0.2825
     14 C          -7.6527    6.0036   25.2874 C.2     1  UNL1        0.3068
     15 O          -8.1705    6.6936   26.5145 O.2     1  UNL1       -0.2524
     16 N          -8.1162    6.2409   23.8807 N.am    1  UNL1       -0.2383
     17 C          -7.3304    5.3392   22.9754 C.2     1  UNL1        0.2469
     18 O          -7.4694    5.2481   21.4847 O.2     1  UNL1       -0.2729
     19 H          -6.0929    4.5993   26.0293 H       1  UNL1        0.1514
     20 H          -8.8137    6.8768   23.6007 H       1  UNL1        0.1591
     21 O           1.3145    3.2368   20.8537 O.3     1  UNL1       -0.4791
     22 C           1.8367    1.9422   20.3048 C.ar    1  UNL1        0.1386
     23 C           1.5403    0.6535   21.0129 C.ar    1  UNL1        0.0400
     24 C           2.0626   -0.6412   20.4640 C.ar    1  UNL1        0.0402
     25 C           2.8811   -0.6471   19.2070 C.ar    1  UNL1        0.1444
     26 C           3.1775    0.6417   18.4990 C.ar    1  UNL1        0.0402
     27 C           2.6553    1.9363   19.0479 C.ar    1  UNL1        0.0400
     28 O           3.4033   -1.9417   18.6582 O.3     1  UNL1       -0.4263
     29 C           4.1129   -2.9071   19.5606 C.3     1  UNL1        0.4723
     30 F           5.1035   -1.8404   19.9227 F       1  UNL1       -0.1579
     31 F           3.1223   -3.9737   19.1986 F       1  UNL1       -0.1579
     32 C           4.8225   -3.8724   20.4631 C.3     1  UNL1        0.4202
     33 F           6.1592   -4.4257   20.0668 F       1  UNL1       -0.1876
     34 F           4.1954   -4.2846   21.7620 F       1  UNL1       -0.1876
@<TRIPOS>BOND
     1    12    11    1
     2    12    10    1
     3    10     7    1
     4     7     8    2
     5     7     9    2
     6     7     1    1
     7     1     2    1
     8     2     3    1
     9     3     4    1
    10     4    21    1
    11    21    22    1
    12    22    23   ar
    13    23    24   ar
    14    24    25   ar
    15    25    28    1
    16    28    29    1
    17    29    30    1
    18    29    31    1
    19    29    32    1
    20    32    33    1
    21    32    34    1
    22    25    26   ar
    23    26    27   ar
    24     4     5    1
    25     5     6    1
    26    12    13    1
    27    13    14   am
    28    14    15    2
    29    14    16   am
    30    16    17   am
    31    17    18    2
    32    17    12    1
    33     6     1    1
    34    27    22   ar
    35    13    19    1
    36    16    20    1
@<TRIPOS>MOLECULE
*****
 34 36 0 0 0
SMALL
GASTEIGER

@<TRIPOS>ATOM
      1 N          -1.6760    4.1369   20.5560 N.3     1  UNL1       -0.1591
      2 C          -0.3652    3.9073   21.2479 C.3     1  UNL1        0.0991
      3 C           0.8463    3.5234   20.4511 C.3     1  UNL1        0.0627
      4 C           0.7469    3.3691   18.9624 C.3     1  UNL1        0.1688
      5 C          -0.5640    3.5987   18.2704 C.3     1  UNL1        0.0627
      6 C          -1.7755    3.9826   19.0672 C.3     1  UNL1        0.0991
      7 S          -2.8876    4.5209   21.3527 S.O2    1  UNL1        0.0459
      8 O          -2.4399    3.6216   22.4667 O.2     1  UNL1       -0.1572
      9 O          -3.3353    5.4201   20.2388 O.2     1  UNL1       -0.1572
     10 C          -4.0991    4.9047   22.1495 C.3     1  UNL1        0.1958
     11 C          -2.9557    5.9923   23.3903 C.3     1  UNL1        0.0310
     12 C          -4.0228    4.9697   23.6462 C.3     1  UNL1        0.1509
     13 N          -3.7234    5.2484   25.0893 N.am    1  UNL1       -0.2825
     14 C          -4.6214    4.3843   25.9243 C.2     1  UNL1        0.3068
     15 O          -4.6585    4.3407   27.4232 O.2     1  UNL1       -0.2524
     16 N          -5.4758    3.5717   24.9971 N.am    1  UNL1       -0.2383
     17 C          -5.1058    3.9334   23.5892 C.2     1  UNL1        0.2469
     18 O          -5.7124    3.3596   22.3431 O.2     1  UNL1       -0.2729
     19 H          -3.0549    5.8864   25.4289 H       1  UNL1        0.1514
     20 H          -6.1593    2.9160   25.2655 H       1  UNL1        0.1591
     21 O           1.9584    2.9852   18.1656 O.3     1  UNL1       -0.4791
     22 C           2.7428    1.7614   18.5359 C.ar    1  UNL1        0.1386
     23 C           2.0445    0.4439   18.6989 C.ar    1  UNL1        0.0400
     24 C           2.8289   -0.7799   19.0693 C.ar    1  UNL1        0.0402
     25 C           4.3115   -0.6862   19.2766 C.ar    1  UNL1        0.1444
     26 C           5.0098    0.6314   19.1135 C.ar    1  UNL1        0.0402
     27 C           4.2255    1.8551   18.7432 C.ar    1  UNL1        0.0400
     28 O           5.0959   -1.9099   19.6469 O.3     1  UNL1       -0.4263
     29 C           4.5640   -3.2717   19.3112 C.3     1  UNL1        0.4723
     30 F           5.0346   -3.1067   17.8965 F       1  UNL1       -0.1579
     31 F           4.0934   -3.4366   20.7259 F       1  UNL1       -0.1579
     32 C           4.0321   -4.6335   18.9755 C.3     1  UNL1        0.4202
     33 F           4.9727   -5.7228   18.5529 F       1  UNL1       -0.1876
     34 F           2.5596   -4.9059   19.0624 F       1  UNL1       -0.1876
@<TRIPOS>BOND
     1    12    11    1
     2    12    10    1
     3    10     7    1
     4     7     8    2
     5     7     9    2
     6     7     1    1
     7     1     2    1
     8     2     3    1
     9     3     4    1
    10     4    21    1
    11    21    22    1
    12    22    23   ar
    13    23    24   ar
    14    24    25   ar
    15    25    28    1
    16    28    29    1
    17    29    30    1
    18    29    31    1
    19    29    32    1
    20    32    33    1
    21    32    34    1
    22    25    26   ar
    23    26    27   ar
    24     4     5    1
    25     5     6    1
    26    12    13    1
    27    13    14   am
    28    14    15    2
    29    14    16   am
    30    16    17   am
    31    17    18    2
    32    17    12    1
    33     6     1    1
    34    27    22   ar
    35    13    19    1
    36    16    20    1
