@<TRIPOS>MOLECULE
*****
 37 41 0 0 0
SMALL
GASTEIGER

@<TRIPOS>ATOM
      1 C           7.5560   -4.6035   22.8743 C.ar    1  UNL1        0.0503
      2 C           6.9208   -4.2739   24.1925 C.ar    1  UNL1        0.0143
      3 C           7.0559   -5.2211   25.3478 C.ar    1  UNL1       -0.0029
      4 C           7.8263   -6.4978   25.1849 C.ar    1  UNL1       -0.0208
      5 C           8.4615   -6.8274   23.8666 C.ar    1  UNL1       -0.0029
      6 C           8.3264   -5.8802   22.7113 C.ar    1  UNL1        0.0143
      7 C           6.1163   -3.5477   20.9868 C.2     1  UNL1        0.2313
      8 O           4.9468   -4.3863   21.4099 O.2     1  UNL1       -0.2744
      9 N           7.4209   -3.6564   21.7190 N.am    1  UNL1       -0.2836
     10 H           8.1886   -3.1060   21.4413 H       1  UNL1        0.1549
     11 N           1.4307    0.1367   19.0090 N.pl3   1  UNL1       -0.3375
     12 C           2.8052   -0.4619   18.9594 C.ar    1  UNL1        0.1560
     13 N           3.3667   -1.4620   19.9260 N.ar    1  UNL1       -0.2287
     14 C           4.7681   -1.7837   19.4984 C.ar    1  UNL1        0.0712
     15 C           5.0726   -0.9823   18.2675 C.ar    1  UNL1        0.0239
     16 S           3.8595   -0.1654   17.9344 S.2     1  UNL1       -0.0567
     17 C           6.4739   -1.3040   17.8399 C.3     1  UNL1        0.0351
     18 C           7.0354   -2.3041   18.8065 C.3     1  UNL1        0.0204
     19 C           5.9812   -2.6006   19.8315 C.3     1  UNL1        0.1174
     20 H           0.8065   -0.1223   19.7250 H       1  UNL1        0.1442
     21 H           1.1527    0.7887   18.3257 H       1  UNL1        0.1442
     22 C           7.9614   -7.4449   26.3402 C.3     1  UNL1        0.0420
     23 C           8.1432   -6.9113   27.7302 C.3     1  UNL1        0.0585
     24 C           9.4466   -6.7805   28.4609 C.3     1  UNL1        0.0175
     25 C           9.1625   -6.2031   29.8159 C.3     1  UNL1        0.0199
     26 C           7.6835   -5.9771   29.9225 C.3     1  UNL1        0.0855
     27 N           7.0535   -6.4147   28.6335 N.3     1  UNL1       -0.2971
     28 H           6.5745   -5.6269   28.1974 H       1  UNL1        0.1233
     29 C           6.9613   -5.4124   31.1098 C.3     1  UNL1        0.1470
     30 O           6.5731   -6.3093   32.2477 O.3     1  UNL1       -0.3787
     31 H           6.8612   -7.2159   32.0577 H       1  UNL1        0.2108
     32 C           6.6273   -3.9509   31.1591 C.ar    1  UNL1        0.0055
     33 C           6.7143   -3.1193   29.9138 C.ar    1  UNL1       -0.0019
     34 C           6.3803   -1.6578   29.9632 C.ar    1  UNL1       -0.0002
     35 C           5.9593   -1.0279   31.2577 C.ar    1  UNL1       -0.0000
     36 C           5.8724   -1.8595   32.5030 C.ar    1  UNL1       -0.0002
     37 C           6.2064   -3.3210   32.4537 C.ar    1  UNL1       -0.0019
@<TRIPOS>BOND
     1    11    12    1
     2    12    13   ar
     3    13    14   ar
     4    14    15   ar
     5    15    16   ar
     6    15    17    1
     7    17    18    1
     8    18    19    1
     9    19     7    1
    10     7     8    2
    11     7     9   am
    12     9     1    1
    13     1     2   ar
    14     2     3   ar
    15     3     4   ar
    16     4    22    1
    17    23    22    1
    18    23    24    1
    19    24    25    1
    20    26    25    1
    21    26    29    1
    22    29    30    1
    23    29    32    1
    24    32    33   ar
    25    33    34   ar
    26    34    35   ar
    27    35    36   ar
    28    36    37   ar
    29    26    27    1
    30     4     5   ar
    31     5     6   ar
    32    16    12   ar
    33     6     1   ar
    34    19    14    1
    35    27    23    1
    36    37    32   ar
    37    11    20    1
    38    11    21    1
    39     9    10    1
    40    30    31    1
    41    27    28    1
@<TRIPOS>MOLECULE
*****
 37 41 0 0 0
SMALL
GASTEIGER

@<TRIPOS>ATOM
      1 C           7.3517   -3.9495   25.1616 C.ar    1  UNL1        0.0503
      2 C           6.1703   -3.3927   24.4239 C.ar    1  UNL1        0.0143
      3 C           6.1272   -3.4493   22.9255 C.ar    1  UNL1       -0.0029
      4 C           7.2654   -4.0625   22.1650 C.ar    1  UNL1       -0.0208
      5 C           8.4468   -4.6193   22.9028 C.ar    1  UNL1       -0.0029
      6 C           8.4899   -4.5627   24.4011 C.ar    1  UNL1        0.0143
      7 C           6.9256   -5.0660   27.4686 C.2     1  UNL1        0.2313
      8 O           6.4132   -6.2954   26.7789 O.2     1  UNL1       -0.2744
      9 N           7.3949   -3.8930   26.6600 N.am    1  UNL1       -0.2836
     10 H           7.7313   -3.0860   27.1126 H       1  UNL1        0.1549
     11 N           5.5886   -0.5407   31.6130 N.pl3   1  UNL1       -0.3375
     12 C           6.0277   -1.9106   31.1880 C.ar    1  UNL1        0.1560
     13 N           6.1336   -2.4038   29.7753 N.ar    1  UNL1       -0.2287
     14 C           6.6093   -3.8258   29.8153 C.ar    1  UNL1        0.0712
     15 C           6.7974   -4.2115   31.2526 C.ar    1  UNL1        0.0239
     16 S           6.4379   -3.0278   32.1009 S.2     1  UNL1       -0.0567
     17 C           7.2731   -5.6335   31.2925 C.3     1  UNL1        0.0351
     18 C           7.3791   -6.1266   29.8799 C.3     1  UNL1        0.0204
     19 C           6.9688   -5.0095   28.9669 C.3     1  UNL1        0.1174
     20 H           5.3376    0.1280   30.9355 H       1  UNL1        0.1442
     21 H           5.5514   -0.3104   32.5695 H       1  UNL1        0.1442
     22 C           7.2222   -4.1190   20.6667 C.3     1  UNL1        0.0420
     23 C           5.9685   -3.7362   19.9375 C.3     1  UNL1        0.0585
     24 C           4.7581   -4.6021   19.7503 C.3     1  UNL1        0.0175
     25 C           3.7466   -3.8213   18.9646 C.3     1  UNL1        0.0199
     26 C           4.3319   -2.4728   18.6663 C.3     1  UNL1        0.0855
     27 N           5.7051   -2.4202   19.2676 N.3     1  UNL1       -0.2971
     28 H           5.7540   -1.6667   19.9534 H       1  UNL1        0.1233
     29 C           3.6616   -1.3705   17.9011 C.3     1  UNL1        0.1470
     30 O           3.8658   -1.2542   16.4196 O.3     1  UNL1       -0.3787
     31 H           4.4535   -1.9643   16.1175 H       1  UNL1        0.2108
     32 C           2.7872   -0.3844   18.6173 C.ar    1  UNL1        0.0055
     33 C           1.9426   -0.8322   19.7733 C.ar    1  UNL1       -0.0019
     34 C           1.0681    0.1539   20.4895 C.ar    1  UNL1       -0.0002
     35 C           1.0382    1.5877   20.0499 C.ar    1  UNL1       -0.0000
     36 C           1.8828    2.0354   18.8940 C.ar    1  UNL1       -0.0002
     37 C           2.7573    1.0493   18.1777 C.ar    1  UNL1       -0.0019
@<TRIPOS>BOND
     1    11    12    1
     2    12    13   ar
     3    13    14   ar
     4    14    15   ar
     5    15    16   ar
     6    15    17    1
     7    17    18    1
     8    18    19    1
     9    19     7    1
    10     7     8    2
    11     7     9   am
    12     9     1    1
    13     1     2   ar
    14     2     3   ar
    15     3     4   ar
    16     4    22    1
    17    23    22    1
    18    23    24    1
    19    24    25    1
    20    26    25    1
    21    26    29    1
    22    29    30    1
    23    29    32    1
    24    32    33   ar
    25    33    34   ar
    26    34    35   ar
    27    35    36   ar
    28    36    37   ar
    29    26    27    1
    30     4     5   ar
    31     5     6   ar
    32    16    12   ar
    33     6     1   ar
    34    19    14    1
    35    27    23    1
    36    37    32   ar
    37    11    20    1
    38    11    21    1
    39     9    10    1
    40    30    31    1
    41    27    28    1
@<TRIPOS>MOLECULE
*****
 37 41 0 0 0
SMALL
GASTEIGER

@<TRIPOS>ATOM
      1 C           6.5158   -3.6398   25.1150 C.ar    1  UNL1        0.0503
      2 C           5.4589   -3.1970   24.1470 C.ar    1  UNL1        0.0143
      3 C           5.6771   -3.3601   22.6719 C.ar    1  UNL1       -0.0029
      4 C           6.9522   -3.9659   22.1648 C.ar    1  UNL1       -0.0208
      5 C           8.0091   -4.4087   23.1327 C.ar    1  UNL1       -0.0029
      6 C           7.7908   -4.2456   24.6078 C.ar    1  UNL1        0.0143
      7 C           6.5316   -2.1454   27.2402 C.2     1  UNL1        0.2313
      8 O           6.9837   -0.9770   26.4152 O.2     1  UNL1       -0.2744
      9 N           6.2976   -3.4767   26.5900 N.am    1  UNL1       -0.2836
     10 H           6.0008   -4.2436   27.1315 H       1  UNL1        0.1549
     11 N           7.1282   -6.0706   32.1062 N.pl3   1  UNL1       -0.3375
     12 C           6.8182   -4.7608   31.4442 C.ar    1  UNL1        0.1560
     13 N           6.9030   -4.4738   29.9744 N.ar    1  UNL1       -0.2287
     14 C           6.5062   -3.0436   29.7576 C.ar    1  UNL1        0.0712
     15 C           6.1761   -2.4466   31.0935 C.ar    1  UNL1        0.0239
     16 S           6.3689   -3.5078   32.1359 S.2     1  UNL1       -0.0567
     17 C           5.7793   -1.0163   30.8767 C.3     1  UNL1        0.0351
     18 C           5.8641   -0.7295   29.4069 C.3     1  UNL1        0.0204
     19 C           6.3134   -1.9823   28.7152 C.3     1  UNL1        0.1174
     20 H           7.4176   -6.8398   31.5641 H       1  UNL1        0.1442
     21 H           7.0423   -6.1611   33.0828 H       1  UNL1        0.1442
     22 C           7.1704   -4.1290   20.6897 C.3     1  UNL1        0.0420
     23 C           6.6691   -3.0841   19.7374 C.3     1  UNL1        0.0585
     24 C           7.5076   -2.0613   19.0297 C.3     1  UNL1        0.0175
     25 C           6.5981   -1.2235   18.1805 C.3     1  UNL1        0.0199
     26 C           5.1976   -1.7287   18.3634 C.3     1  UNL1        0.0855
     27 N           5.2415   -2.8785   19.3256 N.3     1  UNL1       -0.2971
     28 H           4.8867   -3.7215   18.8740 H       1  UNL1        0.1233
     29 C           3.9690   -1.1802   17.7004 C.3     1  UNL1        0.1470
     30 O           3.7616   -1.3739   16.2275 O.3     1  UNL1       -0.3787
     31 H           4.5089   -1.8700   15.8582 H       1  UNL1        0.2108
     32 C           2.9477   -0.4379   18.5103 C.ar    1  UNL1        0.0055
     33 C           2.6611    1.0047   18.2160 C.ar    1  UNL1       -0.0019
     34 C           1.6398    1.7469   19.0259 C.ar    1  UNL1       -0.0002
     35 C           0.9050    1.0466   20.1302 C.ar    1  UNL1       -0.0000
     36 C           1.1916   -0.3961   20.4246 C.ar    1  UNL1       -0.0002
     37 C           2.2129   -1.1383   19.6146 C.ar    1  UNL1       -0.0019
@<TRIPOS>BOND
     1    11    12    1
     2    12    13   ar
     3    13    14   ar
     4    14    15   ar
     5    15    16   ar
     6    15    17    1
     7    17    18    1
     8    18    19    1
     9    19     7    1
    10     7     8    2
    11     7     9   am
    12     9     1    1
    13     1     2   ar
    14     2     3   ar
    15     3     4   ar
    16     4    22    1
    17    23    22    1
    18    23    24    1
    19    24    25    1
    20    26    25    1
    21    26    29    1
    22    29    30    1
    23    29    32    1
    24    32    33   ar
    25    33    34   ar
    26    34    35   ar
    27    35    36   ar
    28    36    37   ar
    29    26    27    1
    30     4     5   ar
    31     5     6   ar
    32    16    12   ar
    33     6     1   ar
    34    19    14    1
    35    27    23    1
    36    37    32   ar
    37    11    20    1
    38    11    21    1
    39     9    10    1
    40    30    31    1
    41    27    28    1
@<TRIPOS>MOLECULE
*****
 37 41 0 0 0
SMALL
GASTEIGER

@<TRIPOS>ATOM
      1 C           2.3971   -0.2600   18.6659 C.ar    1  UNL1        0.0503
      2 C           2.3511   -1.1330   19.8848 C.ar    1  UNL1        0.0143
      3 C           3.3983   -2.1867   20.0926 C.ar    1  UNL1       -0.0029
      4 C           4.4915   -2.3674   19.0815 C.ar    1  UNL1       -0.0208
      5 C           4.5375   -1.4944   17.8626 C.ar    1  UNL1       -0.0029
      6 C           3.4903   -0.4407   17.6548 C.ar    1  UNL1        0.0143
      7 C           1.5222    2.1530   19.0684 C.2     1  UNL1        0.2313
      8 O           2.7417    2.4586   19.8867 O.2     1  UNL1       -0.2744
      9 N           1.3500    0.7937   18.4580 N.am    1  UNL1       -0.2836
     10 H           0.5496    0.5931   17.9210 H       1  UNL1        0.1549
     11 N          -4.3488    2.8192   21.1966 N.pl3   1  UNL1       -0.3375
     12 C          -3.1300    3.2170   20.4179 C.ar    1  UNL1        0.1560
     13 N          -1.8432    2.4500   20.3417 N.ar    1  UNL1       -0.2287
     14 C          -0.9019    3.2106   19.4554 C.ar    1  UNL1        0.0712
     15 C          -1.6070    4.4478   18.9839 C.ar    1  UNL1        0.0239
     16 S          -2.9840    4.4517   19.5787 S.2     1  UNL1       -0.0567
     17 C          -0.6657    5.2084   18.0976 C.3     1  UNL1        0.0351
     18 C           0.6210    4.4413   18.0215 C.3     1  UNL1        0.0204
     19 C           0.4751    3.2067   18.8606 C.3     1  UNL1        0.1174
     20 H          -4.3480    1.9855   21.7201 H       1  UNL1        0.1442
     21 H          -5.1495    3.3919   21.1841 H       1  UNL1        0.1442
     22 C           5.5386   -3.4211   19.2894 C.3     1  UNL1        0.0420
     23 C           6.2843   -3.4914   20.5890 C.3     1  UNL1        0.0585
     24 C           7.7006   -3.0535   20.8177 C.3     1  UNL1        0.0175
     25 C           8.0361   -3.3034   22.2582 C.3     1  UNL1        0.0199
     26 C           6.8272   -3.8958   22.9197 C.3     1  UNL1        0.0855
     27 N           5.7445   -4.0120   21.8881 N.3     1  UNL1       -0.2971
     28 H           4.9349   -3.4606   22.1724 H       1  UNL1        0.1233
     29 C           6.7199   -4.3009   24.3600 C.3     1  UNL1        0.1470
     30 O           5.9494   -3.4479   25.3236 O.3     1  UNL1       -0.3787
     31 H           5.5876   -2.6786   24.8566 H       1  UNL1        0.2108
     32 C           7.3832   -5.5590   24.8366 C.ar    1  UNL1        0.0055
     33 C           8.2446   -6.3538   23.9005 C.ar    1  UNL1       -0.0019
     34 C           8.9079   -7.6119   24.3771 C.ar    1  UNL1       -0.0002
     35 C           8.7098   -8.0753   25.7899 C.ar    1  UNL1       -0.0000
     36 C           7.8485   -7.2805   26.7261 C.ar    1  UNL1       -0.0002
     37 C           7.1852   -6.0224   26.2494 C.ar    1  UNL1       -0.0019
@<TRIPOS>BOND
     1    11    12    1
     2    12    13   ar
     3    13    14   ar
     4    14    15   ar
     5    15    16   ar
     6    15    17    1
     7    17    18    1
     8    18    19    1
     9    19     7    1
    10     7     8    2
    11     7     9   am
    12     9     1    1
    13     1     2   ar
    14     2     3   ar
    15     3     4   ar
    16     4    22    1
    17    23    22    1
    18    23    24    1
    19    24    25    1
    20    26    25    1
    21    26    29    1
    22    29    30    1
    23    29    32    1
    24    32    33   ar
    25    33    34   ar
    26    34    35   ar
    27    35    36   ar
    28    36    37   ar
    29    26    27    1
    30     4     5   ar
    31     5     6   ar
    32    16    12   ar
    33     6     1   ar
    34    19    14    1
    35    27    23    1
    36    37    32   ar
    37    11    20    1
    38    11    21    1
    39     9    10    1
    40    30    31    1
    41    27    28    1
@<TRIPOS>MOLECULE
*****
 37 41 0 0 0
SMALL
GASTEIGER

@<TRIPOS>ATOM
      1 C          -0.4221    3.4565   18.5426 C.ar    1  UNL1        0.0503
      2 C          -1.1951    3.3590   19.8244 C.ar    1  UNL1        0.0143
      3 C          -2.6778    3.5865   19.8251 C.ar    1  UNL1       -0.0029
      4 C          -3.3874    3.9115   18.5441 C.ar    1  UNL1       -0.0208
      5 C          -2.6144    4.0090   17.2624 C.ar    1  UNL1       -0.0029
      6 C          -1.1317    3.7814   17.2617 C.ar    1  UNL1        0.0143
      7 C           1.6054    1.8352   18.4384 C.2     1  UNL1        0.2313
      8 O           0.6677    0.6691   18.3359 O.2     1  UNL1       -0.2744
      9 N           1.0606    3.2289   18.5418 N.am    1  UNL1       -0.2836
     10 H           1.6761    3.9944   18.6091 H       1  UNL1        0.1549
     11 N           5.1323   -3.3431   18.0051 N.pl3   1  UNL1       -0.3375
     12 C           4.8897   -1.8689   18.1389 C.ar    1  UNL1        0.1560
     13 N           3.5496   -1.1964   18.1831 N.ar    1  UNL1       -0.2287
     14 C           3.7762    0.2798   18.3235 C.ar    1  UNL1        0.0712
     15 C           5.2563    0.5195   18.3661 C.ar    1  UNL1        0.0239
     16 S           5.9444   -0.8085   18.2520 S.2     1  UNL1       -0.0567
     17 C           5.4829    1.9956   18.5066 C.3     1  UNL1        0.0351
     18 C           4.1429    2.6681   18.5507 C.3     1  UNL1        0.0204
     19 C           3.0881    1.6077   18.4376 C.3     1  UNL1        0.1174
     20 H           4.3706   -3.9632   17.9370 H       1  UNL1        0.1442
     21 H           6.0532   -3.6906   17.9854 H       1  UNL1        0.1442
     22 C          -4.8701    4.1390   18.5450 C.3     1  UNL1        0.0420
     23 C          -5.5498    4.6497   19.7807 C.3     1  UNL1        0.0585
     24 C          -5.9453    6.0722   20.0455 C.3     1  UNL1        0.0175
     25 C          -6.5933    6.1292   21.3971 C.3     1  UNL1        0.0199
     26 C          -6.5983    4.7419   21.9677 C.3     1  UNL1        0.0855
     27 N          -5.9534    3.8276   20.9687 N.3     1  UNL1       -0.2971
     28 H          -6.6151    3.1063   20.6819 H       1  UNL1        0.1233
     29 C          -7.1511    4.3398   23.3028 C.3     1  UNL1        0.1470
     30 O          -8.5240    3.7429   23.3971 O.3     1  UNL1       -0.3787
     31 H          -8.9140    3.6872   22.5107 H       1  UNL1        0.2108
     32 C          -6.3311    4.5344   24.5436 C.ar    1  UNL1        0.0055
     33 C          -6.7159    5.5883   25.5392 C.ar    1  UNL1       -0.0019
     34 C          -5.8958    5.7830   26.7800 C.ar    1  UNL1       -0.0002
     35 C          -4.6910    4.9239   27.0253 C.ar    1  UNL1       -0.0000
     36 C          -4.3062    3.8700   26.0296 C.ar    1  UNL1       -0.0002
     37 C          -5.1262    3.6753   24.7888 C.ar    1  UNL1       -0.0019
@<TRIPOS>BOND
     1    11    12    1
     2    12    13   ar
     3    13    14   ar
     4    14    15   ar
     5    15    16   ar
     6    15    17    1
     7    17    18    1
     8    18    19    1
     9    19     7    1
    10     7     8    2
    11     7     9   am
    12     9     1    1
    13     1     2   ar
    14     2     3   ar
    15     3     4   ar
    16     4    22    1
    17    23    22    1
    18    23    24    1
    19    24    25    1
    20    26    25    1
    21    26    29    1
    22    29    30    1
    23    29    32    1
    24    32    33   ar
    25    33    34   ar
    26    34    35   ar
    27    35    36   ar
    28    36    37   ar
    29    26    27    1
    30     4     5   ar
    31     5     6   ar
    32    16    12   ar
    33     6     1   ar
    34    19    14    1
    35    27    23    1
    36    37    32   ar
    37    11    20    1
    38    11    21    1
    39     9    10    1
    40    30    31    1
    41    27    28    1
@<TRIPOS>MOLECULE
*****
 37 41 0 0 0
SMALL
GASTEIGER

@<TRIPOS>ATOM
      1 C           6.4405   -3.4017   25.5823 C.ar    1  UNL1        0.0503
      2 C           6.6038   -4.8116   26.0674 C.ar    1  UNL1        0.0143
      3 C           7.1565   -5.0742   27.4370 C.ar    1  UNL1       -0.0029
      4 C           7.5459   -3.9270   28.3213 C.ar    1  UNL1       -0.0208
      5 C           7.3826   -2.5170   27.8362 C.ar    1  UNL1       -0.0029
      6 C           6.8299   -2.2544   26.4667 C.ar    1  UNL1        0.0143
      7 C           4.6656   -2.2850   24.0484 C.2     1  UNL1        0.2313
      8 O           3.9961   -1.6938   25.2535 O.2     1  UNL1       -0.2744
      9 N           5.8878   -3.1390   24.2128 N.am    1  UNL1       -0.2836
     10 H           6.3271   -3.5271   23.4219 H       1  UNL1        0.1549
     11 N           4.8497   -5.5279   18.6733 N.pl3   1  UNL1       -0.3375
     12 C           4.4757   -4.3723   19.5535 C.ar    1  UNL1        0.1560
     13 N           4.8243   -4.2203   21.0045 N.ar    1  UNL1       -0.2287
     14 C           4.2515   -2.9199   21.4851 C.ar    1  UNL1        0.0712
     15 C           3.5488   -2.2683   20.3312 C.ar    1  UNL1        0.0239
     16 S           3.6874   -3.1659   19.1374 S.2     1  UNL1       -0.0567
     17 C           2.9760   -0.9680   20.8118 C.3     1  UNL1        0.0351
     18 C           3.3246   -0.8160   22.2627 C.3     1  UNL1        0.0204
     19 C           4.1129   -2.0223   22.6789 C.3     1  UNL1        0.1174
     20 H           5.3718   -6.2775   19.0403 H       1  UNL1        0.1442
     21 H           4.5730   -5.5367   17.7285 H       1  UNL1        0.1442
     22 C           8.0987   -4.1897   29.6908 C.3     1  UNL1        0.0420
     23 C           7.5180   -3.4862   30.8816 C.3     1  UNL1        0.0585
     24 C           8.2614   -2.5844   31.8219 C.3     1  UNL1        0.0175
     25 C           7.2949   -2.1018   32.8626 C.3     1  UNL1        0.0199
     26 C           5.9542   -2.7054   32.5654 C.3     1  UNL1        0.0855
     27 N           6.0921   -3.5609   31.3411 N.3     1  UNL1       -0.2971
     28 H           5.4733   -3.2168   30.6069 H       1  UNL1        0.1233
     29 C           4.6964   -2.4909   33.3541 C.3     1  UNL1        0.1470
     30 O           3.7685   -3.6406   33.6134 O.3     1  UNL1       -0.3787
     31 H           4.1274   -4.4441   33.2053 H       1  UNL1        0.2108
     32 C           4.3666   -1.1268   33.8836 C.ar    1  UNL1        0.0055
     33 C           3.6165   -0.1508   33.0264 C.ar    1  UNL1       -0.0019
     34 C           3.2867    1.2134   33.5559 C.ar    1  UNL1       -0.0002
     35 C           3.7069    1.6016   34.9424 C.ar    1  UNL1       -0.0000
     36 C           4.4570    0.6256   35.7996 C.ar    1  UNL1       -0.0002
     37 C           4.7869   -0.7386   35.2702 C.ar    1  UNL1       -0.0019
@<TRIPOS>BOND
     1    11    12    1
     2    12    13   ar
     3    13    14   ar
     4    14    15   ar
     5    15    16   ar
     6    15    17    1
     7    17    18    1
     8    18    19    1
     9    19     7    1
    10     7     8    2
    11     7     9   am
    12     9     1    1
    13     1     2   ar
    14     2     3   ar
    15     3     4   ar
    16     4    22    1
    17    23    22    1
    18    23    24    1
    19    24    25    1
    20    26    25    1
    21    26    29    1
    22    29    30    1
    23    29    32    1
    24    32    33   ar
    25    33    34   ar
    26    34    35   ar
    27    35    36   ar
    28    36    37   ar
    29    26    27    1
    30     4     5   ar
    31     5     6   ar
    32    16    12   ar
    33     6     1   ar
    34    19    14    1
    35    27    23    1
    36    37    32   ar
    37    11    20    1
    38    11    21    1
    39     9    10    1
    40    30    31    1
    41    27    28    1
@<TRIPOS>MOLECULE
*****
 37 41 0 0 0
SMALL
GASTEIGER

@<TRIPOS>ATOM
      1 C           0.5236    1.9460   18.8346 C.ar    1  UNL1        0.0503
      2 C           0.1939    3.0329   17.8549 C.ar    1  UNL1        0.0143
      3 C          -0.8595    4.0478   18.1872 C.ar    1  UNL1       -0.0029
      4 C          -1.5831    3.9758   19.4992 C.ar    1  UNL1       -0.0208
      5 C          -1.2534    2.8889   20.4789 C.ar    1  UNL1       -0.0029
      6 C          -0.2000    1.8740   20.1465 C.ar    1  UNL1        0.0143
      7 C           3.0214    1.2339   18.7706 C.2     1  UNL1        0.2313
      8 O           3.4125    2.5517   19.3710 O.2     1  UNL1       -0.2744
      9 N           1.5770    0.9311   18.5023 N.am    1  UNL1       -0.2836
     10 H           1.3204    0.0662   18.1082 H       1  UNL1        0.1549
     11 N           3.4379   -4.9595   19.7244 N.pl3   1  UNL1       -0.3375
     12 C           3.9129   -3.6223   19.2383 C.ar    1  UNL1        0.1560
     13 N           3.1713   -2.3245   19.3629 N.ar    1  UNL1       -0.2287
     14 C           4.0130   -1.2482   18.7439 C.ar    1  UNL1        0.0712
     15 C           5.2749   -1.8809   18.2366 C.ar    1  UNL1        0.0239
     16 S           5.2130   -3.3481   18.5422 S.2     1  UNL1       -0.0567
     17 C           6.1166   -0.8046   17.6175 C.3     1  UNL1        0.0351
     18 C           5.3749    0.4931   17.7422 C.3     1  UNL1        0.0204
     19 C           4.0748    0.2190   18.4383 C.3     1  UNL1        0.1174
     20 H           2.5647   -5.0387   20.1723 H       1  UNL1        0.1442
     21 H           3.9993   -5.7579   19.5956 H       1  UNL1        0.1442
     22 C          -2.6365    4.9907   19.8314 C.3     1  UNL1        0.0420
     23 C          -3.9527    4.5476   20.3981 C.3     1  UNL1        0.0585
     24 C          -5.0167    3.7859   19.6648 C.3     1  UNL1        0.0175
     25 C          -6.1577    3.5559   20.6111 C.3     1  UNL1        0.0199
     26 C          -5.7988    4.1754   21.9292 C.3     1  UNL1        0.0855
     27 N          -4.4360    4.7883   21.7976 N.3     1  UNL1       -0.2971
     28 H          -3.7962    4.3559   22.4639 H       1  UNL1        0.1233
     29 C          -6.6527    4.1810   23.1624 C.3     1  UNL1        0.1470
     30 O          -8.1242    3.9098   23.0569 O.3     1  UNL1       -0.3787
     31 H          -8.3582    3.7519   22.1289 H       1  UNL1        0.2108
     32 C          -6.0351    4.4578   24.5010 C.ar    1  UNL1        0.0055
     33 C          -6.5732    5.5625   25.3613 C.ar    1  UNL1       -0.0019
     34 C          -5.9556    5.8393   26.6999 C.ar    1  UNL1       -0.0002
     35 C          -4.7999    5.0115   27.1783 C.ar    1  UNL1       -0.0000
     36 C          -4.2617    3.9068   26.3180 C.ar    1  UNL1       -0.0002
     37 C          -4.8793    3.6300   24.9794 C.ar    1  UNL1       -0.0019
@<TRIPOS>BOND
     1    11    12    1
     2    12    13   ar
     3    13    14   ar
     4    14    15   ar
     5    15    16   ar
     6    15    17    1
     7    17    18    1
     8    18    19    1
     9    19     7    1
    10     7     8    2
    11     7     9   am
    12     9     1    1
    13     1     2   ar
    14     2     3   ar
    15     3     4   ar
    16     4    22    1
    17    23    22    1
    18    23    24    1
    19    24    25    1
    20    26    25    1
    21    26    29    1
    22    29    30    1
    23    29    32    1
    24    32    33   ar
    25    33    34   ar
    26    34    35   ar
    27    35    36   ar
    28    36    37   ar
    29    26    27    1
    30     4     5   ar
    31     5     6   ar
    32    16    12   ar
    33     6     1   ar
    34    19    14    1
    35    27    23    1
    36    37    32   ar
    37    11    20    1
    38    11    21    1
    39     9    10    1
    40    30    31    1
    41    27    28    1
@<TRIPOS>MOLECULE
*****
 37 41 0 0 0
SMALL
GASTEIGER

@<TRIPOS>ATOM
      1 C           7.4506   -4.6626   25.9884 C.ar    1  UNL1        0.0503
      2 C           6.5057   -5.4330   26.8622 C.ar    1  UNL1        0.0143
      3 C           6.7541   -5.5231   28.3388 C.ar    1  UNL1       -0.0029
      4 C           7.9473   -4.8428   28.9416 C.ar    1  UNL1       -0.0208
      5 C           8.8922   -4.0724   28.0678 C.ar    1  UNL1       -0.0029
      6 C           8.6439   -3.9823   26.5912 C.ar    1  UNL1        0.0143
      7 C           6.3000   -3.5053   23.9668 C.2     1  UNL1        0.2313
      8 O           5.6461   -2.5283   24.8983 O.2     1  UNL1       -0.2744
      9 N           7.2023   -4.5724   24.5118 N.am    1  UNL1       -0.2836
     10 H           7.6316   -5.2137   23.9004 H       1  UNL1        0.1549
     11 N           1.7686   -0.8110   20.5538 N.pl3   1  UNL1       -0.3375
     12 C           3.0304   -1.5942   20.7646 C.ar    1  UNL1        0.1560
     13 N           3.6516   -1.9254   22.0891 N.ar    1  UNL1       -0.2287
     14 C           4.8977   -2.7196   21.8311 C.ar    1  UNL1        0.0712
     15 C           5.0466   -2.8793   20.3471 C.ar    1  UNL1        0.0239
     16 S           3.8925   -2.1838   19.6880 S.2     1  UNL1       -0.0567
     17 C           6.2926   -3.6735   20.0891 C.3     1  UNL1        0.0351
     18 C           6.9138   -4.0046   21.4136 C.3     1  UNL1        0.0204
     19 C           6.0517   -3.4151   22.4902 C.3     1  UNL1        0.1174
     20 H           1.2699   -0.4633   21.3281 H       1  UNL1        0.1442
     21 H           1.4391   -0.6448   19.6410 H       1  UNL1        0.1442
     22 C           8.1956   -4.9329   30.4181 C.3     1  UNL1        0.0420
     23 C           7.5304   -3.9649   31.3510 C.3     1  UNL1        0.0585
     24 C           8.1684   -2.7565   31.9696 C.3     1  UNL1        0.0175
     25 C           7.1426   -2.0800   32.8300 C.3     1  UNL1        0.0199
     26 C           5.8707   -2.8703   32.7431 C.3     1  UNL1        0.0855
     27 N           6.1103   -4.0352   31.8291 N.3     1  UNL1       -0.2971
     28 H           5.4743   -3.9872   31.0331 H       1  UNL1        0.1233
     29 C           4.5849   -2.5516   33.4468 C.3     1  UNL1        0.1470
     30 O           3.5873   -3.6391   33.7152 O.3     1  UNL1       -0.3787
     31 H           3.9263   -4.4807   33.3721 H       1  UNL1        0.2108
     32 C           4.2968   -1.1454   33.8821 C.ar    1  UNL1        0.0055
     33 C           3.5942   -0.2014   32.9519 C.ar    1  UNL1       -0.0019
     34 C           3.3061    1.2048   33.3872 C.ar    1  UNL1       -0.0002
     35 C           3.7204    1.6671   34.7526 C.ar    1  UNL1       -0.0000
     36 C           4.4230    0.7231   35.6828 C.ar    1  UNL1       -0.0002
     37 C           4.7111   -0.6831   35.2476 C.ar    1  UNL1       -0.0019
@<TRIPOS>BOND
     1    11    12    1
     2    12    13   ar
     3    13    14   ar
     4    14    15   ar
     5    15    16   ar
     6    15    17    1
     7    17    18    1
     8    18    19    1
     9    19     7    1
    10     7     8    2
    11     7     9   am
    12     9     1    1
    13     1     2   ar
    14     2     3   ar
    15     3     4   ar
    16     4    22    1
    17    23    22    1
    18    23    24    1
    19    24    25    1
    20    26    25    1
    21    26    29    1
    22    29    30    1
    23    29    32    1
    24    32    33   ar
    25    33    34   ar
    26    34    35   ar
    27    35    36   ar
    28    36    37   ar
    29    26    27    1
    30     4     5   ar
    31     5     6   ar
    32    16    12   ar
    33     6     1   ar
    34    19    14    1
    35    27    23    1
    36    37    32   ar
    37    11    20    1
    38    11    21    1
    39     9    10    1
    40    30    31    1
    41    27    28    1
@<TRIPOS>MOLECULE
*****
 37 41 0 0 0
SMALL
GASTEIGER

@<TRIPOS>ATOM
      1 C           2.0305    0.1660   19.3264 C.ar    1  UNL1        0.0503
      2 C           2.7905    0.1135   18.0343 C.ar    1  UNL1        0.0143
      3 C           3.7798   -0.9873   17.7903 C.ar    1  UNL1       -0.0029
      4 C           4.0091   -2.0356   18.8384 C.ar    1  UNL1       -0.0208
      5 C           3.2491   -1.9831   20.1305 C.ar    1  UNL1       -0.0029
      6 C           2.2597   -0.8823   20.3744 C.ar    1  UNL1        0.0143
      7 C           1.5223    2.6629   19.8337 C.2     1  UNL1        0.2313
      8 O           2.9928    2.9582   19.8528 O.2     1  UNL1       -0.2744
      9 N           1.0411    1.2668   19.5705 N.am    1  UNL1       -0.2836
     10 H           0.0760    1.0729   19.5579 H       1  UNL1        0.1549
     11 N          -4.6222    2.6735   21.1324 N.pl3   1  UNL1       -0.3375
     12 C          -3.2855    3.3015   20.8699 C.ar    1  UNL1        0.1560
     13 N          -2.0096    2.5692   20.5770 N.ar    1  UNL1       -0.2287
     14 C          -0.9255    3.5871   20.3803 C.ar    1  UNL1        0.0712
     15 C          -1.5315    4.9485   20.5516 C.ar    1  UNL1        0.0239
     16 S          -2.9900    4.7720   20.8542 S.2     1  UNL1       -0.0567
     17 C          -0.4474    5.9665   20.3549 C.3     1  UNL1        0.0351
     18 C           0.8284    5.2341   20.0621 C.3     1  UNL1        0.0204
     19 C           0.5330    3.7637   20.0777 C.3     1  UNL1        0.1174
     20 H          -4.7165    1.6936   21.1212 H       1  UNL1        0.1442
     21 H          -5.4053    3.2413   21.3159 H       1  UNL1        0.1442
     22 C           4.9984   -3.1364   18.5943 C.3     1  UNL1        0.0420
     23 C           6.1646   -3.3157   19.5205 C.3     1  UNL1        0.0585
     24 C           7.2420   -2.3067   19.7872 C.3     1  UNL1        0.0175
     25 C           8.2013   -2.9029   20.7742 C.3     1  UNL1        0.0199
     26 C           7.7169   -4.2803   21.1175 C.3     1  UNL1        0.0855
     27 N           6.4581   -4.5355   20.3427 N.3     1  UNL1       -0.2971
     28 H           5.6862   -4.7137   20.9853 H       1  UNL1        0.1233
     29 C           8.3756   -5.2350   22.0687 C.3     1  UNL1        0.1470
     30 O           9.5359   -6.0684   21.6114 O.3     1  UNL1       -0.3787
     31 H           9.7307   -5.8693   20.6823 H       1  UNL1        0.2108
     32 C           7.8739   -5.3563   23.4771 C.ar    1  UNL1        0.0055
     33 C           8.1454   -6.6034   24.2652 C.ar    1  UNL1       -0.0019
     34 C           7.6438   -6.7246   25.6736 C.ar    1  UNL1       -0.0002
     35 C           6.8707   -5.5989   26.2940 C.ar    1  UNL1       -0.0000
     36 C           6.5991   -4.3518   25.5059 C.ar    1  UNL1       -0.0002
     37 C           7.1008   -4.2306   24.0975 C.ar    1  UNL1       -0.0019
@<TRIPOS>BOND
     1    11    12    1
     2    12    13   ar
     3    13    14   ar
     4    14    15   ar
     5    15    16   ar
     6    15    17    1
     7    17    18    1
     8    18    19    1
     9    19     7    1
    10     7     8    2
    11     7     9   am
    12     9     1    1
    13     1     2   ar
    14     2     3   ar
    15     3     4   ar
    16     4    22    1
    17    23    22    1
    18    23    24    1
    19    24    25    1
    20    26    25    1
    21    26    29    1
    22    29    30    1
    23    29    32    1
    24    32    33   ar
    25    33    34   ar
    26    34    35   ar
    27    35    36   ar
    28    36    37   ar
    29    26    27    1
    30     4     5   ar
    31     5     6   ar
    32    16    12   ar
    33     6     1   ar
    34    19    14    1
    35    27    23    1
    36    37    32   ar
    37    11    20    1
    38    11    21    1
    39     9    10    1
    40    30    31    1
    41    27    28    1
