@<TRIPOS>MOLECULE
*****
 31 36 0 0 0
SMALL
GASTEIGER

@<TRIPOS>ATOM
      1 O         -14.7939   -9.3470   18.3320 O.2     1  UNL1       -0.2679
      2 C         -14.7958   -7.8565   18.4995 C.2     1  UNL1        0.2704
      3 N         -16.0633   -7.1449   18.8698 N.am    1  UNL1       -0.2539
      4 C         -16.2179   -5.6665   19.0709 C.3     1  UNL1        0.1039
      5 C         -17.6489   -5.3948   19.4295 C.3     1  UNL1        0.0548
      6 C         -19.0799   -5.1229   19.7880 C.3     1  UNL1        0.0244
      7 C         -19.2346   -3.6445   19.9892 C.3     1  UNL1        0.0725
      8 N         -17.8992   -3.0026   19.7550 N.3     1  UNL1       -0.2723
      9 C         -16.9193   -4.0843   19.4091 C.3     1  UNL1        0.0778
     10 C         -18.3786   -6.7051   19.4499 C.ar    1  UNL1       -0.0061
     11 C         -19.8087   -7.0532   19.7388 C.ar    1  UNL1       -0.0030
     12 C         -20.2589   -8.4828   19.6818 C.ar    1  UNL1       -0.0002
     13 C         -19.2789   -9.5645   19.3359 C.ar    1  UNL1        0.0013
     14 C         -17.8488   -9.2165   19.0470 C.ar    1  UNL1        0.0146
     15 C         -17.3986   -7.7868   19.1040 C.ar    1  UNL1        0.0502
     16 C         -13.5301   -7.0774   18.2966 C.2     1  UNL1        0.1346
     17 C         -12.7259   -6.4066   19.3705 C.2     1  UNL1        0.0249
     18 C         -11.5452   -5.7470   18.7218 C.2     1  UNL1        0.0157
     19 C         -10.4119   -4.9407   19.2835 C.2     1  UNL1        0.0032
     20 C          -9.3530   -4.3976   18.3704 C.2     1  UNL1        0.0256
     21 C          -9.4274   -4.6608   16.8956 C.2     1  UNL1        0.1236
     22 F          -8.3686   -4.1177   15.9824 F       1  UNL1       -0.2085
     23 C         -10.5607   -5.4671   16.3339 C.3     1  UNL1        0.1022
     24 C         -11.6197   -6.0102   17.2470 C.2     1  UNL1        0.0659
     25 N         -12.8463   -6.8324   16.9842 N.2     1  UNL1       -0.2447
     26 C         -17.5969   -1.5365   19.8499 C.3     1  UNL1        0.0746
     27 C         -16.2438   -0.9045   19.7096 C.3     1  UNL1        0.0344
     28 C         -16.4051    0.5777   19.8749 C.3     1  UNL1        0.0700
     29 N         -17.8580    0.8616   20.1173 N.3     1  UNL1       -0.2963
     30 C         -18.5945   -0.4451   20.1019 C.3     1  UNL1        0.0847
     31 H         -18.2188    1.4710   19.3833 H       1  UNL1        0.1233
@<TRIPOS>BOND
     1     1     2    2
     2     2    16    1
     3    16    17    2
     4    17    18    1
     5    18    19    2
     6    19    20    1
     7    20    21    2
     8    21    22    1
     9    21    23    1
    10    23    24    1
    11    24    25    2
    12     2     3   am
    13     3     4    1
    14     5     4    1
    15     5     6    1
    16     6     7    1
    17     7     8    1
    18     8    26    1
    19    26    27    1
    20    27    28    1
    21    28    29    1
    22    29    30    1
    23     8     9    1
    24     5    10    1
    25    10    11   ar
    26    11    12   ar
    27    12    13   ar
    28    13    14   ar
    29    14    15   ar
    30    25    16    1
    31    15     3    1
    32    24    18    1
    33     9     5    1
    34    15    10   ar
    35    30    26    1
    36    29    31    1
@<TRIPOS>MOLECULE
*****
 31 36 0 0 0
SMALL
GASTEIGER

@<TRIPOS>ATOM
      1 O           7.2145   -5.0876   22.8920 O.2     1  UNL1       -0.2679
      2 C           6.4089   -4.1363   23.7261 C.2     1  UNL1        0.2704
      3 N           5.4125   -3.2248   23.0731 N.am    1  UNL1       -0.2539
      4 C           4.5397   -2.2260   23.7736 C.3     1  UNL1        0.1039
      5 C           3.7018   -1.5361   22.7383 C.3     1  UNL1        0.0548
      6 C           2.8639   -0.8460   21.7029 C.3     1  UNL1        0.0244
      7 C           1.9911    0.1527   22.4034 C.3     1  UNL1        0.0725
      8 N           2.2895    0.0800   23.8716 N.3     1  UNL1       -0.2723
      9 C           3.3468   -0.9637   24.0786 C.3     1  UNL1        0.0778
     10 C           4.0568   -2.1084   21.3979 C.ar    1  UNL1       -0.0061
     11 C           3.5538   -1.8140   20.0158 C.ar    1  UNL1       -0.0030
     12 C           4.1082   -2.5633   18.8406 C.ar    1  UNL1       -0.0002
     13 C           5.1655   -3.6070   19.0475 C.ar    1  UNL1        0.0013
     14 C           5.6684   -3.9014   20.4297 C.ar    1  UNL1        0.0146
     15 C           5.1141   -3.1521   21.6049 C.ar    1  UNL1        0.0502
     16 C           6.5997   -4.0963   25.2135 C.2     1  UNL1        0.1346
     17 C           6.9150   -2.8779   26.0296 C.2     1  UNL1        0.0249
     18 C           7.0188   -3.2964   27.4663 C.2     1  UNL1        0.0157
     19 C           7.3096   -2.5233   28.7184 C.2     1  UNL1        0.0032
     20 C           7.3493   -3.2272   30.0423 C.2     1  UNL1        0.0256
     21 C           7.0982   -4.7043   30.1141 C.2     1  UNL1        0.1236
     22 F           7.1379   -5.4084   31.4381 F       1  UNL1       -0.2085
     23 C           6.8074   -5.4774   28.8620 C.3     1  UNL1        0.1022
     24 C           6.7677   -4.7734   27.5381 C.2     1  UNL1        0.0659
     25 N           6.5087   -5.2679   26.1458 N.2     1  UNL1       -0.2447
     26 C           1.6441    0.9060   24.9445 C.3     1  UNL1        0.0746
     27 C           0.1831    1.2288   25.0496 C.3     1  UNL1        0.0344
     28 C          -0.0178    2.0765   26.2708 C.3     1  UNL1        0.0700
     29 N           1.3193    2.2775   26.9204 N.3     1  UNL1       -0.2963
     30 C           2.3464    1.5541   26.1007 C.3     1  UNL1        0.0847
     31 H           1.3041    1.9001   27.8679 H       1  UNL1        0.1233
@<TRIPOS>BOND
     1     1     2    2
     2     2    16    1
     3    16    17    2
     4    17    18    1
     5    18    19    2
     6    19    20    1
     7    20    21    2
     8    21    22    1
     9    21    23    1
    10    23    24    1
    11    24    25    2
    12     2     3   am
    13     3     4    1
    14     5     4    1
    15     5     6    1
    16     6     7    1
    17     7     8    1
    18     8    26    1
    19    26    27    1
    20    27    28    1
    21    28    29    1
    22    29    30    1
    23     8     9    1
    24     5    10    1
    25    10    11   ar
    26    11    12   ar
    27    12    13   ar
    28    13    14   ar
    29    14    15   ar
    30    25    16    1
    31    15     3    1
    32    24    18    1
    33     9     5    1
    34    15    10   ar
    35    30    26    1
    36    29    31    1
@<TRIPOS>MOLECULE
*****
 31 36 0 0 0
SMALL
GASTEIGER

@<TRIPOS>ATOM
      1 O           0.5712    2.1346   19.2903 O.2     1  UNL1       -0.2679
      2 C           0.7891    1.5253   20.6434 C.2     1  UNL1        0.2704
      3 N           0.1140    2.1119   21.8477 N.am    1  UNL1       -0.2539
      4 C           0.2362    1.6134   23.2572 C.3     1  UNL1        0.1039
      5 C          -0.6041    2.4933   24.1344 C.3     1  UNL1        0.0548
      6 C          -1.4444    3.3733   25.0118 C.3     1  UNL1        0.0244
      7 C          -1.3223    2.8748   26.4212 C.3     1  UNL1        0.0725
      8 N          -0.4065    1.6868   26.4151 N.3     1  UNL1       -0.2723
      9 C           0.0373    1.4511   25.0018 C.3     1  UNL1        0.0778
     10 C          -1.2456    3.5356   23.2672 C.ar    1  UNL1       -0.0061
     11 C          -2.1765    4.6689   23.5818 C.ar    1  UNL1       -0.0030
     12 C          -2.6635    5.5664   22.4831 C.ar    1  UNL1       -0.0002
     13 C          -2.2197    5.3307   21.0698 C.ar    1  UNL1        0.0013
     14 C          -1.2888    4.1974   20.7552 C.ar    1  UNL1        0.0146
     15 C          -0.8017    3.2999   21.8539 C.ar    1  UNL1        0.0502
     16 C           1.6823    0.3293   20.7924 C.2     1  UNL1        0.1346
     17 C           1.9700   -0.6935   19.7337 C.2     1  UNL1        0.0249
     18 C           2.9100   -1.7087   20.3132 C.2     1  UNL1        0.0157
     19 C           3.5369   -2.9421   19.7338 C.2     1  UNL1        0.0032
     20 C           4.4569   -3.7801   20.5712 C.2     1  UNL1        0.0256
     21 C           4.7500   -3.3846   21.9881 C.2     1  UNL1        0.1236
     22 F           5.6700   -4.2226   22.8257 F       1  UNL1       -0.2085
     23 C           4.1231   -2.1513   22.5676 C.3     1  UNL1        0.1022
     24 C           3.2031   -1.3132   21.7301 C.2     1  UNL1        0.0659
     25 N           2.4443   -0.0537   22.0263 N.2     1  UNL1       -0.2447
     26 C          -0.0050    0.8768   27.6120 C.3     1  UNL1        0.0746
     27 C           1.3864    0.7346   28.1538 C.3     1  UNL1        0.0344
     28 C           1.3270   -0.1634   29.3540 C.3     1  UNL1        0.0700
     29 N          -0.1013   -0.5760   29.5538 N.3     1  UNL1       -0.2963
     30 C          -0.9245    0.0668   28.4772 C.3     1  UNL1        0.0847
     31 H          -0.4263   -0.2661   30.4696 H       1  UNL1        0.1233
@<TRIPOS>BOND
     1     1     2    2
     2     2    16    1
     3    16    17    2
     4    17    18    1
     5    18    19    2
     6    19    20    1
     7    20    21    2
     8    21    22    1
     9    21    23    1
    10    23    24    1
    11    24    25    2
    12     2     3   am
    13     3     4    1
    14     5     4    1
    15     5     6    1
    16     6     7    1
    17     7     8    1
    18     8    26    1
    19    26    27    1
    20    27    28    1
    21    28    29    1
    22    29    30    1
    23     8     9    1
    24     5    10    1
    25    10    11   ar
    26    11    12   ar
    27    12    13   ar
    28    13    14   ar
    29    14    15   ar
    30    25    16    1
    31    15     3    1
    32    24    18    1
    33     9     5    1
    34    15    10   ar
    35    30    26    1
    36    29    31    1
@<TRIPOS>MOLECULE
*****
 31 36 0 0 0
SMALL
GASTEIGER

@<TRIPOS>ATOM
      1 O           6.9584   -5.0240   22.8608 O.2     1  UNL1       -0.2679
      2 C           6.4416   -4.1452   23.9610 C.2     1  UNL1        0.2704
      3 N           5.3917   -3.1148   23.6673 N.am    1  UNL1       -0.2539
      4 C           4.7822   -2.1695   24.6597 C.3     1  UNL1        0.1039
      5 C           3.7808   -1.3194   23.9354 C.3     1  UNL1        0.0548
      6 C           2.7794   -0.4693   23.2111 C.3     1  UNL1        0.0244
      7 C           2.1699    0.4761   24.2034 C.3     1  UNL1        0.0725
      8 N           2.7945    0.2103   25.5410 N.3     1  UNL1       -0.2723
      9 C           3.7901   -0.8994   25.3754 C.3     1  UNL1        0.0778
     10 C           3.7715   -1.7394   22.4954 C.ar    1  UNL1       -0.0061
     11 C           2.9850   -1.2547   21.3136 C.ar    1  UNL1       -0.0030
     12 C           3.1942   -1.8797   19.9662 C.ar    1  UNL1       -0.0002
     13 C           4.1898   -2.9894   19.8005 C.ar    1  UNL1        0.0013
     14 C           4.9762   -3.4740   20.9823 C.ar    1  UNL1        0.0146
     15 C           4.7671   -2.8490   22.3297 C.ar    1  UNL1        0.0502
     16 C           6.9746   -4.2966   25.3549 C.2     1  UNL1        0.1346
     17 C           7.9112   -3.3521   26.0482 C.2     1  UNL1        0.0249
     18 C           8.1801   -3.8909   27.4220 C.2     1  UNL1        0.0157
     19 C           9.0269   -3.3833   28.5513 C.2     1  UNL1        0.0032
     20 C           9.1033   -4.1533   29.8363 C.2     1  UNL1        0.0256
     21 C           8.3329   -5.4308   29.9920 C.2     1  UNL1        0.1236
     22 F           8.4093   -6.2008   31.2771 F       1  UNL1       -0.2085
     23 C           7.4861   -5.9384   28.8628 C.3     1  UNL1        0.1022
     24 C           7.4097   -5.1685   27.5777 C.2     1  UNL1        0.0659
     25 N           6.6647   -5.4192   26.3002 N.2     1  UNL1       -0.2447
     26 C           2.4790    0.9280   26.8197 C.3     1  UNL1        0.0746
     27 C           1.1496    0.9491   27.5141 C.3     1  UNL1        0.0344
     28 C           1.2864    1.7848   28.7522 C.3     1  UNL1        0.0700
     29 N           2.7005    2.2803   28.8230 N.3     1  UNL1       -0.2963
     30 C           3.4375    1.7508   27.6287 C.3     1  UNL1        0.0847
     31 H           3.1423    1.9450   29.6790 H       1  UNL1        0.1233
@<TRIPOS>BOND
     1     1     2    2
     2     2    16    1
     3    16    17    2
     4    17    18    1
     5    18    19    2
     6    19    20    1
     7    20    21    2
     8    21    22    1
     9    21    23    1
    10    23    24    1
    11    24    25    2
    12     2     3   am
    13     3     4    1
    14     5     4    1
    15     5     6    1
    16     6     7    1
    17     7     8    1
    18     8    26    1
    19    26    27    1
    20    27    28    1
    21    28    29    1
    22    29    30    1
    23     8     9    1
    24     5    10    1
    25    10    11   ar
    26    11    12   ar
    27    12    13   ar
    28    13    14   ar
    29    14    15   ar
    30    25    16    1
    31    15     3    1
    32    24    18    1
    33     9     5    1
    34    15    10   ar
    35    30    26    1
    36    29    31    1
@<TRIPOS>MOLECULE
*****
 31 36 0 0 0
SMALL
GASTEIGER

@<TRIPOS>ATOM
      1 O          -2.5474    4.0456   20.8517 O.2     1  UNL1       -0.2679
      2 C          -1.5301    3.2498   21.6144 C.2     1  UNL1        0.2704
      3 N          -1.6103    3.1668   23.1099 N.am    1  UNL1       -0.2539
      4 C          -0.6695    2.4134   24.0028 C.3     1  UNL1        0.1039
      5 C          -1.1232    2.6036   25.4199 C.3     1  UNL1        0.0548
      6 C          -1.5768    2.7937   26.8370 C.3     1  UNL1        0.0244
      7 C          -0.6361    2.0403   27.7299 C.3     1  UNL1        0.0725
      8 N           0.3990    1.3845   26.8648 N.3     1  UNL1       -0.2723
      9 C           0.0980    1.7326   25.4371 C.3     1  UNL1        0.0778
     10 C          -2.3443    3.4745   25.4027 C.ar    1  UNL1       -0.0061
     11 C          -3.2210    3.9956   26.5026 C.ar    1  UNL1       -0.0030
     12 C          -4.3988    4.8647   26.1749 C.ar    1  UNL1       -0.0002
     13 C          -4.6998    5.2128   24.7472 C.ar    1  UNL1        0.0013
     14 C          -3.8231    4.6918   23.6473 C.ar    1  UNL1        0.0146
     15 C          -2.6454    3.8226   23.9751 C.ar    1  UNL1        0.0502
     16 C          -0.4323    2.5371   20.8814 C.2     1  UNL1        0.1346
     17 C           0.6077    3.1781   20.0111 C.2     1  UNL1        0.0249
     18 C           1.5008    2.0954   19.4820 C.2     1  UNL1        0.0157
     19 C           2.6954    2.1332   18.5756 C.2     1  UNL1        0.0032
     20 C           3.4020    0.8609   18.2125 C.2     1  UNL1        0.0256
     21 C           2.9139   -0.4493   18.7557 C.2     1  UNL1        0.1236
     22 F           3.6204   -1.7217   18.3926 F       1  UNL1       -0.2085
     23 C           1.7193   -0.4872   19.6621 C.3     1  UNL1        0.1022
     24 C           1.0127    0.7852   20.0252 C.2     1  UNL1        0.0659
     25 N          -0.1820    1.0581   20.8901 N.2     1  UNL1       -0.2447
     26 C           1.5356    0.5306   27.3432 C.3     1  UNL1        0.0746
     27 C           2.8231    0.2868   26.6133 C.3     1  UNL1        0.0344
     28 C           3.6676   -0.6240   27.4544 C.3     1  UNL1        0.0700
     29 N           2.9018   -0.9431   28.7042 N.3     1  UNL1       -0.2963
     30 C           1.5842   -0.2295   28.6354 C.3     1  UNL1        0.0847
     31 H           3.4246   -0.6266   29.5208 H       1  UNL1        0.1233
@<TRIPOS>BOND
     1     1     2    2
     2     2    16    1
     3    16    17    2
     4    17    18    1
     5    18    19    2
     6    19    20    1
     7    20    21    2
     8    21    22    1
     9    21    23    1
    10    23    24    1
    11    24    25    2
    12     2     3   am
    13     3     4    1
    14     5     4    1
    15     5     6    1
    16     6     7    1
    17     7     8    1
    18     8    26    1
    19    26    27    1
    20    27    28    1
    21    28    29    1
    22    29    30    1
    23     8     9    1
    24     5    10    1
    25    10    11   ar
    26    11    12   ar
    27    12    13   ar
    28    13    14   ar
    29    14    15   ar
    30    25    16    1
    31    15     3    1
    32    24    18    1
    33     9     5    1
    34    15    10   ar
    35    30    26    1
    36    29    31    1
@<TRIPOS>MOLECULE
*****
 31 36 0 0 0
SMALL
GASTEIGER

@<TRIPOS>ATOM
      1 O           0.4968    4.7258   34.0019 O.2     1  UNL1       -0.2679
      2 C           1.2688    3.5949   33.3896 C.2     1  UNL1        0.2704
      3 N           2.2234    2.7977   34.2282 N.am    1  UNL1       -0.2539
      4 C           3.0599    1.6451   33.7573 C.3     1  UNL1        0.1039
      5 C           3.8625    1.1482   34.9230 C.3     1  UNL1        0.0548
      6 C           4.6653    0.6514   36.0888 C.3     1  UNL1        0.0244
      7 C           5.5017   -0.5013   35.6179 C.3     1  UNL1        0.0725
      8 N           5.2160   -0.7169   34.1613 N.3     1  UNL1       -0.2723
      9 C           4.2029    0.3026   33.7318 C.3     1  UNL1        0.0778
     10 C           3.5222    1.9938   36.1143 C.ar    1  UNL1       -0.0061
     11 C           4.0038    1.9673   37.5346 C.ar    1  UNL1       -0.0030
     12 C           3.4725    2.9601   38.5254 C.ar    1  UNL1       -0.0002
     13 C           2.4594    3.9796   38.0960 C.ar    1  UNL1        0.0013
     14 C           1.9777    4.0062   36.6757 C.ar    1  UNL1        0.0146
     15 C           2.5091    3.0133   35.6849 C.ar    1  UNL1        0.0502
     16 C           1.0863    3.2612   31.9385 C.2     1  UNL1        0.1346
     17 C           1.5886    4.0682   30.7782 C.2     1  UNL1        0.0249
     18 C           1.1821    3.3676   29.5157 C.2     1  UNL1        0.0157
     19 C           1.4008    3.6985   28.0692 C.2     1  UNL1        0.0032
     20 C           0.8659    2.7895   27.0026 C.2     1  UNL1        0.0256
     21 C           0.1123    1.5496   27.3827 C.2     1  UNL1        0.1236
     22 F          -0.4226    0.6404   26.3161 F       1  UNL1       -0.2085
     23 C          -0.1064    1.2186   28.8292 C.3     1  UNL1        0.1022
     24 C           0.4285    2.1276   29.8958 C.2     1  UNL1        0.0659
     25 N           0.3693    2.0618   31.3932 N.2     1  UNL1       -0.2447
     26 C           5.8346   -1.7674   33.2874 C.3     1  UNL1        0.0746
     27 C           7.2374   -1.7582   32.7562 C.3     1  UNL1        0.0344
     28 C           7.4290   -2.9967   31.9318 C.3     1  UNL1        0.0700
     29 N           6.1445   -3.7713   31.9536 N.3     1  UNL1       -0.2963
     30 C           5.1593   -3.0115   32.7915 C.3     1  UNL1        0.0847
     31 H           6.3037   -4.6941   32.3579 H       1  UNL1        0.1233
@<TRIPOS>BOND
     1     1     2    2
     2     2    16    1
     3    16    17    2
     4    17    18    1
     5    18    19    2
     6    19    20    1
     7    20    21    2
     8    21    22    1
     9    21    23    1
    10    23    24    1
    11    24    25    2
    12     2     3   am
    13     3     4    1
    14     5     4    1
    15     5     6    1
    16     6     7    1
    17     7     8    1
    18     8    26    1
    19    26    27    1
    20    27    28    1
    21    28    29    1
    22    29    30    1
    23     8     9    1
    24     5    10    1
    25    10    11   ar
    26    11    12   ar
    27    12    13   ar
    28    13    14   ar
    29    14    15   ar
    30    25    16    1
    31    15     3    1
    32    24    18    1
    33     9     5    1
    34    15    10   ar
    35    30    26    1
    36    29    31    1
@<TRIPOS>MOLECULE
*****
 31 36 0 0 0
SMALL
GASTEIGER

@<TRIPOS>ATOM
      1 O          -1.5450    3.4164   24.2316 O.2     1  UNL1       -0.2679
      2 C          -0.9397    2.8664   22.9743 C.2     1  UNL1        0.2704
      3 N           0.2394    1.9424   23.0514 N.am    1  UNL1       -0.2539
      4 C           0.9472    1.3170   21.8860 C.3     1  UNL1        0.1039
      5 C           2.0629    0.4696   22.4218 C.3     1  UNL1        0.0548
      6 C           3.1788   -0.3778   22.9576 C.3     1  UNL1        0.0244
      7 C           3.8865   -1.0031   21.7923 C.3     1  UNL1        0.0725
      8 N           3.2082   -0.5423   20.5363 N.3     1  UNL1       -0.2723
      9 C           2.0812    0.3679   20.9254 C.3     1  UNL1        0.0778
     10 C           2.0448    0.5713   23.9183 C.ar    1  UNL1       -0.0061
     11 C           2.9088   -0.0473   24.9769 C.ar    1  UNL1       -0.0030
     12 C           2.6459    0.2443   26.4245 C.ar    1  UNL1       -0.0002
     13 C           1.5189    1.1545   26.8136 C.ar    1  UNL1        0.0013
     14 C           0.6548    1.7731   25.7550 C.ar    1  UNL1        0.0146
     15 C           0.9178    1.4815   24.3074 C.ar    1  UNL1        0.0502
     16 C          -1.5135    3.2403   21.6397 C.2     1  UNL1        0.1346
     17 C          -0.7452    3.7784   20.4691 C.2     1  UNL1        0.0249
     18 C          -1.7133    4.0125   19.3474 C.2     1  UNL1        0.0157
     19 C          -1.5269    4.5330   17.9530 C.2     1  UNL1        0.0032
     20 C          -2.7071    4.6602   17.0360 C.2     1  UNL1        0.0256
     21 C          -4.0736    4.2668   17.5134 C.2     1  UNL1        0.1236
     22 F          -5.2539    4.3939   16.5964 F       1  UNL1       -0.2085
     23 C          -4.2599    3.7462   18.9078 C.3     1  UNL1        0.1022
     24 C          -3.0797    3.6191   19.8248 C.2     1  UNL1        0.0659
     25 N          -2.9563    3.1419   21.2415 N.2     1  UNL1       -0.2447
     26 C           3.5898   -0.9245   19.1370 C.3     1  UNL1        0.0746
     27 C           3.2543   -0.1590   17.8914 C.3     1  UNL1        0.0344
     28 C           3.8310   -0.9006   16.7220 C.3     1  UNL1        0.0700
     29 N           4.5230   -2.1245   17.2449 N.3     1  UNL1       -0.2963
     30 C           4.3739   -2.1392   18.7374 C.3     1  UNL1        0.0847
     31 H           5.5118   -2.0961   16.9961 H       1  UNL1        0.1233
@<TRIPOS>BOND
     1     1     2    2
     2     2    16    1
     3    16    17    2
     4    17    18    1
     5    18    19    2
     6    19    20    1
     7    20    21    2
     8    21    22    1
     9    21    23    1
    10    23    24    1
    11    24    25    2
    12     2     3   am
    13     3     4    1
    14     5     4    1
    15     5     6    1
    16     6     7    1
    17     7     8    1
    18     8    26    1
    19    26    27    1
    20    27    28    1
    21    28    29    1
    22    29    30    1
    23     8     9    1
    24     5    10    1
    25    10    11   ar
    26    11    12   ar
    27    12    13   ar
    28    13    14   ar
    29    14    15   ar
    30    25    16    1
    31    15     3    1
    32    24    18    1
    33     9     5    1
    34    15    10   ar
    35    30    26    1
    36    29    31    1
@<TRIPOS>MOLECULE
*****
 31 36 0 0 0
SMALL
GASTEIGER

@<TRIPOS>ATOM
      1 O          -1.3317    4.3556   23.3509 O.2     1  UNL1       -0.2679
      2 C          -0.4849    3.1183   23.3075 C.2     1  UNL1        0.2704
      3 N           0.0062    2.5913   21.9918 N.am    1  UNL1       -0.2539
      4 C           0.8565    1.3718   21.7925 C.3     1  UNL1        0.1039
      5 C           1.1091    1.2181   20.3219 C.3     1  UNL1        0.0548
      6 C           1.3617    1.0645   18.8513 C.3     1  UNL1        0.0244
      7 C           2.2120   -0.1551   18.6520 C.3     1  UNL1        0.0725
      8 N           2.4850   -0.7551   19.9993 N.3     1  UNL1       -0.2723
      9 C           1.8033    0.0935   21.0314 C.3     1  UNL1        0.0778
     10 C           0.4148    2.3427   19.6123 C.ar    1  UNL1       -0.0061
     11 C           0.3153    2.7035   18.1598 C.ar    1  UNL1       -0.0030
     12 C          -0.4659    3.9130   17.7394 C.ar    1  UNL1       -0.0002
     13 C          -1.1475    4.7617   18.7714 C.ar    1  UNL1        0.0013
     14 C          -1.0479    4.4009   20.2240 C.ar    1  UNL1        0.0146
     15 C          -0.2668    3.1914   20.6444 C.ar    1  UNL1        0.0502
     16 C          -0.1293    2.4078   24.5799 C.2     1  UNL1        0.1346
     17 C          -1.0791    2.0465   25.6831 C.2     1  UNL1        0.0249
     18 C          -0.2982    1.3494   26.7575 C.2     1  UNL1        0.0157
     19 C          -0.7065    0.7690   28.0790 C.2     1  UNL1        0.0032
     20 C           0.3178    0.1190   28.9612 C.2     1  UNL1        0.0256
     21 C           1.7503    0.0495   28.5219 C.2     1  UNL1        0.1236
     22 F           2.7747   -0.6005   29.4041 F       1  UNL1       -0.2085
     23 C           2.1586    0.6299   27.2004 C.3     1  UNL1        0.1022
     24 C           1.1343    1.2799   26.3181 C.2     1  UNL1        0.0659
     25 N           1.2388    1.9340   24.9724 N.2     1  UNL1       -0.2447
     26 C           3.2969   -1.9874   20.2676 C.3     1  UNL1        0.0746
     27 C           3.4440   -3.1637   19.3485 C.3     1  UNL1        0.0344
     28 C           4.3424   -4.1632   20.0149 C.3     1  UNL1        0.0700
     29 N           4.7506   -3.6045   21.3459 N.3     1  UNL1       -0.2963
     30 C           4.1044   -2.2599   21.5020 C.3     1  UNL1        0.0847
     31 H           5.7652   -3.5075   21.3841 H       1  UNL1        0.1233
@<TRIPOS>BOND
     1     1     2    2
     2     2    16    1
     3    16    17    2
     4    17    18    1
     5    18    19    2
     6    19    20    1
     7    20    21    2
     8    21    22    1
     9    21    23    1
    10    23    24    1
    11    24    25    2
    12     2     3   am
    13     3     4    1
    14     5     4    1
    15     5     6    1
    16     6     7    1
    17     7     8    1
    18     8    26    1
    19    26    27    1
    20    27    28    1
    21    28    29    1
    22    29    30    1
    23     8     9    1
    24     5    10    1
    25    10    11   ar
    26    11    12   ar
    27    12    13   ar
    28    13    14   ar
    29    14    15   ar
    30    25    16    1
    31    15     3    1
    32    24    18    1
    33     9     5    1
    34    15    10   ar
    35    30    26    1
    36    29    31    1
@<TRIPOS>MOLECULE
*****
 31 36 0 0 0
SMALL
GASTEIGER

@<TRIPOS>ATOM
      1 O           5.6187   -2.9676   24.6201 O.2     1  UNL1       -0.2679
      2 C           4.5749   -1.8921   24.5600 C.2     1  UNL1        0.2704
      3 N           3.8826   -1.5904   23.2640 N.am    1  UNL1       -0.2539
      4 C           2.8239   -0.5492   23.0515 C.3     1  UNL1        0.1039
      5 C           2.4145   -0.5923   21.6091 C.3     1  UNL1        0.0548
      6 C           2.0049   -0.6353   20.1666 C.3     1  UNL1        0.0244
      7 C           0.9463    0.4058   19.9541 C.3     1  UNL1        0.0725
      8 N           0.7014    1.0924   21.2651 N.3     1  UNL1       -0.2723
      9 C           1.6088    0.4755   22.2879 C.3     1  UNL1        0.0778
     10 C           3.2200   -1.6601   20.9302 C.ar    1  UNL1       -0.0061
     11 C           3.2446   -2.1504   19.5128 C.ar    1  UNL1       -0.0030
     12 C           4.1765   -3.2575   19.1182 C.ar    1  UNL1       -0.0002
     13 C           5.0839   -3.8744   20.1410 C.ar    1  UNL1        0.0013
     14 C           5.0593   -3.3841   21.5584 C.ar    1  UNL1        0.0146
     15 C           4.1274   -2.2770   21.9530 C.ar    1  UNL1        0.0502
     16 C           4.2234   -1.1182   25.7960 C.2     1  UNL1        0.1346
     17 C           4.4976    0.3374   26.0326 C.2     1  UNL1        0.0249
     18 C           3.9797    0.6911   27.3952 C.2     1  UNL1        0.0157
     19 C           3.9724    1.9798   28.1628 C.2     1  UNL1        0.0032
     20 C           3.3709    2.0315   29.5360 C.2     1  UNL1        0.0256
     21 C           2.7766    0.7945   30.1414 C.2     1  UNL1        0.1236
     22 F           2.1750    0.8461   31.5146 F       1  UNL1       -0.2085
     23 C           2.7839   -0.4942   29.3738 C.3     1  UNL1        0.1022
     24 C           3.3854   -0.5459   28.0007 C.2     1  UNL1        0.0659
     25 N           3.5360   -1.6641   27.0123 N.2     1  UNL1       -0.2447
     26 C          -0.2786    2.2011   21.5103 C.3     1  UNL1        0.0746
     27 C          -0.5424    2.8695   22.8270 C.3     1  UNL1        0.0344
     28 C          -1.5938    3.9176   22.6125 C.3     1  UNL1        0.0700
     29 N          -1.9798    3.8969   21.1631 N.3     1  UNL1       -0.2963
     30 C          -1.1670    2.8361   20.4820 C.3     1  UNL1        0.0847
     31 H          -1.7873    4.8051   20.7406 H       1  UNL1        0.1233
@<TRIPOS>BOND
     1     1     2    2
     2     2    16    1
     3    16    17    2
     4    17    18    1
     5    18    19    2
     6    19    20    1
     7    20    21    2
     8    21    22    1
     9    21    23    1
    10    23    24    1
    11    24    25    2
    12     2     3   am
    13     3     4    1
    14     5     4    1
    15     5     6    1
    16     6     7    1
    17     7     8    1
    18     8    26    1
    19    26    27    1
    20    27    28    1
    21    28    29    1
    22    29    30    1
    23     8     9    1
    24     5    10    1
    25    10    11   ar
    26    11    12   ar
    27    12    13   ar
    28    13    14   ar
    29    14    15   ar
    30    25    16    1
    31    15     3    1
    32    24    18    1
    33     9     5    1
    34    15    10   ar
    35    30    26    1
    36    29    31    1
