@<TRIPOS>MOLECULE
*****
 35 38 0 0 0
SMALL
GASTEIGER

@<TRIPOS>ATOM
      1 N         -10.5603  -18.7059   20.9687 N.3     1  UNL1       -0.2679
      2 C         -10.3332  -18.7821   19.4879 C.3     1  UNL1        0.0897
      3 C          -9.0994  -19.4454   18.9516 C.3     1  UNL1        0.0897
      4 N          -8.0927  -20.0326   19.8961 N.3     1  UNL1       -0.2680
      5 C          -8.3199  -19.9565   21.3768 C.3     1  UNL1        0.0897
      6 C          -9.5537  -19.2931   21.9131 C.3     1  UNL1        0.0897
      7 C         -11.7941  -18.0426   21.5051 C.3     1  UNL1        0.1080
      8 C         -11.6756  -16.8069   22.3471 C.3     1  UNL1        0.1661
      9 O         -12.8905  -15.9747   22.6329 O.3     1  UNL1       -0.3771
     10 H         -13.6633  -16.3724   22.2022 H       1  UNL1        0.2109
     11 C          -8.6942  -16.2455   24.9056 C.ar    1  UNL1        0.1510
     12 C         -10.0275  -16.6490   24.3492 C.ar    1  UNL1        0.0548
     13 C         -10.3423  -16.4034   22.9034 C.ar    1  UNL1        0.0901
     14 N          -9.3238  -15.7542   22.0138 N.ar    1  UNL1       -0.2448
     15 C          -7.9905  -15.3508   22.5702 C.ar    1  UNL1        0.1118
     16 C          -7.6757  -15.5964   24.0160 C.ar    1  UNL1        0.1213
     17 C          -8.3934  -15.3511   27.3262 C.3     1  UNL1        0.2525
     18 O          -8.3793  -16.4911   26.3515 O.3     1  UNL1       -0.4707
     19 C          -6.3423  -15.1929   24.5723 C.1     1  UNL1        0.1051
     20 N          -5.0091  -14.7892   25.1285 N.1     1  UNL1       -0.1907
     21 C          -6.8589  -20.6960   19.3597 C.3     1  UNL1        0.1064
     22 C          -5.6899  -20.9494   20.2648 C.3     1  UNL1        0.1483
     23 O          -5.6477  -22.1909   21.1055 O.3     1  UNL1       -0.3786
     24 H          -4.8305  -22.2000   21.6280 H       1  UNL1        0.2108
     25 C          -4.5631  -19.9613   20.3291 C.ar    1  UNL1        0.0015
     26 C          -3.5146  -19.9487   19.2566 C.ar    1  UNL1       -0.0020
     27 C          -2.3878  -18.9606   19.3210 C.ar    1  UNL1        0.0060
     28 C          -2.3096  -17.9852   20.4578 C.ar    1  UNL1        0.0748
     29 C          -3.3582  -17.9979   21.5304 C.ar    1  UNL1        0.0233
     30 C          -4.4849  -18.9859   21.4661 C.ar    1  UNL1       -0.0238
     31 C          -5.5336  -18.9986   22.5386 C.3     1  UNL1        0.0306
     32 C          -3.0206  -16.9237   22.5214 C.3     1  UNL1        0.2352
     33 O          -1.7633  -16.2472   22.0613 O.3     1  UNL1       -0.4404
     34 C          -1.3239  -16.9032   20.7860 C.2     1  UNL1        0.3413
     35 O          -0.1117  -16.5409   19.9803 O.2     1  UNL1       -0.2449
@<TRIPOS>BOND
     1    17    18    1
     2    18    11    1
     3    11    12   ar
     4    12    13   ar
     5    13     8    1
     6     8     9    1
     7     8     7    1
     8     7     1    1
     9     1     2    1
    10     2     3    1
    11     3     4    1
    12     4    21    1
    13    21    22    1
    14    22    23    1
    15    22    25    1
    16    25    26   ar
    17    26    27   ar
    18    27    28   ar
    19    28    29   ar
    20    29    30   ar
    21    30    31    1
    22    29    32    1
    23    32    33    1
    24    33    34    1
    25    34    35    2
    26     4     5    1
    27     5     6    1
    28    13    14   ar
    29    14    15   ar
    30    15    16   ar
    31    16    19    1
    32    19    20    3
    33    16    11   ar
    34     6     1    1
    35    30    25   ar
    36    34    28    1
    37     9    10    1
    38    23    24    1
@<TRIPOS>MOLECULE
*****
 35 38 0 0 0
SMALL
GASTEIGER

@<TRIPOS>ATOM
      1 N           0.7340    2.6929   19.3130 N.3     1  UNL1       -0.2679
      2 C           2.0420    3.4239   19.3819 C.3     1  UNL1        0.0897
      3 C           3.2864    2.7876   18.8375 C.3     1  UNL1        0.0897
      4 N           3.2228    1.4202   18.2240 N.3     1  UNL1       -0.2680
      5 C           1.9148    0.6892   18.1550 C.3     1  UNL1        0.0897
      6 C           0.6704    1.3255   18.6995 C.3     1  UNL1        0.0897
      7 C          -0.5104    3.3292   19.8574 C.3     1  UNL1        0.1080
      8 C          -0.9552    3.0290   21.2582 C.3     1  UNL1        0.1661
      9 O           0.0160    2.4545   22.2465 O.3     1  UNL1       -0.3771
     10 H           0.8802    2.3397   21.8213 H       1  UNL1        0.2109
     11 C          -4.0721    4.1976   23.4189 C.ar    1  UNL1        0.1510
     12 C          -2.6563    3.9232   23.0064 C.ar    1  UNL1        0.0548
     13 C          -2.3710    3.3033   21.6706 C.ar    1  UNL1        0.0901
     14 N          -3.5015    2.9577   20.7473 N.ar    1  UNL1       -0.2448
     15 C          -4.9174    3.2321   21.1598 C.ar    1  UNL1        0.1118
     16 C          -5.2027    3.8520   22.4956 C.ar    1  UNL1        0.1213
     17 C          -4.3847    3.9633   25.9874 C.3     1  UNL1        0.2525
     18 O          -4.3576    4.8175   24.7547 O.3     1  UNL1       -0.4707
     19 C          -6.6186    4.1263   22.9080 C.1     1  UNL1        0.1051
     20 N          -8.0345    4.4005   23.3203 N.1     1  UNL1       -0.1907
     21 C           4.4672    0.7839   17.6795 C.3     1  UNL1        0.1064
     22 C           4.5247   -0.7018   17.4808 C.3     1  UNL1        0.1483
     23 O           3.7809   -1.3355   16.3427 O.3     1  UNL1       -0.3786
     24 H           3.9228   -2.2950   16.3581 H       1  UNL1        0.2108
     25 C           5.3259   -1.5537   18.4202 C.ar    1  UNL1        0.0015
     26 C           6.7947   -1.7495   18.1875 C.ar    1  UNL1       -0.0020
     27 C           7.5959   -2.6014   19.1268 C.ar    1  UNL1        0.0060
     28 C           6.9282   -3.2575   20.2988 C.ar    1  UNL1        0.0748
     29 C           5.4594   -3.0618   20.5315 C.ar    1  UNL1        0.0233
     30 C           4.6582   -2.2099   19.5922 C.ar    1  UNL1       -0.0238
     31 C           3.1893   -2.0141   19.8249 C.3     1  UNL1        0.0306
     32 C           5.0788   -3.8294   21.7628 C.3     1  UNL1        0.2352
     33 O           6.3124   -4.4995   22.2910 O.3     1  UNL1       -0.4404
     34 C           7.4554   -4.1461   21.3862 C.2     1  UNL1        0.3413
     35 O           8.8762   -4.6013   21.5416 O.2     1  UNL1       -0.2449
@<TRIPOS>BOND
     1    17    18    1
     2    18    11    1
     3    11    12   ar
     4    12    13   ar
     5    13     8    1
     6     8     9    1
     7     8     7    1
     8     7     1    1
     9     1     2    1
    10     2     3    1
    11     3     4    1
    12     4    21    1
    13    21    22    1
    14    22    23    1
    15    22    25    1
    16    25    26   ar
    17    26    27   ar
    18    27    28   ar
    19    28    29   ar
    20    29    30   ar
    21    30    31    1
    22    29    32    1
    23    32    33    1
    24    33    34    1
    25    34    35    2
    26     4     5    1
    27     5     6    1
    28    13    14   ar
    29    14    15   ar
    30    15    16   ar
    31    16    19    1
    32    19    20    3
    33    16    11   ar
    34     6     1    1
    35    30    25   ar
    36    34    28    1
    37     9    10    1
    38    23    24    1
@<TRIPOS>MOLECULE
*****
 35 38 0 0 0
SMALL
GASTEIGER

@<TRIPOS>ATOM
      1 N           0.6936    2.0806   20.1813 N.3     1  UNL1       -0.2679
      2 C           2.0719    2.5648   20.5213 C.3     1  UNL1        0.0897
      3 C           3.2481    2.1109   19.7086 C.3     1  UNL1        0.0897
      4 N           3.0459    1.1726   18.5559 N.3     1  UNL1       -0.2680
      5 C           1.6675    0.6883   18.2158 C.3     1  UNL1        0.0897
      6 C           0.4914    1.1423   19.0285 C.3     1  UNL1        0.0897
      7 C          -0.4826    2.5346   20.9939 C.3     1  UNL1        0.1080
      8 C          -1.4679    3.5038   20.4109 C.3     1  UNL1        0.1661
      9 O          -1.1013    4.3083   19.1992 O.3     1  UNL1       -0.3771
     10 H          -0.1996    4.0825   18.9219 H       1  UNL1        0.2109
     11 C          -5.3867    3.9927   20.8033 C.ar    1  UNL1        0.1510
     12 C          -4.0348    3.8280   20.1746 C.ar    1  UNL1        0.0548
     13 C          -2.8198    3.6684   21.0397 C.ar    1  UNL1        0.0901
     14 N          -2.9567    3.6734   22.5334 N.ar    1  UNL1       -0.2448
     15 C          -4.3085    3.8381   23.1621 C.ar    1  UNL1        0.1118
     16 C          -5.5236    3.9977   22.2970 C.ar    1  UNL1        0.1213
     17 C          -6.7533    3.3230   18.6977 C.3     1  UNL1        0.2525
     18 O          -6.6018    4.1523   19.9383 O.3     1  UNL1       -0.4707
     19 C          -6.8755    4.1624   22.9258 C.1     1  UNL1        0.1051
     20 N          -8.2273    4.3269   23.5546 N.1     1  UNL1       -0.1907
     21 C           4.2221    0.7186   17.7432 C.3     1  UNL1        0.1064
     22 C           4.4231   -0.7417   17.4656 C.3     1  UNL1        0.1483
     23 O           3.7703   -1.3753   16.2729 O.3     1  UNL1       -0.3786
     24 H           4.0009   -2.3169   16.2403 H       1  UNL1        0.2108
     25 C           5.2769   -1.5686   18.3808 C.ar    1  UNL1        0.0015
     26 C           6.7465   -1.7066   18.1142 C.ar    1  UNL1       -0.0020
     27 C           7.6003   -2.5334   19.0293 C.ar    1  UNL1        0.0060
     28 C           6.9845   -3.2222   20.2110 C.ar    1  UNL1        0.0748
     29 C           5.5148   -3.0842   20.4775 C.ar    1  UNL1        0.0233
     30 C           4.6610   -2.2574   19.5625 C.ar    1  UNL1       -0.0238
     31 C           3.1913   -2.1193   19.8290 C.3     1  UNL1        0.0306
     32 C           5.1913   -3.8737   21.7112 C.3     1  UNL1        0.2352
     33 O           6.4610   -4.4997   22.2071 O.3     1  UNL1       -0.4404
     34 C           7.5693   -4.0970   21.2799 C.2     1  UNL1        0.3413
     35 O           9.0095   -4.4987   21.4005 O.2     1  UNL1       -0.2449
@<TRIPOS>BOND
     1    17    18    1
     2    18    11    1
     3    11    12   ar
     4    12    13   ar
     5    13     8    1
     6     8     9    1
     7     8     7    1
     8     7     1    1
     9     1     2    1
    10     2     3    1
    11     3     4    1
    12     4    21    1
    13    21    22    1
    14    22    23    1
    15    22    25    1
    16    25    26   ar
    17    26    27   ar
    18    27    28   ar
    19    28    29   ar
    20    29    30   ar
    21    30    31    1
    22    29    32    1
    23    32    33    1
    24    33    34    1
    25    34    35    2
    26     4     5    1
    27     5     6    1
    28    13    14   ar
    29    14    15   ar
    30    15    16   ar
    31    16    19    1
    32    19    20    3
    33    16    11   ar
    34     6     1    1
    35    30    25   ar
    36    34    28    1
    37     9    10    1
    38    23    24    1
@<TRIPOS>MOLECULE
*****
 35 38 0 0 0
SMALL
GASTEIGER

@<TRIPOS>ATOM
      1 N           5.4624   -1.9974   24.0393 N.3     1  UNL1       -0.2679
      2 C           6.0726   -0.8141   23.3483 C.3     1  UNL1        0.0897
      3 C           6.2481   -0.8238   21.8586 C.3     1  UNL1        0.0897
      4 N           5.8134   -2.0169   21.0600 N.3     1  UNL1       -0.2680
      5 C           5.2032   -3.2002   21.7510 C.3     1  UNL1        0.0897
      6 C           5.0277   -3.1904   23.2406 C.3     1  UNL1        0.0897
      7 C           5.2869   -1.9878   25.5289 C.3     1  UNL1        0.1080
      8 C           4.0947   -1.3124   26.1394 C.3     1  UNL1        0.1661
      9 O           2.9742   -0.8339   25.2644 O.3     1  UNL1       -0.3771
     10 H           3.1775   -1.0378   24.3382 H       1  UNL1        0.2109
     11 C           2.6730   -0.4571   29.7445 C.ar    1  UNL1        0.1510
     12 C           2.7446   -0.6540   28.2592 C.ar    1  UNL1        0.0548
     13 C           4.0231   -1.1155   27.6246 C.ar    1  UNL1        0.0901
     14 N           5.2299   -1.3800   28.4753 N.ar    1  UNL1       -0.2448
     15 C           5.1582   -1.1831   29.9606 C.ar    1  UNL1        0.1118
     16 C           3.8797   -0.7216   30.5952 C.ar    1  UNL1        0.1213
     17 C           1.0044    1.4513   30.3138 C.3     1  UNL1        0.2525
     18 O           1.3945    0.0044   30.3791 O.3     1  UNL1       -0.4707
     19 C           3.8082   -0.5247   32.0805 C.1     1  UNL1        0.1051
     20 N           3.7365   -0.3278   33.5658 N.1     1  UNL1       -0.1907
     21 C           5.9889   -2.0266   19.5703 C.3     1  UNL1        0.1064
     22 C           4.7894   -1.9463   18.6733 C.3     1  UNL1        0.1483
     23 O           4.7340   -2.7681   17.4197 O.3     1  UNL1       -0.3786
     24 H           3.8970   -2.5994   16.9592 H       1  UNL1        0.2108
     25 C           3.6452   -1.0441   19.0299 C.ar    1  UNL1        0.0015
     26 C           2.5122   -1.5638   19.8642 C.ar    1  UNL1       -0.0020
     27 C           1.3681   -0.6617   20.2207 C.ar    1  UNL1        0.0060
     28 C           1.3570    0.7601   19.7430 C.ar    1  UNL1        0.0748
     29 C           2.4900    1.2799   18.9086 C.ar    1  UNL1        0.0233
     30 C           3.6341    0.3778   18.5521 C.ar    1  UNL1       -0.0238
     31 C           4.7672    0.8974   17.7177 C.3     1  UNL1        0.0306
     32 C           2.2058    2.7165   18.5842 C.3     1  UNL1        0.2352
     33 O           0.8972    3.0847   19.2181 O.3     1  UNL1       -0.4404
     34 C           0.3725    1.8756   19.9342 C.2     1  UNL1        0.3413
     35 O          -0.9112    1.7960   20.7061 O.2     1  UNL1       -0.2449
@<TRIPOS>BOND
     1    17    18    1
     2    18    11    1
     3    11    12   ar
     4    12    13   ar
     5    13     8    1
     6     8     9    1
     7     8     7    1
     8     7     1    1
     9     1     2    1
    10     2     3    1
    11     3     4    1
    12     4    21    1
    13    21    22    1
    14    22    23    1
    15    22    25    1
    16    25    26   ar
    17    26    27   ar
    18    27    28   ar
    19    28    29   ar
    20    29    30   ar
    21    30    31    1
    22    29    32    1
    23    32    33    1
    24    33    34    1
    25    34    35    2
    26     4     5    1
    27     5     6    1
    28    13    14   ar
    29    14    15   ar
    30    15    16   ar
    31    16    19    1
    32    19    20    3
    33    16    11   ar
    34     6     1    1
    35    30    25   ar
    36    34    28    1
    37     9    10    1
    38    23    24    1
@<TRIPOS>MOLECULE
*****
 35 38 0 0 0
SMALL
GASTEIGER

@<TRIPOS>ATOM
      1 N           7.3471   -4.9217   28.7045 N.3     1  UNL1       -0.2679
      2 C           8.4838   -3.9968   28.3846 C.3     1  UNL1        0.0897
      3 C           8.8203   -3.6882   26.9558 C.3     1  UNL1        0.0897
      4 N           8.0200   -4.3047   25.8468 N.3     1  UNL1       -0.2680
      5 C           6.8833   -5.2297   26.1668 C.3     1  UNL1        0.0897
      6 C           6.5469   -5.5382   27.5956 C.3     1  UNL1        0.0897
      7 C           7.0106   -5.2303   30.1333 C.3     1  UNL1        0.1080
      8 C           7.2109   -4.1878   31.1931 C.3     1  UNL1        0.1661
      9 O           8.4313   -4.2288   32.0642 O.3     1  UNL1       -0.3771
     10 H           8.9829   -4.9859   31.8125 H       1  UNL1        0.2109
     11 C           4.5265   -1.8225   32.9104 C.ar    1  UNL1        0.1510
     12 C           5.5466   -2.9059   32.7217 C.ar    1  UNL1        0.0548
     13 C           6.1908   -3.1043   31.3817 C.ar    1  UNL1        0.0901
     14 N           5.8149   -2.2194   30.2303 N.ar    1  UNL1       -0.2448
     15 C           4.7948   -1.1360   30.4190 C.ar    1  UNL1        0.1118
     16 C           4.1506   -0.9375   31.7590 C.ar    1  UNL1        0.1213
     17 C           4.5669   -0.7946   35.2961 C.3     1  UNL1        0.2525
     18 O           3.8823   -1.6239   34.2504 O.3     1  UNL1       -0.4707
     19 C           3.1305    0.1460   31.9476 C.1     1  UNL1        0.1051
     20 N           2.1105    1.2295   32.1361 N.1     1  UNL1       -0.1907
     21 C           8.3565   -3.9962   24.4180 C.3     1  UNL1        0.1064
     22 C           7.6471   -4.7143   23.3085 C.3     1  UNL1        0.1483
     23 O           7.9777   -6.1467   23.0104 O.3     1  UNL1       -0.3786
     24 H           7.4332   -6.4569   22.2700 H       1  UNL1        0.2108
     25 C           6.6071   -4.0000   22.4972 C.ar    1  UNL1        0.0015
     26 C           5.2698   -3.6872   23.1002 C.ar    1  UNL1       -0.0020
     27 C           4.2298   -2.9729   22.2889 C.ar    1  UNL1        0.0060
     28 C           4.5272   -2.5715   20.8745 C.ar    1  UNL1        0.0748
     29 C           5.8645   -2.8844   20.2714 C.ar    1  UNL1        0.0233
     30 C           6.9045   -3.5986   21.0827 C.ar    1  UNL1       -0.0238
     31 C           8.2419   -3.9115   20.4797 C.3     1  UNL1        0.0306
     32 C           5.8700   -2.3685   18.8630 C.3     1  UNL1        0.2352
     33 O           4.5361   -1.7368   18.5956 O.3     1  UNL1       -0.4404
     34 C           3.7061   -1.8622   19.8387 C.2     1  UNL1        0.3413
     35 O           2.3018   -1.3656   20.0151 O.2     1  UNL1       -0.2449
@<TRIPOS>BOND
     1    17    18    1
     2    18    11    1
     3    11    12   ar
     4    12    13   ar
     5    13     8    1
     6     8     9    1
     7     8     7    1
     8     7     1    1
     9     1     2    1
    10     2     3    1
    11     3     4    1
    12     4    21    1
    13    21    22    1
    14    22    23    1
    15    22    25    1
    16    25    26   ar
    17    26    27   ar
    18    27    28   ar
    19    28    29   ar
    20    29    30   ar
    21    30    31    1
    22    29    32    1
    23    32    33    1
    24    33    34    1
    25    34    35    2
    26     4     5    1
    27     5     6    1
    28    13    14   ar
    29    14    15   ar
    30    15    16   ar
    31    16    19    1
    32    19    20    3
    33    16    11   ar
    34     6     1    1
    35    30    25   ar
    36    34    28    1
    37     9    10    1
    38    23    24    1
@<TRIPOS>MOLECULE
*****
 35 38 0 0 0
SMALL
GASTEIGER

@<TRIPOS>ATOM
      1 N           5.3512   -0.9661   24.0667 N.3     1  UNL1       -0.2679
      2 C           4.9692   -2.3440   23.6132 C.3     1  UNL1        0.0897
      3 C           5.1511   -2.7384   22.1775 C.3     1  UNL1        0.0897
      4 N           5.7151   -1.7549   21.1953 N.3     1  UNL1       -0.2680
      5 C           6.0971   -0.3770   21.6487 C.3     1  UNL1        0.0897
      6 C           5.9151    0.0173   23.0844 C.3     1  UNL1        0.0897
      7 C           5.1692   -0.5717   25.5024 C.3     1  UNL1        0.1080
      8 C           3.8792   -0.8740   26.2057 C.3     1  UNL1        0.1661
      9 O           3.7904   -2.0448   27.1391 O.3     1  UNL1       -0.3771
     10 H           4.6481   -2.4964   27.1738 H       1  UNL1        0.2109
     11 C           0.7753    1.4966   26.9099 C.ar    1  UNL1        0.1510
     12 C           1.9765    0.6281   27.1400 C.ar    1  UNL1        0.0548
     13 C           2.6781   -0.0055   25.9754 C.ar    1  UNL1        0.0901
     14 N           2.1785    0.2293   24.5807 N.ar    1  UNL1       -0.2448
     15 C           0.9774    1.0978   24.3505 C.ar    1  UNL1        0.1118
     16 C           0.2758    1.7314   25.5151 C.ar    1  UNL1        0.1213
     17 C           0.0889    1.4582   29.4153 C.3     1  UNL1        0.2525
     18 O           0.0737    2.1303   28.0744 O.3     1  UNL1       -0.4707
     19 C          -0.9254    2.6000   25.2849 C.1     1  UNL1        0.1051
     20 N          -2.1265    3.4684   25.0545 N.1     1  UNL1       -0.1907
     21 C           5.8971   -2.1493   19.7596 C.3     1  UNL1        0.1064
     22 C           4.7683   -1.9798   18.7864 C.3     1  UNL1        0.1483
     23 O           4.7834   -2.7228   17.4834 O.3     1  UNL1       -0.3786
     24 H           3.9866   -2.5021   16.9761 H       1  UNL1        0.2108
     25 C           3.6243   -1.0673   19.1162 C.ar    1  UNL1        0.0015
     26 C           2.4750   -1.5719   19.9373 C.ar    1  UNL1       -0.0020
     27 C           1.3311   -0.6594   20.2671 C.ar    1  UNL1        0.0060
     28 C           1.3365    0.7578   19.7757 C.ar    1  UNL1        0.0748
     29 C           2.4858    1.2625   18.9545 C.ar    1  UNL1        0.0233
     30 C           3.6297    0.3500   18.6247 C.ar    1  UNL1       -0.0238
     31 C           4.7791    0.8546   17.8035 C.3     1  UNL1        0.0306
     32 C           2.2158    2.6976   18.6119 C.3     1  UNL1        0.2352
     33 O           0.8996    3.0799   19.2214 O.3     1  UNL1       -0.4404
     34 C           0.3562    1.8810   19.9407 C.2     1  UNL1        0.3413
     35 O          -0.9400    1.8167   20.6929 O.2     1  UNL1       -0.2449
@<TRIPOS>BOND
     1    17    18    1
     2    18    11    1
     3    11    12   ar
     4    12    13   ar
     5    13     8    1
     6     8     9    1
     7     8     7    1
     8     7     1    1
     9     1     2    1
    10     2     3    1
    11     3     4    1
    12     4    21    1
    13    21    22    1
    14    22    23    1
    15    22    25    1
    16    25    26   ar
    17    26    27   ar
    18    27    28   ar
    19    28    29   ar
    20    29    30   ar
    21    30    31    1
    22    29    32    1
    23    32    33    1
    24    33    34    1
    25    34    35    2
    26     4     5    1
    27     5     6    1
    28    13    14   ar
    29    14    15   ar
    30    15    16   ar
    31    16    19    1
    32    19    20    3
    33    16    11   ar
    34     6     1    1
    35    30    25   ar
    36    34    28    1
    37     9    10    1
    38    23    24    1
@<TRIPOS>MOLECULE
*****
 35 38 0 0 0
SMALL
GASTEIGER

@<TRIPOS>ATOM
      1 N           6.4385   -3.3110   22.4144 N.3     1  UNL1       -0.2679
      2 C           5.0971   -3.8841   22.0650 C.3     1  UNL1        0.0897
      3 C           4.5616   -3.7438   20.6709 C.3     1  UNL1        0.0897
      4 N           5.3677   -3.0302   19.6262 N.3     1  UNL1       -0.2680
      5 C           6.7091   -2.4571   19.9757 C.3     1  UNL1        0.0897
      6 C           7.2445   -2.5975   21.3698 C.3     1  UNL1        0.0897
      7 C           6.9739   -3.4514   23.8085 C.3     1  UNL1        0.1080
      8 C           7.2820   -4.8118   24.3603 C.3     1  UNL1        0.1661
      9 O           7.6643   -5.9279   23.4339 O.3     1  UNL1       -0.3771
     10 H           7.6644   -5.6035   22.5197 H       1  UNL1        0.2109
     11 C           6.6940   -4.2006   28.2372 C.ar    1  UNL1        0.1510
     12 C           6.7683   -3.9564   26.7591 C.ar    1  UNL1        0.0548
     13 C           7.2078   -5.0561   25.8384 C.ar    1  UNL1        0.0901
     14 N           7.5730   -6.3999   26.3958 N.ar    1  UNL1       -0.2448
     15 C           7.4987   -6.6441   27.8739 C.ar    1  UNL1        0.1118
     16 C           7.0592   -5.5444   28.7946 C.ar    1  UNL1        0.1213
     17 C           5.7142   -1.8209   28.5930 C.3     1  UNL1        0.2525
     18 O           6.2545   -3.1010   29.1580 O.3     1  UNL1       -0.4707
     19 C           6.9850   -5.7888   30.2728 C.1     1  UNL1        0.1051
     20 N           6.9108   -6.0331   31.7509 N.1     1  UNL1       -0.1907
     21 C           4.8322   -2.8899   18.2321 C.3     1  UNL1        0.1064
     22 C           4.0481   -1.6698   17.8492 C.3     1  UNL1        0.1483
     23 O           3.9110   -1.2891   16.4048 O.3     1  UNL1       -0.3786
     24 H           3.3777   -0.4822   16.3323 H       1  UNL1        0.2108
     25 C           3.4010   -0.8304   18.9107 C.ar    1  UNL1        0.0015
     26 C           2.1278   -1.2894   19.5573 C.ar    1  UNL1       -0.0020
     27 C           1.4807   -0.4501   20.6188 C.ar    1  UNL1        0.0060
     28 C           2.1068    0.8483   21.0336 C.ar    1  UNL1        0.0748
     29 C           3.3801    1.3074   20.3870 C.ar    1  UNL1        0.0233
     30 C           4.0272    0.4680   19.3255 C.ar    1  UNL1       -0.0238
     31 C           5.3005    0.9270   18.6788 C.3     1  UNL1        0.0306
     32 C           3.7621    2.6230   20.9978 C.3     1  UNL1        0.2352
     33 O           2.7249    2.9771   22.0219 O.3     1  UNL1       -0.4404
     34 C           1.7019    1.8803   22.0441 C.2     1  UNL1        0.3413
     35 O           0.4873    1.8252   22.9225 O.2     1  UNL1       -0.2449
@<TRIPOS>BOND
     1    17    18    1
     2    18    11    1
     3    11    12   ar
     4    12    13   ar
     5    13     8    1
     6     8     9    1
     7     8     7    1
     8     7     1    1
     9     1     2    1
    10     2     3    1
    11     3     4    1
    12     4    21    1
    13    21    22    1
    14    22    23    1
    15    22    25    1
    16    25    26   ar
    17    26    27   ar
    18    27    28   ar
    19    28    29   ar
    20    29    30   ar
    21    30    31    1
    22    29    32    1
    23    32    33    1
    24    33    34    1
    25    34    35    2
    26     4     5    1
    27     5     6    1
    28    13    14   ar
    29    14    15   ar
    30    15    16   ar
    31    16    19    1
    32    19    20    3
    33    16    11   ar
    34     6     1    1
    35    30    25   ar
    36    34    28    1
    37     9    10    1
    38    23    24    1
@<TRIPOS>MOLECULE
*****
 35 38 0 0 0
SMALL
GASTEIGER

@<TRIPOS>ATOM
      1 N          -6.5571  -15.8625   24.5961 N.3     1  UNL1       -0.2679
      2 C          -7.6004  -16.1879   25.6235 C.3     1  UNL1        0.0897
      3 C          -9.0377  -16.3228   25.2162 C.3     1  UNL1        0.0897
      4 N          -9.4316  -16.1322   23.7814 N.3     1  UNL1       -0.2680
      5 C          -8.3883  -15.8067   22.7540 C.3     1  UNL1        0.0897
      6 C          -6.9510  -15.6719   23.1614 C.3     1  UNL1        0.0897
      7 C          -5.1198  -15.7276   25.0034 C.3     1  UNL1        0.1080
      8 C          -4.1710  -16.8709   24.7964 C.3     1  UNL1        0.1661
      9 O          -3.8105  -17.7638   25.9465 O.3     1  UNL1       -0.3771
     10 H          -4.2738  -17.4657   26.7449 H       1  UNL1        0.2109
     11 C          -2.9508  -18.7654   21.5297 C.ar    1  UNL1        0.1510
     12 C          -3.5389  -18.5150   22.8867 C.ar    1  UNL1        0.0548
     13 C          -3.5829  -17.1212   23.4395 C.ar    1  UNL1        0.0901
     14 N          -3.0387  -15.9779   22.6353 N.ar    1  UNL1       -0.2448
     15 C          -2.4505  -16.2283   21.2784 C.ar    1  UNL1        0.1118
     16 C          -2.4066  -17.6221   20.7256 C.ar    1  UNL1        0.1213
     17 C          -3.9946  -20.6374   20.0614 C.3     1  UNL1        0.2525
     18 O          -2.9068  -20.1591   20.9768 O.3     1  UNL1       -0.4707
     19 C          -1.8184  -17.8724   19.3685 C.1     1  UNL1        0.1051
     20 N          -1.2301  -18.1227   18.0116 N.1     1  UNL1       -0.1907
     21 C         -10.8690  -16.2670   23.3741 C.3     1  UNL1        0.1064
     22 C         -11.4118  -17.6060   22.9711 C.3     1  UNL1        0.1483
     23 O         -12.5288  -18.2292   23.7546 O.3     1  UNL1       -0.3786
     24 H         -12.7586  -19.0868   23.3640 H       1  UNL1        0.2108
     25 C         -10.8376  -18.3219   21.7845 C.ar    1  UNL1        0.0015
     26 C         -11.5624  -18.2986   20.4715 C.ar    1  UNL1       -0.0020
     27 C         -10.9883  -19.0144   19.2850 C.ar    1  UNL1        0.0060
     28 C          -9.6892  -19.7536   19.4115 C.ar    1  UNL1        0.0748
     29 C          -8.9643  -19.7770   20.7245 C.ar    1  UNL1        0.0233
     30 C          -9.5385  -19.0611   21.9110 C.ar    1  UNL1       -0.0238
     31 C          -8.8136  -19.0844   23.2241 C.3     1  UNL1        0.0306
     32 C          -7.7117  -20.5831   20.5482 C.3     1  UNL1        0.2352
     33 O          -7.6625  -21.0580   19.1262 O.3     1  UNL1       -0.4404
     34 C          -8.8846  -20.5454   18.4237 C.2     1  UNL1        0.3413
     35 O          -9.2398  -20.7828   16.9858 O.2     1  UNL1       -0.2449
@<TRIPOS>BOND
     1    17    18    1
     2    18    11    1
     3    11    12   ar
     4    12    13   ar
     5    13     8    1
     6     8     9    1
     7     8     7    1
     8     7     1    1
     9     1     2    1
    10     2     3    1
    11     3     4    1
    12     4    21    1
    13    21    22    1
    14    22    23    1
    15    22    25    1
    16    25    26   ar
    17    26    27   ar
    18    27    28   ar
    19    28    29   ar
    20    29    30   ar
    21    30    31    1
    22    29    32    1
    23    32    33    1
    24    33    34    1
    25    34    35    2
    26     4     5    1
    27     5     6    1
    28    13    14   ar
    29    14    15   ar
    30    15    16   ar
    31    16    19    1
    32    19    20    3
    33    16    11   ar
    34     6     1    1
    35    30    25   ar
    36    34    28    1
    37     9    10    1
    38    23    24    1
@<TRIPOS>MOLECULE
*****
 35 38 0 0 0
SMALL
GASTEIGER

@<TRIPOS>ATOM
      1 N          -7.7358  -19.6368   20.5267 N.3     1  UNL1       -0.2679
      2 C          -7.6601  -19.8548   22.0088 C.3     1  UNL1        0.0897
      3 C          -8.9137  -19.8499   22.8325 C.3     1  UNL1        0.0897
      4 N         -10.2429  -19.6269   22.1740 N.3     1  UNL1       -0.2680
      5 C         -10.3185  -19.4089   20.6919 C.3     1  UNL1        0.0897
      6 C          -9.0649  -19.4138   19.8682 C.3     1  UNL1        0.0897
      7 C          -6.4822  -19.6417   19.7030 C.3     1  UNL1        0.1080
      8 C          -5.2898  -20.4310   20.1563 C.3     1  UNL1        0.1661
      9 O          -5.4501  -21.8669   20.5593 O.3     1  UNL1       -0.3771
     10 H          -6.3804  -22.1262   20.4688 H       1  UNL1        0.2109
     11 C          -2.0281  -18.4676   19.0357 C.ar    1  UNL1        0.1510
     12 C          -3.3806  -19.1143   18.9855 C.ar    1  UNL1        0.0548
     13 C          -3.9374  -19.7842   20.2066 C.ar    1  UNL1        0.0901
     14 N          -3.1417  -19.8074   21.4780 N.ar    1  UNL1       -0.2448
     15 C          -1.7893  -19.1607   21.5282 C.ar    1  UNL1        0.1118
     16 C          -1.2325  -18.4908   20.3071 C.ar    1  UNL1        0.1213
     17 C          -2.3824  -17.0456   16.8904 C.3     1  UNL1        0.2525
     18 O          -1.4712  -17.7976   17.8146 O.3     1  UNL1       -0.4707
     19 C           0.1201  -17.8440   20.3575 C.1     1  UNL1        0.1051
     20 N           1.4726  -17.1974   20.4078 N.1     1  UNL1       -0.1907
     21 C         -11.4965  -19.6220   22.9977 C.3     1  UNL1        0.1064
     22 C         -11.7308  -18.5312   24.0004 C.3     1  UNL1        0.1483
     23 O         -13.1292  -18.1810   24.4147 O.3     1  UNL1       -0.3786
     24 H         -13.1034  -17.4609   25.0640 H       1  UNL1        0.2108
     25 C         -10.5665  -17.7905   24.5887 C.ar    1  UNL1        0.0015
     26 C         -10.0145  -18.1987   25.9223 C.ar    1  UNL1       -0.0020
     27 C          -8.8503  -17.4580   26.5106 C.ar    1  UNL1        0.0060
     28 C          -8.2382  -16.3092   25.7653 C.ar    1  UNL1        0.0748
     29 C          -8.7902  -15.9011   24.4316 C.ar    1  UNL1        0.0233
     30 C          -9.9544  -16.6417   23.8433 C.ar    1  UNL1       -0.0238
     31 C         -10.5065  -16.2335   22.5096 C.3     1  UNL1        0.0306
     32 C          -7.9855  -14.7374   23.9333 C.3     1  UNL1        0.2352
     33 O          -6.9361  -14.4265   24.9590 O.3     1  UNL1       -0.4404
     34 C          -7.0922  -15.3979   26.0912 C.2     1  UNL1        0.3413
     35 O          -6.2503  -15.4489   27.3316 O.2     1  UNL1       -0.2449
@<TRIPOS>BOND
     1    17    18    1
     2    18    11    1
     3    11    12   ar
     4    12    13   ar
     5    13     8    1
     6     8     9    1
     7     8     7    1
     8     7     1    1
     9     1     2    1
    10     2     3    1
    11     3     4    1
    12     4    21    1
    13    21    22    1
    14    22    23    1
    15    22    25    1
    16    25    26   ar
    17    26    27   ar
    18    27    28   ar
    19    28    29   ar
    20    29    30   ar
    21    30    31    1
    22    29    32    1
    23    32    33    1
    24    33    34    1
    25    34    35    2
    26     4     5    1
    27     5     6    1
    28    13    14   ar
    29    14    15   ar
    30    15    16   ar
    31    16    19    1
    32    19    20    3
    33    16    11   ar
    34     6     1    1
    35    30    25   ar
    36    34    28    1
    37     9    10    1
    38    23    24    1
