@<TRIPOS>MOLECULE
*****
 22 23 0 0 0
SMALL
GASTEIGER

@<TRIPOS>ATOM
      1 C         -10.8197  -18.1428   20.4323 C.ar    1  UNL1        0.1754
      2 C          -9.4805  -18.5377   19.8842 C.ar    1  UNL1        0.0403
      3 C          -8.4951  -19.2565   20.7573 C.ar    1  UNL1        0.0063
      4 C          -8.8489  -19.5803   22.1785 C.ar    1  UNL1        0.0403
      5 C         -10.1882  -19.1854   22.7266 C.ar    1  UNL1        0.1754
      6 C         -11.1736  -18.4667   21.8535 C.ar    1  UNL1        0.2061
      7 C         -11.7517  -15.9298   19.4405 C.3     1  UNL1        0.2526
      8 O         -11.8052  -17.4241   19.5591 O.3     1  UNL1       -0.4683
      9 C          -7.1558  -19.6514   20.2092 C.2     1  UNL1        0.0035
     10 C          -5.9043  -19.2843   20.9502 C.2     1  UNL1        0.0435
     11 C          -4.5651  -19.6792   20.4021 C.2     1  UNL1        0.2111
     12 O          -4.3404  -21.0766   19.9052 O.2     1  UNL1       -0.2850
     13 C          -3.4504  -18.6767   20.3510 C.ar    1  UNL1        0.0961
     14 C          -2.4526  -18.5235   19.2415 C.ar    1  UNL1        0.0218
     15 C          -1.5234  -17.4036   19.6051 C.ar    1  UNL1        0.0200
     16 C          -1.9469  -16.8645   20.9393 C.ar    1  UNL1        0.0725
     17 N          -3.1379  -17.6514   21.4002 N.ar    1  UNL1       -0.3495
     18 H          -3.6283  -17.5182   22.2434 H       1  UNL1        0.1661
     19 O         -10.5421  -19.5093   24.1479 O.3     1  UNL1       -0.4683
     20 C          -9.9404  -18.7163   25.2700 C.3     1  UNL1        0.2526
     21 O         -12.5129  -18.0718   22.4016 O.3     1  UNL1       -0.4654
     22 C         -12.7110  -16.7039   22.9845 C.3     1  UNL1        0.2528
@<TRIPOS>BOND
     1     7     8    1
     2     8     1    1
     3     1     2   ar
     4     2     3   ar
     5     3     9    1
     6     9    10    2
     7    10    11    1
     8    11    12    2
     9    11    13    1
    10    13    14   ar
    11    14    15   ar
    12    15    16   ar
    13    16    17   ar
    14     3     4   ar
    15     4     5   ar
    16     5    19    1
    17    19    20    1
    18     5     6   ar
    19     6    21    1
    20    21    22    1
    21     6     1   ar
    22    17    13   ar
    23    17    18    1
@<TRIPOS>MOLECULE
*****
 22 23 0 0 0
SMALL
GASTEIGER

@<TRIPOS>ATOM
      1 C          -8.9455  -16.9188   23.5349 C.ar    1  UNL1        0.1754
      2 C          -7.5112  -17.3035   23.3237 C.ar    1  UNL1        0.0403
      3 C          -7.1576  -18.3550   22.3141 C.ar    1  UNL1        0.0063
      4 C          -8.2383  -19.0219   21.5158 C.ar    1  UNL1        0.0403
      5 C          -9.6726  -18.6372   21.7271 C.ar    1  UNL1        0.1754
      6 C         -10.0262  -17.5856   22.7366 C.ar    1  UNL1        0.2061
      7 C          -8.3126  -15.4873   25.6087 C.3     1  UNL1        0.2526
      8 O          -9.2991  -15.8672   24.5445 O.3     1  UNL1       -0.4683
      9 C          -5.7231  -18.7397   22.1029 C.2     1  UNL1        0.0035
     10 C          -5.2438  -19.1256   20.7349 C.2     1  UNL1        0.0435
     11 C          -3.8095  -19.5103   20.5237 C.2     1  UNL1        0.2111
     12 O          -3.4464  -20.9441   20.2738 O.2     1  UNL1       -0.2850
     13 C          -2.7381  -18.4612   20.5622 C.ar    1  UNL1        0.0961
     14 C          -1.4412  -18.4972   19.8093 C.ar    1  UNL1        0.0218
     15 C          -0.6770  -17.2501   20.1422 C.ar    1  UNL1        0.0200
     16 C          -1.5016  -16.4433   21.1009 C.ar    1  UNL1        0.0725
     17 N          -2.7754  -17.1917   21.3605 N.ar    1  UNL1       -0.3495
     18 H          -3.5074  -16.9009   21.9510 H       1  UNL1        0.1661
     19 O         -10.7534  -19.3040   20.9287 O.3     1  UNL1       -0.4683
     20 C         -10.6010  -19.4616   19.4449 C.3     1  UNL1        0.2526
     21 O         -11.4606  -17.2009   22.9479 O.3     1  UNL1       -0.4654
     22 C         -12.0316  -16.0126   22.2325 C.3     1  UNL1        0.2528
@<TRIPOS>BOND
     1     7     8    1
     2     8     1    1
     3     1     2   ar
     4     2     3   ar
     5     3     9    1
     6     9    10    2
     7    10    11    1
     8    11    12    2
     9    11    13    1
    10    13    14   ar
    11    14    15   ar
    12    15    16   ar
    13    16    17   ar
    14     3     4   ar
    15     4     5   ar
    16     5    19    1
    17    19    20    1
    18     5     6   ar
    19     6    21    1
    20    21    22    1
    21     6     1   ar
    22    17    13   ar
    23    17    18    1
@<TRIPOS>MOLECULE
*****
 22 23 0 0 0
SMALL
GASTEIGER

@<TRIPOS>ATOM
      1 C          -9.6831  -18.6937   21.7087 C.ar    1  UNL1        0.1754
      2 C          -8.2634  -19.1343   21.5081 C.ar    1  UNL1        0.0403
      3 C          -7.1551  -18.4591   22.2604 C.ar    1  UNL1        0.0063
      4 C          -7.4666  -17.3433   23.2132 C.ar    1  UNL1        0.0403
      5 C          -8.8863  -16.9027   23.4138 C.ar    1  UNL1        0.1754
      6 C          -9.9945  -17.5779   22.6616 C.ar    1  UNL1        0.2061
      7 C         -11.0632  -18.9982   19.5287 C.3     1  UNL1        0.2526
      8 O         -10.7913  -19.3689   20.9565 O.3     1  UNL1       -0.4683
      9 C          -5.7354  -18.8997   22.0597 C.2     1  UNL1        0.0035
     10 C          -5.1896  -19.0623   20.6720 C.2     1  UNL1        0.0435
     11 C          -3.7699  -19.5029   20.4713 C.2     1  UNL1        0.2111
     12 O          -3.4590  -20.9535   20.2496 O.2     1  UNL1       -0.2850
     13 C          -2.6610  -18.4929   20.4922 C.ar    1  UNL1        0.0961
     14 C          -1.3203  -18.6418   19.8363 C.ar    1  UNL1        0.0218
     15 C          -0.5289  -17.3977   20.1115 C.ar    1  UNL1        0.0200
     16 C          -1.3805  -16.4798   20.9374 C.ar    1  UNL1        0.0725
     17 N          -2.6982  -17.1567   21.1727 N.ar    1  UNL1       -0.3495
     18 H          -3.4547  -16.7886   21.6841 H       1  UNL1        0.1661
     19 O          -9.1978  -15.7868   24.3667 O.3     1  UNL1       -0.4683
     20 C          -8.4962  -15.7132   25.6905 C.3     1  UNL1        0.2526
     21 O         -11.4143  -17.1373   22.8623 O.3     1  UNL1       -0.4654
     22 C         -12.0508  -16.1913   21.8876 C.3     1  UNL1        0.2528
@<TRIPOS>BOND
     1     7     8    1
     2     8     1    1
     3     1     2   ar
     4     2     3   ar
     5     3     9    1
     6     9    10    2
     7    10    11    1
     8    11    12    2
     9    11    13    1
    10    13    14   ar
    11    14    15   ar
    12    15    16   ar
    13    16    17   ar
    14     3     4   ar
    15     4     5   ar
    16     5    19    1
    17    19    20    1
    18     5     6   ar
    19     6    21    1
    20    21    22    1
    21     6     1   ar
    22    17    13   ar
    23    17    18    1
@<TRIPOS>MOLECULE
*****
 22 23 0 0 0
SMALL
GASTEIGER

@<TRIPOS>ATOM
      1 C          -9.6893  -18.3901   22.7314 C.ar    1  UNL1        0.1754
      2 C          -8.2108  -18.4489   22.9772 C.ar    1  UNL1        0.0403
      3 C          -7.2920  -18.9572   21.9060 C.ar    1  UNL1        0.0063
      4 C          -7.8517  -19.4066   20.5890 C.ar    1  UNL1        0.0403
      5 C          -9.3302  -19.3477   20.3431 C.ar    1  UNL1        0.1754
      6 C         -10.2490  -18.8395   21.4143 C.ar    1  UNL1        0.2061
      7 C         -11.4252  -18.8466   24.6097 C.3     1  UNL1        0.2526
      8 O         -10.6081  -17.8818   23.8026 O.3     1  UNL1       -0.4683
      9 C          -5.8134  -19.0160   22.1520 C.2     1  UNL1        0.0035
     10 C          -5.1007  -17.8275   22.7259 C.2     1  UNL1        0.0435
     11 C          -3.6222  -17.8863   22.9719 C.2     1  UNL1        0.2111
     12 O          -3.1004  -18.0616   24.3673 O.2     1  UNL1       -0.2850
     13 C          -2.6655  -17.7697   21.8225 C.ar    1  UNL1        0.0961
     14 C          -2.5556  -18.7198   20.6670 C.ar    1  UNL1        0.0218
     15 C          -1.4728  -18.2199   19.7571 C.ar    1  UNL1        0.0200
     16 C          -0.9136  -16.9608   20.3503 C.ar    1  UNL1        0.0725
     17 N          -1.6507  -16.6826   21.6268 N.ar    1  UNL1       -0.3495
     18 H          -1.4957  -15.9203   22.2302 H       1  UNL1        0.1661
     19 O          -9.8900  -19.7972   19.0260 O.3     1  UNL1       -0.4683
     20 C          -9.0898  -20.7076   18.1424 C.3     1  UNL1        0.2526
     21 O         -11.7276  -18.7806   21.1684 O.3     1  UNL1       -0.4654
     22 C         -12.4172  -17.4532   21.0573 C.3     1  UNL1        0.2528
@<TRIPOS>BOND
     1     7     8    1
     2     8     1    1
     3     1     2   ar
     4     2     3   ar
     5     3     9    1
     6     9    10    2
     7    10    11    1
     8    11    12    2
     9    11    13    1
    10    13    14   ar
    11    14    15   ar
    12    15    16   ar
    13    16    17   ar
    14     3     4   ar
    15     4     5   ar
    16     5    19    1
    17    19    20    1
    18     5     6   ar
    19     6    21    1
    20    21    22    1
    21     6     1   ar
    22    17    13   ar
    23    17    18    1
@<TRIPOS>MOLECULE
*****
 22 23 0 0 0
SMALL
GASTEIGER

@<TRIPOS>ATOM
      1 C         -11.7545   -6.5719   18.5095 C.ar    1  UNL1        0.1754
      2 C         -13.0523   -7.3222   18.5617 C.ar    1  UNL1        0.0403
      3 C         -14.2773   -6.6637   19.1235 C.ar    1  UNL1        0.0063
      4 C         -14.2045   -5.2548   19.6333 C.ar    1  UNL1        0.0403
      5 C         -12.9067   -4.5046   19.5811 C.ar    1  UNL1        0.1754
      6 C         -11.6817   -5.1631   19.0192 C.ar    1  UNL1        0.2061
      7 C          -9.4591   -7.7344   18.8696 C.3     1  UNL1        0.2526
      8 O         -10.5295   -7.2305   17.9476 O.3     1  UNL1       -0.4683
      9 C         -15.5751   -7.4140   19.1757 C.2     1  UNL1        0.0035
     10 C         -15.5730   -8.9129   19.2346 C.2     1  UNL1        0.0435
     11 C         -16.8707   -9.6633   19.2868 C.2     1  UNL1        0.2111
     12 O         -16.8703  -11.1633   19.2854 O.2     1  UNL1       -0.2850
     13 C         -18.1689   -8.9137   19.3403 C.ar    1  UNL1        0.0961
     14 C         -18.7218   -8.1920   20.5334 C.ar    1  UNL1        0.0218
     15 C         -20.0367   -7.5865   20.1406 C.ar    1  UNL1        0.0200
     16 C         -20.2965   -7.9338   18.7047 C.ar    1  UNL1        0.0725
     17 N         -19.1421   -8.7540   18.2101 N.ar    1  UNL1       -0.3495
     18 H         -19.0410   -9.1229   17.3029 H       1  UNL1        0.1661
     19 O         -12.8338   -3.0956   20.0908 O.3     1  UNL1       -0.4683
     20 C         -12.9192   -1.9457   19.1315 C.3     1  UNL1        0.2526
     21 O         -10.3839   -4.4127   18.9670 O.3     1  UNL1       -0.4654
     22 C          -9.9260   -3.7949   17.6791 C.3     1  UNL1        0.2528
@<TRIPOS>BOND
     1     7     8    1
     2     8     1    1
     3     1     2   ar
     4     2     3   ar
     5     3     9    1
     6     9    10    2
     7    10    11    1
     8    11    12    2
     9    11    13    1
    10    13    14   ar
    11    14    15   ar
    12    15    16   ar
    13    16    17   ar
    14     3     4   ar
    15     4     5   ar
    16     5    19    1
    17    19    20    1
    18     5     6   ar
    19     6    21    1
    20    21    22    1
    21     6     1   ar
    22    17    13   ar
    23    17    18    1
@<TRIPOS>MOLECULE
*****
 22 23 0 0 0
SMALL
GASTEIGER

@<TRIPOS>ATOM
      1 C         -13.4231   -7.0978   18.6589 C.ar    1  UNL1        0.1754
      2 C         -14.5826   -6.3348   19.2275 C.ar    1  UNL1        0.0403
      3 C         -14.3865   -4.9335   19.7254 C.ar    1  UNL1        0.0063
      4 C         -13.0310   -4.2952   19.6546 C.ar    1  UNL1        0.0403
      5 C         -11.8715   -5.0582   19.0860 C.ar    1  UNL1        0.1754
      6 C         -12.0675   -6.4595   18.5882 C.ar    1  UNL1        0.2061
      7 C         -15.0035   -9.0191   17.9101 C.3     1  UNL1        0.2526
      8 O         -13.6191   -8.4991   18.1611 O.3     1  UNL1       -0.4683
      9 C         -15.5461   -4.1704   20.2940 C.2     1  UNL1        0.0035
     10 C         -16.6960   -3.7855   19.4111 C.2     1  UNL1        0.0435
     11 C         -17.8555   -3.0226   19.9796 C.2     1  UNL1        0.2111
     12 O         -19.1229   -3.7408   20.3375 O.2     1  UNL1       -0.2850
     13 C         -17.7477   -1.5414   20.1904 C.ar    1  UNL1        0.0961
     14 C         -16.5317   -0.7008   19.9361 C.ar    1  UNL1        0.0218
     15 C         -16.8695    0.7194   20.2810 C.ar    1  UNL1        0.0200
     16 C         -18.2943    0.7566   20.7485 C.ar    1  UNL1        0.0725
     17 N         -18.8370   -0.6406   20.6925 N.ar    1  UNL1       -0.3495
     18 H         -19.7483   -0.9179   20.9415 H       1  UNL1        0.1661
     19 O         -10.5159   -4.4199   19.0152 O.3     1  UNL1       -0.4683
     20 C         -10.0879   -3.7044   17.7683 C.3     1  UNL1        0.2526
     21 O         -10.9080   -7.2226   18.0195 O.3     1  UNL1       -0.4654
     22 C          -9.7481   -7.5885   18.8975 C.3     1  UNL1        0.2528
@<TRIPOS>BOND
     1     7     8    1
     2     8     1    1
     3     1     2   ar
     4     2     3   ar
     5     3     9    1
     6     9    10    2
     7    10    11    1
     8    11    12    2
     9    11    13    1
    10    13    14   ar
    11    14    15   ar
    12    15    16   ar
    13    16    17   ar
    14     3     4   ar
    15     4     5   ar
    16     5    19    1
    17    19    20    1
    18     5     6   ar
    19     6    21    1
    20    21    22    1
    21     6     1   ar
    22    17    13   ar
    23    17    18    1
@<TRIPOS>MOLECULE
*****
 22 23 0 0 0
SMALL
GASTEIGER

@<TRIPOS>ATOM
      1 C           3.7133   -2.4532   19.5083 C.ar    1  UNL1        0.1754
      2 C           2.5455   -1.6944   20.0654 C.ar    1  UNL1        0.0403
      3 C           2.1175   -0.4045   19.4305 C.ar    1  UNL1        0.0063
      4 C           2.8573    0.1266   18.2387 C.ar    1  UNL1        0.0403
      5 C           4.0251   -0.6322   17.6816 C.ar    1  UNL1        0.1754
      6 C           4.4531   -1.9221   18.3165 C.ar    1  UNL1        0.2061
      7 C           3.6509   -5.0491   19.5921 C.3     1  UNL1        0.2526
      8 O           4.1413   -3.7431   20.1432 O.3     1  UNL1       -0.4683
      9 C           0.9496    0.3544   19.9877 C.2     1  UNL1        0.0035
     10 C           1.1809    1.5379   20.8798 C.2     1  UNL1        0.0435
     11 C           0.0131    2.2967   21.4369 C.2     1  UNL1        0.2111
     12 O          -0.1463    2.4444   22.9211 O.2     1  UNL1       -0.2850
     13 C          -0.9954    2.9078   20.5098 C.ar    1  UNL1        0.0961
     14 C          -0.6929    3.6326   19.2319 C.ar    1  UNL1        0.0218
     15 C          -1.9940    4.0742   18.6302 C.ar    1  UNL1        0.0200
     16 C          -3.1008    3.6223   19.5362 C.ar    1  UNL1        0.0725
     17 N          -2.4836    2.9015   20.6979 N.ar    1  UNL1       -0.3495
     18 H          -2.9699    2.4955   21.4515 H       1  UNL1        0.1661
     19 O           4.7650   -0.1012   16.4897 O.3     1  UNL1       -0.4683
     20 C           5.9919    0.7399   16.6822 C.3     1  UNL1        0.2526
     21 O           5.6210   -2.6810   17.7593 O.3     1  UNL1       -0.4654
     22 C           7.0155   -2.3316   18.1874 C.3     1  UNL1        0.2528
@<TRIPOS>BOND
     1     7     8    1
     2     8     1    1
     3     1     2   ar
     4     2     3   ar
     5     3     9    1
     6     9    10    2
     7    10    11    1
     8    11    12    2
     9    11    13    1
    10    13    14   ar
    11    14    15   ar
    12    15    16   ar
    13    16    17   ar
    14     3     4   ar
    15     4     5   ar
    16     5    19    1
    17    19    20    1
    18     5     6   ar
    19     6    21    1
    20    21    22    1
    21     6     1   ar
    22    17    13   ar
    23    17    18    1
@<TRIPOS>MOLECULE
*****
 22 23 0 0 0
SMALL
GASTEIGER

@<TRIPOS>ATOM
      1 C           3.0583   -1.3986   21.0297 C.ar    1  UNL1        0.1754
      2 C           2.8882   -0.7981   22.3936 C.ar    1  UNL1        0.0403
      3 C           3.6637   -1.3443   23.5556 C.ar    1  UNL1        0.0063
      4 C           4.6093   -2.4911   23.3536 C.ar    1  UNL1        0.0403
      5 C           4.7794   -3.0916   21.9897 C.ar    1  UNL1        0.1754
      6 C           4.0039   -2.5453   20.8277 C.ar    1  UNL1        0.2061
      7 C           0.9057   -0.2969   20.0797 C.3     1  UNL1        0.2526
      8 O           2.2827   -0.8524   19.8677 O.3     1  UNL1       -0.4683
      9 C           3.4936   -0.7438   24.9196 C.2     1  UNL1        0.0035
     10 C           2.6299    0.4689   25.1027 C.2     1  UNL1        0.0435
     11 C           2.4597    1.0694   26.4667 C.2     1  UNL1        0.2111
     12 O           3.5152    1.9788   27.0228 O.2     1  UNL1       -0.2850
     13 C           1.2342    0.7607   27.2746 C.ar    1  UNL1        0.0961
     14 C          -0.0905    1.4563   27.1680 C.ar    1  UNL1        0.0218
     15 C          -1.0252    0.8276   28.1585 C.ar    1  UNL1        0.0200
     16 C          -0.2783   -0.2566   28.8772 C.ar    1  UNL1        0.0725
     17 N           1.1181   -0.2980   28.3309 N.ar    1  UNL1       -0.3495
     18 H           1.8329   -0.9121   28.6157 H       1  UNL1        0.1661
     19 O           5.7250   -4.2383   21.7877 O.3     1  UNL1       -0.4683
     20 C           7.1157   -3.9843   21.2861 C.3     1  UNL1        0.2526
     21 O           4.1740   -3.1459   19.4637 O.3     1  UNL1       -0.4654
     22 C           3.4463   -4.4071   19.1034 C.3     1  UNL1        0.2528
@<TRIPOS>BOND
     1     7     8    1
     2     8     1    1
     3     1     2   ar
     4     2     3   ar
     5     3     9    1
     6     9    10    2
     7    10    11    1
     8    11    12    2
     9    11    13    1
    10    13    14   ar
    11    14    15   ar
    12    15    16   ar
    13    16    17   ar
    14     3     4   ar
    15     4     5   ar
    16     5    19    1
    17    19    20    1
    18     5     6   ar
    19     6    21    1
    20    21    22    1
    21     6     1   ar
    22    17    13   ar
    23    17    18    1
@<TRIPOS>MOLECULE
*****
 22 23 0 0 0
SMALL
GASTEIGER

@<TRIPOS>ATOM
      1 C           3.9709   -0.6023   17.6624 C.ar    1  UNL1        0.1754
      2 C           2.8124    0.1775   18.2098 C.ar    1  UNL1        0.0403
      3 C           2.0468   -0.3451   19.3892 C.ar    1  UNL1        0.0063
      4 C           2.4398   -1.6474   20.0212 C.ar    1  UNL1        0.0403
      5 C           3.5984   -2.4272   19.4738 C.ar    1  UNL1        0.1754
      6 C           4.3639   -1.9046   18.2944 C.ar    1  UNL1        0.2061
      7 C           5.9837    0.7259   16.6958 C.3     1  UNL1        0.2526
      8 O           4.7365   -0.0797   16.4831 O.3     1  UNL1       -0.4683
      9 C           0.8883    0.4348   19.9366 C.2     1  UNL1        0.0035
     10 C           1.1286    1.5538   20.9062 C.2     1  UNL1        0.0435
     11 C          -0.0299    2.3337   21.4536 C.2     1  UNL1        0.2111
     12 O          -0.1762    2.5193   22.9349 O.2     1  UNL1       -0.2850
     13 C          -1.0423    2.9279   20.5197 C.ar    1  UNL1        0.0961
     14 C          -0.7434    3.6564   19.2430 C.ar    1  UNL1        0.0218
     15 C          -2.0476    4.0767   18.6328 C.ar    1  UNL1        0.0200
     16 C          -3.1526    3.6080   19.5324 C.ar    1  UNL1        0.0725
     17 N          -2.5313    2.8980   20.6985 N.ar    1  UNL1       -0.3495
     18 H          -3.0157    2.4849   21.4495 H       1  UNL1        0.1661
     19 O           3.9914   -3.7296   20.1057 O.3     1  UNL1       -0.4683
     20 C           4.8036   -3.7364   21.3667 C.3     1  UNL1        0.2526
     21 O           5.5225   -2.6845   17.7470 O.3     1  UNL1       -0.4654
     22 C           6.9117   -2.4109   18.2423 C.3     1  UNL1        0.2528
@<TRIPOS>BOND
     1     7     8    1
     2     8     1    1
     3     1     2   ar
     4     2     3   ar
     5     3     9    1
     6     9    10    2
     7    10    11    1
     8    11    12    2
     9    11    13    1
    10    13    14   ar
    11    14    15   ar
    12    15    16   ar
    13    16    17   ar
    14     3     4   ar
    15     4     5   ar
    16     5    19    1
    17    19    20    1
    18     5     6   ar
    19     6    21    1
    20    21    22    1
    21     6     1   ar
    22    17    13   ar
    23    17    18    1
