@<TRIPOS>MOLECULE
*****
 29 33 0 0 0
SMALL
GASTEIGER

@<TRIPOS>ATOM
      1 C          -2.4355    3.5284   25.8772 C.3     1  UNL1        0.0627
      2 C          -3.8202    3.8319   26.3675 C.3     1  UNL1        0.0107
      3 C          -4.9238    4.0905   25.3851 C.3     1  UNL1        0.0060
      4 C          -4.6426    4.0456   23.9123 C.3     1  UNL1        0.0343
      5 C          -3.2579    3.7421   23.4220 C.ar    1  UNL1        0.0237
      6 S          -2.6842    3.6308   22.0406 S.2     1  UNL1       -0.0561
      7 C          -1.2260    3.3034   22.1692 C.ar    1  UNL1        0.1629
      8 N          -0.8985    3.2123   23.6302 N.ar    1  UNL1       -0.2284
      9 C          -2.1544    3.4835   24.4045 C.ar    1  UNL1        0.0666
     10 C           0.8754    2.7525   28.8245 C.ar    1  UNL1       -0.0000
     11 C           0.5072    4.1611   28.4638 C.ar    1  UNL1       -0.0003
     12 C          -0.5964    4.4198   27.4814 C.ar    1  UNL1       -0.0039
     13 C          -1.3318    3.2698   26.8596 C.ar    1  UNL1       -0.0169
     14 C          -0.9636    1.8611   27.2203 C.ar    1  UNL1       -0.0039
     15 C           0.1400    1.6024   28.2027 C.ar    1  UNL1       -0.0003
     16 N          -0.2642    3.1023   21.0358 N.pl3   1  UNL1       -0.2927
     17 H          -0.1942    3.7785   20.3237 H       1  UNL1        0.1541
     18 C           0.5909    1.8709   20.9873 C.ar    1  UNL1        0.0497
     19 C           1.8759    1.8192   21.7594 C.ar    1  UNL1        0.0147
     20 C           2.7310    0.5878   21.7110 C.ar    1  UNL1        0.0013
     21 C           2.3011   -0.5920   20.8903 C.ar    1  UNL1        0.0002
     22 C           1.0161   -0.5404   20.1182 C.ar    1  UNL1        0.0013
     23 C           0.1610    0.6911   20.1667 C.ar    1  UNL1        0.0147
     24 C           3.1562   -1.8234   20.8419 C.ar    1  UNL1        0.0031
     25 C           3.2569   -2.6172   19.5731 C.ar    1  UNL1        0.0207
     26 C           4.1120   -3.8486   19.5246 C.ar    1  UNL1        0.0989
     27 N           4.8665   -4.2863   20.7450 N.ar    1  UNL1       -0.2423
     28 C           4.7659   -3.4925   22.0138 C.ar    1  UNL1        0.0989
     29 C           3.9107   -2.2611   22.0622 C.ar    1  UNL1        0.0207
@<TRIPOS>BOND
     1    10    11   ar
     2    11    12   ar
     3    12    13   ar
     4    13     1    1
     5     1     2    1
     6     2     3    1
     7     3     4    1
     8     4     5    1
     9     5     6   ar
    10     6     7   ar
    11     7    16    1
    12    16    18    1
    13    18    19   ar
    14    19    20   ar
    15    20    21   ar
    16    21    24    1
    17    24    25   ar
    18    25    26   ar
    19    26    27   ar
    20    27    28   ar
    21    28    29   ar
    22    21    22   ar
    23    22    23   ar
    24     7     8   ar
    25     8     9   ar
    26    13    14   ar
    27    14    15   ar
    28    15    10   ar
    29     9     1    1
    30     9     5   ar
    31    23    18   ar
    32    29    24   ar
    33    16    17    1
@<TRIPOS>MOLECULE
*****
 29 33 0 0 0
SMALL
GASTEIGER

@<TRIPOS>ATOM
      1 C         -12.2010   -6.1367   18.6244 C.3     1  UNL1        0.0627
      2 C         -10.9446   -6.8712   18.9877 C.3     1  UNL1        0.0107
      3 C          -9.6469   -6.1274   19.0997 C.3     1  UNL1        0.0060
      4 C          -9.6056   -4.6492   18.8485 C.3     1  UNL1        0.0343
      5 C         -10.8620   -3.9147   18.4853 C.ar    1  UNL1        0.0237
      6 S         -11.1281   -2.4699   18.1825 S.2     1  UNL1       -0.0561
      7 C         -12.5904   -2.3208   17.8833 C.ar    1  UNL1        0.1629
      8 N         -13.2280   -3.6734   18.0012 N.ar    1  UNL1       -0.2284
      9 C         -12.1597   -4.6585   18.3732 C.ar    1  UNL1        0.0666
     10 C         -16.0945   -8.3680   18.2884 C.ar    1  UNL1       -0.0000
     11 C         -14.9316   -8.7544   17.4233 C.ar    1  UNL1       -0.0003
     12 C         -13.6338   -8.0106   17.5353 C.ar    1  UNL1       -0.0039
     13 C         -13.4989   -6.8805   18.5124 C.ar    1  UNL1       -0.0169
     14 C         -14.6618   -6.4942   19.3775 C.ar    1  UNL1       -0.0039
     15 C         -15.9596   -7.2379   19.2655 C.ar    1  UNL1       -0.0003
     16 N         -13.2920   -1.0432   17.5286 N.pl3   1  UNL1       -0.2927
     17 H         -13.0495   -0.5606   16.7054 H       1  UNL1        0.1541
     18 C         -14.3629   -0.5009   18.4280 C.ar    1  UNL1        0.0497
     19 C         -14.5609    0.9810   18.5496 C.ar    1  UNL1        0.0147
     20 C         -15.6319    1.5233   19.4490 C.ar    1  UNL1        0.0013
     21 C         -16.5049    0.5836   20.2268 C.ar    1  UNL1        0.0002
     22 C         -16.3069   -0.8983   20.1052 C.ar    1  UNL1        0.0013
     23 C         -15.2359   -1.4405   19.2058 C.ar    1  UNL1        0.0147
     24 C         -17.5758    1.1259   21.1262 C.ar    1  UNL1        0.0031
     25 C         -17.2045    1.9600   22.3163 C.ar    1  UNL1        0.0207
     26 C         -18.2754    2.5023   23.2157 C.ar    1  UNL1        0.0989
     27 N         -19.7178    2.2105   22.9250 N.ar    1  UNL1       -0.2423
     28 C         -20.0892    1.3764   21.7349 C.ar    1  UNL1        0.0989
     29 C         -19.0181    0.8341   20.8355 C.ar    1  UNL1        0.0207
@<TRIPOS>BOND
     1    10    11   ar
     2    11    12   ar
     3    12    13   ar
     4    13     1    1
     5     1     2    1
     6     2     3    1
     7     3     4    1
     8     4     5    1
     9     5     6   ar
    10     6     7   ar
    11     7    16    1
    12    16    18    1
    13    18    19   ar
    14    19    20   ar
    15    20    21   ar
    16    21    24    1
    17    24    25   ar
    18    25    26   ar
    19    26    27   ar
    20    27    28   ar
    21    28    29   ar
    22    21    22   ar
    23    22    23   ar
    24     7     8   ar
    25     8     9   ar
    26    13    14   ar
    27    14    15   ar
    28    15    10   ar
    29     9     1    1
    30     9     5   ar
    31    23    18   ar
    32    29    24   ar
    33    16    17    1
@<TRIPOS>MOLECULE
*****
 29 33 0 0 0
SMALL
GASTEIGER

@<TRIPOS>ATOM
      1 C          -3.0313    3.6362   24.1206 C.3     1  UNL1        0.0627
      2 C          -4.5127    3.7456   24.3289 C.3     1  UNL1        0.0107
      3 C          -5.4411    3.6971   23.1518 C.3     1  UNL1        0.0060
      4 C          -4.8882    3.5392   21.7664 C.3     1  UNL1        0.0343
      5 C          -3.4068    3.4298   21.5581 C.ar    1  UNL1        0.0237
      6 S          -2.5766    3.2680   20.3193 S.2     1  UNL1       -0.0561
      7 C          -1.1351    3.2166   20.7308 C.ar    1  UNL1        0.1629
      8 N          -1.0743    3.3465   22.2239 N.ar    1  UNL1       -0.2284
      9 C          -2.4783    3.4783   22.7352 C.ar    1  UNL1        0.0666
     10 C          -0.2457    3.7818   27.6519 C.ar    1  UNL1       -0.0000
     11 C          -0.3898    2.5148   26.8621 C.ar    1  UNL1       -0.0003
     12 C          -1.3184    2.4662   25.6849 C.ar    1  UNL1       -0.0039
     13 C          -2.1027    3.6847   25.2977 C.ar    1  UNL1       -0.0169
     14 C          -1.9586    4.9518   26.0876 C.ar    1  UNL1       -0.0039
     15 C          -1.0302    5.0003   27.2646 C.ar    1  UNL1       -0.0003
     16 N           0.0395    3.0622   19.8106 N.pl3   1  UNL1       -0.2927
     17 H           0.2539    3.7719   19.1628 H       1  UNL1        0.1541
     18 C           0.8873    1.8266   19.8775 C.ar    1  UNL1        0.0497
     19 C           0.2819    0.5241   20.3096 C.ar    1  UNL1        0.0147
     20 C           1.1297   -0.7115   20.3764 C.ar    1  UNL1        0.0013
     21 C           2.5831   -0.6445   20.0111 C.ar    1  UNL1        0.0002
     22 C           3.1885    0.6580   19.5790 C.ar    1  UNL1        0.0013
     23 C           2.3406    1.8937   19.5122 C.ar    1  UNL1        0.0147
     24 C           3.4309   -1.8801   20.0780 C.ar    1  UNL1        0.0031
     25 C           3.8914   -2.4028   21.4064 C.ar    1  UNL1        0.0207
     26 C           4.7392   -3.6383   21.4733 C.ar    1  UNL1        0.0989
     27 N           5.1266   -4.3513   20.2116 N.ar    1  UNL1       -0.2423
     28 C           4.6662   -3.8286   18.8832 C.ar    1  UNL1        0.0989
     29 C           3.8183   -2.5930   18.8164 C.ar    1  UNL1        0.0207
@<TRIPOS>BOND
     1    10    11   ar
     2    11    12   ar
     3    12    13   ar
     4    13     1    1
     5     1     2    1
     6     2     3    1
     7     3     4    1
     8     4     5    1
     9     5     6   ar
    10     6     7   ar
    11     7    16    1
    12    16    18    1
    13    18    19   ar
    14    19    20   ar
    15    20    21   ar
    16    21    24    1
    17    24    25   ar
    18    25    26   ar
    19    26    27   ar
    20    27    28   ar
    21    28    29   ar
    22    21    22   ar
    23    22    23   ar
    24     7     8   ar
    25     8     9   ar
    26    13    14   ar
    27    14    15   ar
    28    15    10   ar
    29     9     1    1
    30     9     5   ar
    31    23    18   ar
    32    29    24   ar
    33    16    17    1
@<TRIPOS>MOLECULE
*****
 29 33 0 0 0
SMALL
GASTEIGER

@<TRIPOS>ATOM
      1 C           3.5562   -1.6641   21.4209 C.3     1  UNL1        0.0627
      2 C           4.3044   -2.9100   21.0495 C.3     1  UNL1        0.0107
      3 C           5.0280   -3.6929   22.1047 C.3     1  UNL1        0.0060
      4 C           5.0033   -3.2300   23.5313 C.3     1  UNL1        0.0343
      5 C           4.2551   -1.9841   23.9026 C.ar    1  UNL1        0.0237
      6 S           4.0544   -1.2877   25.2159 S.2     1  UNL1       -0.0561
      7 C           3.2067   -0.0744   24.9724 C.ar    1  UNL1        0.1629
      8 N           2.8836   -0.0208   23.5086 N.ar    1  UNL1       -0.2284
      9 C           3.5316   -1.2012   22.8475 C.ar    1  UNL1        0.0666
     10 C           1.3854    0.6849   18.2554 C.ar    1  UNL1       -0.0000
     11 C           2.8143    0.2815   18.0423 C.ar    1  UNL1       -0.0003
     12 C           3.5379   -0.5016   19.0975 C.ar    1  UNL1       -0.0039
     13 C           2.8326   -0.8811   20.3657 C.ar    1  UNL1       -0.0169
     14 C           1.4037   -0.4776   20.5788 C.ar    1  UNL1       -0.0039
     15 C           0.6801    0.3053   19.5237 C.ar    1  UNL1       -0.0003
     16 N           2.7605    0.9122   26.0105 N.pl3   1  UNL1       -0.2927
     17 H           3.3593    1.1474   26.7557 H       1  UNL1        0.1541
     18 C           1.4020    1.5406   25.9132 C.ar    1  UNL1        0.0497
     19 C           0.3674    1.2567   26.9615 C.ar    1  UNL1        0.0147
     20 C          -0.9911    1.8850   26.8642 C.ar    1  UNL1        0.0013
     21 C          -1.3151    2.7973   25.7184 C.ar    1  UNL1        0.0002
     22 C          -0.2806    3.0813   24.6700 C.ar    1  UNL1        0.0013
     23 C           1.0780    2.4528   24.7674 C.ar    1  UNL1        0.0147
     24 C          -2.6737    3.4257   25.6210 C.ar    1  UNL1        0.0031
     25 C          -3.3438    3.5603   24.2858 C.ar    1  UNL1        0.0207
     26 C          -4.7024    4.1886   24.1885 C.ar    1  UNL1        0.0989
     27 N          -5.3908    4.6824   25.4263 N.ar    1  UNL1       -0.2423
     28 C          -4.7206    4.5478   26.7615 C.ar    1  UNL1        0.0989
     29 C          -3.3620    3.9194   26.8589 C.ar    1  UNL1        0.0207
@<TRIPOS>BOND
     1    10    11   ar
     2    11    12   ar
     3    12    13   ar
     4    13     1    1
     5     1     2    1
     6     2     3    1
     7     3     4    1
     8     4     5    1
     9     5     6   ar
    10     6     7   ar
    11     7    16    1
    12    16    18    1
    13    18    19   ar
    14    19    20   ar
    15    20    21   ar
    16    21    24    1
    17    24    25   ar
    18    25    26   ar
    19    26    27   ar
    20    27    28   ar
    21    28    29   ar
    22    21    22   ar
    23    22    23   ar
    24     7     8   ar
    25     8     9   ar
    26    13    14   ar
    27    14    15   ar
    28    15    10   ar
    29     9     1    1
    30     9     5   ar
    31    23    18   ar
    32    29    24   ar
    33    16    17    1
@<TRIPOS>MOLECULE
*****
 29 33 0 0 0
SMALL
GASTEIGER

@<TRIPOS>ATOM
      1 C         -10.5405  -17.2826   23.5594 C.3     1  UNL1        0.0627
      2 C         -11.9576  -16.8013   23.4595 C.3     1  UNL1        0.0107
      3 C         -12.8157  -17.2298   22.3063 C.3     1  UNL1        0.0060
      4 C         -12.2566  -18.1397   21.2529 C.3     1  UNL1        0.0343
      5 C         -10.8394  -18.6210   21.3528 C.ar    1  UNL1        0.0237
      6 S         -10.0194  -19.5172   20.4729 S.2     1  UNL1       -0.0561
      7 C          -8.6546  -19.6427   21.0824 C.ar    1  UNL1        0.1629
      8 N          -8.6310  -18.8239   22.3390 N.ar    1  UNL1       -0.2284
      9 C          -9.9814  -18.1924   22.5061 C.ar    1  UNL1        0.0666
     10 C          -7.9662  -15.9970   27.0194 C.ar    1  UNL1       -0.0000
     11 C          -8.0147  -15.1663   25.7714 C.ar    1  UNL1       -0.0003
     12 C          -8.8729  -15.5949   24.6180 C.ar    1  UNL1       -0.0039
     13 C          -9.6824  -16.8540   24.7128 C.ar    1  UNL1       -0.0169
     14 C          -9.6339  -17.6848   25.9608 C.ar    1  UNL1       -0.0039
     15 C          -8.7758  -17.2563   27.1141 C.ar    1  UNL1       -0.0003
     16 N          -7.5135  -20.4459   20.5319 N.pl3   1  UNL1       -0.2927
     17 H          -7.6704  -21.3581   20.1966 H       1  UNL1        0.1541
     18 C          -6.1336  -19.8592   20.4923 C.ar    1  UNL1        0.0497
     19 C          -5.2365  -19.9708   21.6892 C.ar    1  UNL1        0.0147
     20 C          -3.8566  -19.3841   21.6496 C.ar    1  UNL1        0.0013
     21 C          -3.3738  -18.6857   20.4130 C.ar    1  UNL1        0.0002
     22 C          -4.2709  -18.5740   19.2160 C.ar    1  UNL1        0.0013
     23 C          -5.6509  -19.1608   19.2557 C.ar    1  UNL1        0.0147
     24 C          -1.9939  -18.0990   20.3734 C.ar    1  UNL1        0.0031
     25 C          -0.8427  -18.9225   19.8769 C.ar    1  UNL1        0.0207
     26 C           0.5372  -18.3358   19.8373 C.ar    1  UNL1        0.0989
     27 N           0.7659  -16.9255   20.2942 N.ar    1  UNL1       -0.2423
     28 C          -0.3853  -16.1019   20.7907 C.ar    1  UNL1        0.0989
     29 C          -1.7652  -16.6887   20.8302 C.ar    1  UNL1        0.0207
@<TRIPOS>BOND
     1    10    11   ar
     2    11    12   ar
     3    12    13   ar
     4    13     1    1
     5     1     2    1
     6     2     3    1
     7     3     4    1
     8     4     5    1
     9     5     6   ar
    10     6     7   ar
    11     7    16    1
    12    16    18    1
    13    18    19   ar
    14    19    20   ar
    15    20    21   ar
    16    21    24    1
    17    24    25   ar
    18    25    26   ar
    19    26    27   ar
    20    27    28   ar
    21    28    29   ar
    22    21    22   ar
    23    22    23   ar
    24     7     8   ar
    25     8     9   ar
    26    13    14   ar
    27    14    15   ar
    28    15    10   ar
    29     9     1    1
    30     9     5   ar
    31    23    18   ar
    32    29    24   ar
    33    16    17    1
@<TRIPOS>MOLECULE
*****
 29 33 0 0 0
SMALL
GASTEIGER

@<TRIPOS>ATOM
      1 C           3.7365   -2.0273   19.7722 C.3     1  UNL1        0.0627
      2 C           3.7548   -3.1836   18.8170 C.3     1  UNL1        0.0107
      3 C           4.7513   -4.2900   18.9978 C.3     1  UNL1        0.0060
      4 C           5.7295   -4.2401   20.1339 C.3     1  UNL1        0.0343
      5 C           5.7112   -3.0838   21.0891 C.ar    1  UNL1        0.0237
      6 S           6.5462   -2.7633   22.2933 S.2     1  UNL1       -0.0561
      7 C           6.0657   -1.4588   22.8567 C.ar    1  UNL1        0.1629
      8 N           4.9338   -0.9730   22.0007 N.ar    1  UNL1       -0.2284
      9 C           4.7147   -1.9774   20.9083 C.ar    1  UNL1        0.0666
     10 C           0.7469    1.2921   19.2297 C.ar    1  UNL1       -0.0000
     11 C           0.4974    0.2167   20.2452 C.ar    1  UNL1       -0.0003
     12 C           1.4940   -0.8898   20.4260 C.ar    1  UNL1       -0.0039
     13 C           2.7399   -0.9208   19.5914 C.ar    1  UNL1       -0.0169
     14 C           2.9894    0.1546   18.5759 C.ar    1  UNL1       -0.0039
     15 C           1.9929    1.2611   18.3951 C.ar    1  UNL1       -0.0003
     16 N           6.6199   -0.7623   24.0641 N.pl3   1  UNL1       -0.2927
     17 H           6.9706    0.1543   23.9860 H       1  UNL1        0.1541
     18 C           6.6398   -1.4624   25.3906 C.ar    1  UNL1        0.0497
     19 C           5.3713   -1.6174   26.1759 C.ar    1  UNL1        0.0147
     20 C           5.3912   -2.3175   27.5024 C.ar    1  UNL1        0.0013
     21 C           6.6797   -2.8626   28.0435 C.ar    1  UNL1        0.0002
     22 C           7.9482   -2.7076   27.2581 C.ar    1  UNL1        0.0013
     23 C           7.9283   -2.0075   25.9316 C.ar    1  UNL1        0.0147
     24 C           6.6996   -3.5627   29.3699 C.ar    1  UNL1        0.0031
     25 C           6.9730   -5.0361   29.4363 C.ar    1  UNL1        0.0207
     26 C           6.9929   -5.7361   30.7627 C.ar    1  UNL1        0.0989
     27 N           6.7394   -4.9628   32.0228 N.ar    1  UNL1       -0.2423
     28 C           6.4660   -3.4895   31.9564 C.ar    1  UNL1        0.0989
     29 C           6.4461   -2.7894   30.6299 C.ar    1  UNL1        0.0207
@<TRIPOS>BOND
     1    10    11   ar
     2    11    12   ar
     3    12    13   ar
     4    13     1    1
     5     1     2    1
     6     2     3    1
     7     3     4    1
     8     4     5    1
     9     5     6   ar
    10     6     7   ar
    11     7    16    1
    12    16    18    1
    13    18    19   ar
    14    19    20   ar
    15    20    21   ar
    16    21    24    1
    17    24    25   ar
    18    25    26   ar
    19    26    27   ar
    20    27    28   ar
    21    28    29   ar
    22    21    22   ar
    23    22    23   ar
    24     7     8   ar
    25     8     9   ar
    26    13    14   ar
    27    14    15   ar
    28    15    10   ar
    29     9     1    1
    30     9     5   ar
    31    23    18   ar
    32    29    24   ar
    33    16    17    1
@<TRIPOS>MOLECULE
*****
 29 33 0 0 0
SMALL
GASTEIGER

@<TRIPOS>ATOM
      1 C         -12.5259   -5.5983   18.7119 C.3     1  UNL1        0.0627
      2 C         -11.1186   -6.0278   19.0035 C.3     1  UNL1        0.0107
      3 C         -10.0016   -5.0286   18.9426 C.3     1  UNL1        0.0060
      4 C         -10.2919   -3.5998   18.5902 C.3     1  UNL1        0.0343
      5 C         -11.6991   -3.1702   18.2986 C.ar    1  UNL1        0.0237
      6 S         -12.2861   -1.8410   17.9263 S.2     1  UNL1       -0.0561
      7 C         -13.7659   -2.0187   17.7570 C.ar    1  UNL1        0.1629
      8 N         -14.0935   -3.4578   18.0247 N.ar    1  UNL1       -0.2284
      9 C         -12.8161   -4.1694   18.3595 C.ar    1  UNL1        0.0666
     10 C         -15.8771   -8.5961   18.8944 C.ar    1  UNL1       -0.0000
     11 C         -15.9965   -7.2922   19.6264 C.ar    1  UNL1       -0.0003
     12 C         -14.8794   -6.2930   19.5656 C.ar    1  UNL1       -0.0039
     13 C         -13.6430   -6.5975   18.7728 C.ar    1  UNL1       -0.0169
     14 C         -13.5236   -7.9014   18.0408 C.ar    1  UNL1       -0.0039
     15 C         -14.6406   -8.9006   18.1016 C.ar    1  UNL1       -0.0003
     16 N         -14.7460   -0.9457   17.3852 N.pl3   1  UNL1       -0.2927
     17 H         -15.0173   -0.8309   16.4458 H       1  UNL1        0.1541
     18 C         -15.3126   -0.0477   18.4446 C.ar    1  UNL1        0.0497
     19 C         -14.9624    1.4108   18.4575 C.ar    1  UNL1        0.0147
     20 C         -15.5291    2.3088   19.5170 C.ar    1  UNL1        0.0013
     21 C         -16.4460    1.7483   20.5635 C.ar    1  UNL1        0.0002
     22 C         -16.7962    0.2898   20.5506 C.ar    1  UNL1        0.0013
     23 C         -16.2295   -0.6082   19.4911 C.ar    1  UNL1        0.0147
     24 C         -17.0126    2.6463   21.6230 C.ar    1  UNL1        0.0031
     25 C         -18.0421    2.1213   22.5793 C.ar    1  UNL1        0.0207
     26 C         -18.6087    3.0193   23.6387 C.ar    1  UNL1        0.0989
     27 N         -18.1459    4.4424   23.7419 N.ar    1  UNL1       -0.2423
     28 C         -17.1165    4.9675   22.7855 C.ar    1  UNL1        0.0989
     29 C         -16.5498    4.0694   21.7261 C.ar    1  UNL1        0.0207
@<TRIPOS>BOND
     1    10    11   ar
     2    11    12   ar
     3    12    13   ar
     4    13     1    1
     5     1     2    1
     6     2     3    1
     7     3     4    1
     8     4     5    1
     9     5     6   ar
    10     6     7   ar
    11     7    16    1
    12    16    18    1
    13    18    19   ar
    14    19    20   ar
    15    20    21   ar
    16    21    24    1
    17    24    25   ar
    18    25    26   ar
    19    26    27   ar
    20    27    28   ar
    21    28    29   ar
    22    21    22   ar
    23    22    23   ar
    24     7     8   ar
    25     8     9   ar
    26    13    14   ar
    27    14    15   ar
    28    15    10   ar
    29     9     1    1
    30     9     5   ar
    31    23    18   ar
    32    29    24   ar
    33    16    17    1
@<TRIPOS>MOLECULE
*****
 29 33 0 0 0
SMALL
GASTEIGER

@<TRIPOS>ATOM
      1 C           4.5257    1.7601   38.3788 C.3     1  UNL1        0.0627
      2 C           5.4885    2.4621   39.2899 C.3     1  UNL1        0.0107
      3 C           6.9546    2.4649   38.9729 C.3     1  UNL1        0.0060
      4 C           7.4579    1.7657   37.7450 C.3     1  UNL1        0.0343
      5 C           6.4950    1.0637   36.8340 C.ar    1  UNL1        0.0237
      6 S           6.6957    0.2951   35.5616 S.2     1  UNL1       -0.0561
      7 C           5.3535   -0.1827   35.0920 C.ar    1  UNL1        0.1629
      8 N           4.3234    0.2906   36.0743 N.ar    1  UNL1       -0.2284
      9 C           5.0289    1.0609   37.1509 C.ar    1  UNL1        0.0666
     10 C           0.1272    1.7516   39.3295 C.ar    1  UNL1       -0.0000
     11 C           0.9348    0.4999   39.5051 C.ar    1  UNL1       -0.0003
     12 C           2.4010    0.5027   39.1882 C.ar    1  UNL1       -0.0039
     13 C           3.0595    1.7573   38.6957 C.ar    1  UNL1       -0.0169
     14 C           2.2518    3.0090   38.5201 C.ar    1  UNL1       -0.0039
     15 C           0.7857    3.0062   38.8370 C.ar    1  UNL1       -0.0003
     16 N           5.0882   -0.9917   33.8571 N.pl3   1  UNL1       -0.2927
     17 H           5.5493   -1.8512   33.7231 H       1  UNL1        0.1541
     18 C           4.1203   -0.4913   32.8262 C.ar    1  UNL1        0.0497
     19 C           3.4749    0.8525   32.9932 C.ar    1  UNL1        0.0147
     20 C           2.5070    1.3529   31.9624 C.ar    1  UNL1        0.0013
     21 C           2.1844    0.5096   30.7645 C.ar    1  UNL1        0.0002
     22 C           2.8298   -0.8341   30.5975 C.ar    1  UNL1        0.0013
     23 C           3.7978   -1.3345   31.6284 C.ar    1  UNL1        0.0147
     24 C           1.2165    1.0101   29.7336 C.ar    1  UNL1        0.0031
     25 C           0.2935    0.0503   29.0431 C.ar    1  UNL1        0.0207
     26 C          -0.6744    0.5508   28.0122 C.ar    1  UNL1        0.0989
     27 N          -0.7194    2.0110   27.6719 N.ar    1  UNL1       -0.2423
     28 C           0.2037    2.9707   28.3625 C.ar    1  UNL1        0.0989
     29 C           1.1716    2.4702   29.3934 C.ar    1  UNL1        0.0207
@<TRIPOS>BOND
     1    10    11   ar
     2    11    12   ar
     3    12    13   ar
     4    13     1    1
     5     1     2    1
     6     2     3    1
     7     3     4    1
     8     4     5    1
     9     5     6   ar
    10     6     7   ar
    11     7    16    1
    12    16    18    1
    13    18    19   ar
    14    19    20   ar
    15    20    21   ar
    16    21    24    1
    17    24    25   ar
    18    25    26   ar
    19    26    27   ar
    20    27    28   ar
    21    28    29   ar
    22    21    22   ar
    23    22    23   ar
    24     7     8   ar
    25     8     9   ar
    26    13    14   ar
    27    14    15   ar
    28    15    10   ar
    29     9     1    1
    30     9     5   ar
    31    23    18   ar
    32    29    24   ar
    33    16    17    1
@<TRIPOS>MOLECULE
*****
 29 33 0 0 0
SMALL
GASTEIGER

@<TRIPOS>ATOM
      1 C           3.6896   -2.0833   19.8259 C.3     1  UNL1        0.0627
      2 C           3.8004   -3.2102   18.8422 C.3     1  UNL1        0.0107
      3 C           4.7951   -4.3096   19.0701 C.3     1  UNL1        0.0060
      4 C           5.6790   -4.2820   20.2817 C.3     1  UNL1        0.0343
      5 C           5.5682   -3.1551   21.2654 C.ar    1  UNL1        0.0237
      6 S           6.3001   -2.8608   22.5412 S.2     1  UNL1       -0.0561
      7 C           5.7577   -1.5796   23.1019 C.ar    1  UNL1        0.1629
      8 N           4.6906   -1.0820   22.1725 N.ar    1  UNL1       -0.2284
      9 C           4.5735   -2.0557   21.0375 C.ar    1  UNL1        0.0666
     10 C           0.7055    1.2149   19.1424 C.ar    1  UNL1       -0.0000
     11 C           1.9475    1.1418   18.3046 C.ar    1  UNL1       -0.0003
     12 C           2.9423    0.0424   18.5325 C.ar    1  UNL1       -0.0039
     13 C           2.6949   -0.9839   19.5981 C.ar    1  UNL1       -0.0169
     14 C           1.4528   -0.9108   20.4358 C.ar    1  UNL1       -0.0039
     15 C           0.4581    0.1886   20.2080 C.ar    1  UNL1       -0.0003
     16 N           6.2041   -0.9130   24.3694 N.pl3   1  UNL1       -0.2927
     17 H           7.1593   -0.7262   24.5173 H       1  UNL1        0.1541
     18 C           5.1951   -0.5312   25.4115 C.ar    1  UNL1        0.0497
     19 C           4.6728   -1.5653   26.3643 C.ar    1  UNL1        0.0147
     20 C           3.6638   -1.1834   27.4064 C.ar    1  UNL1        0.0013
     21 C           3.1771    0.2327   27.4958 C.ar    1  UNL1        0.0002
     22 C           3.6994    1.2668   26.5430 C.ar    1  UNL1        0.0013
     23 C           4.7084    0.8848   25.5008 C.ar    1  UNL1        0.0147
     24 C           2.1681    0.6145   28.5379 C.ar    1  UNL1        0.0031
     25 C           0.7027    0.5374   28.2269 C.ar    1  UNL1        0.0207
     26 C          -0.3063    0.9193   29.2690 C.ar    1  UNL1        0.0989
     27 N           0.1501    1.3783   30.6222 N.ar    1  UNL1       -0.2423
     28 C           1.6155    1.4554   30.9333 C.ar    1  UNL1        0.0989
     29 C           2.6245    1.0735   29.8910 C.ar    1  UNL1        0.0207
@<TRIPOS>BOND
     1    10    11   ar
     2    11    12   ar
     3    12    13   ar
     4    13     1    1
     5     1     2    1
     6     2     3    1
     7     3     4    1
     8     4     5    1
     9     5     6   ar
    10     6     7   ar
    11     7    16    1
    12    16    18    1
    13    18    19   ar
    14    19    20   ar
    15    20    21   ar
    16    21    24    1
    17    24    25   ar
    18    25    26   ar
    19    26    27   ar
    20    27    28   ar
    21    28    29   ar
    22    21    22   ar
    23    22    23   ar
    24     7     8   ar
    25     8     9   ar
    26    13    14   ar
    27    14    15   ar
    28    15    10   ar
    29     9     1    1
    30     9     5   ar
    31    23    18   ar
    32    29    24   ar
    33    16    17    1
