@<TRIPOS>MOLECULE
*****
 27 29 0 0 0
SMALL
GASTEIGER

@<TRIPOS>ATOM
      1 C          -6.7463  -18.6844   20.9705 C.2     1  UNL1        0.2422
      2 O          -8.1813  -18.8103   20.5521 O.2     1  UNL1       -0.2733
      3 N          -6.3925  -17.9330   22.2196 N.am    1  UNL1       -0.2721
      4 C          -4.9576  -17.8072   22.6381 C.3     1  UNL1        0.0987
      5 C          -4.6037  -17.0558   23.8871 C.3     1  UNL1        0.0477
      6 C          -5.6848  -16.4302   24.7178 C.ar    1  UNL1       -0.0204
      7 C          -5.3309  -15.6788   25.9669 C.ar    1  UNL1       -0.0043
      8 C          -6.4120  -15.0533   26.7975 C.ar    1  UNL1        0.0020
      9 C          -7.8469  -15.1792   26.3790 C.ar    1  UNL1        0.0294
     10 C          -8.2008  -15.9305   25.1300 C.ar    1  UNL1        0.1377
     11 F          -9.6357  -16.0564   24.7115 F       1  UNL1       -0.2044
     12 C          -7.1197  -16.5561   24.2994 C.ar    1  UNL1        0.0235
     13 C          -7.4736  -17.3075   23.0503 C.3     1  UNL1        0.1223
     14 C          -8.9085  -17.4333   22.6318 C.ar    1  UNL1       -0.0000
     15 C          -9.7191  -18.6139   23.0782 C.ar    1  UNL1       -0.0023
     16 C         -11.1541  -18.7398   22.6597 C.ar    1  UNL1       -0.0003
     17 C         -11.7784  -17.6850   21.7949 C.ar    1  UNL1       -0.0000
     18 C         -10.9678  -16.5045   21.3486 C.ar    1  UNL1       -0.0003
     19 C          -9.5329  -16.3787   21.7671 C.ar    1  UNL1       -0.0023
     20 C          -5.6653  -19.3100   20.1399 C.3     1  UNL1        0.1552
     21 N          -4.6640  -18.4430   19.4359 N.3     1  UNL1       -0.2878
     22 H          -5.0171  -18.2932   18.4907 H       1  UNL1        0.1238
     23 C          -3.2415  -18.8989   19.2995 C.3     1  UNL1        0.0985
     24 C          -1.9423  -17.0062   20.5157 C.3     1  UNL1        0.0332
     25 C          -2.1268  -17.8955   19.3220 C.3     1  UNL1        0.1263
     26 O          -1.1967  -17.7813   18.1507 O.3     1  UNL1       -0.3830
     27 H          -1.4535  -18.4229   17.4701 H       1  UNL1        0.2104
@<TRIPOS>BOND
     1    25    24    1
     2    25    26    1
     3    25    23    1
     4    23    21    1
     5    21    20    1
     6    20     1    1
     7     1     2    2
     8     1     3   am
     9     3     4    1
    10     4     5    1
    11     5     6    1
    12     6     7   ar
    13     7     8   ar
    14     8     9   ar
    15     9    10   ar
    16    10    11    1
    17    10    12   ar
    18    12    13    1
    19    13    14    1
    20    14    15   ar
    21    15    16   ar
    22    16    17   ar
    23    17    18   ar
    24    18    19   ar
    25    13     3    1
    26    19    14   ar
    27    12     6   ar
    28    26    27    1
    29    21    22    1
@<TRIPOS>MOLECULE
*****
 27 29 0 0 0
SMALL
GASTEIGER

@<TRIPOS>ATOM
      1 C          -7.4633  -16.1199   23.7976 C.2     1  UNL1        0.2422
      2 O          -8.8631  -16.6031   23.5589 O.2     1  UNL1       -0.2733
      3 N          -6.3014  -16.8721   23.2194 N.am    1  UNL1       -0.2721
      4 C          -4.9015  -16.3890   23.4582 C.3     1  UNL1        0.0987
      5 C          -3.7397  -17.1411   22.8800 C.3     1  UNL1        0.0477
      6 C          -3.9776  -18.3765   22.0631 C.ar    1  UNL1       -0.0204
      7 C          -2.8157  -19.1286   21.4849 C.ar    1  UNL1       -0.0043
      8 C          -3.0537  -20.3639   20.6680 C.ar    1  UNL1        0.0020
      9 C          -4.4535  -20.8471   20.4293 C.ar    1  UNL1        0.0294
     10 C          -5.6154  -20.0949   21.0074 C.ar    1  UNL1        0.1377
     11 F          -7.0152  -20.5781   20.7687 F       1  UNL1       -0.2044
     12 C          -5.3774  -18.8596   21.8243 C.ar    1  UNL1        0.0235
     13 C          -6.5393  -18.1074   22.4025 C.3     1  UNL1        0.1223
     14 C          -7.9392  -18.5906   22.1638 C.ar    1  UNL1       -0.0000
     15 C          -8.6996  -18.1207   20.9592 C.ar    1  UNL1       -0.0023
     16 C         -10.0994  -18.6038   20.7204 C.ar    1  UNL1       -0.0003
     17 C         -10.7389  -19.5569   21.6863 C.ar    1  UNL1       -0.0000
     18 C          -9.9784  -20.0268   22.8908 C.ar    1  UNL1       -0.0003
     19 C          -8.5786  -19.5437   23.1296 C.ar    1  UNL1       -0.0023
     20 C          -7.2253  -14.8846   24.6145 C.3     1  UNL1        0.1552
     21 N          -6.2043  -14.8973   25.7133 N.3     1  UNL1       -0.2878
     22 H          -5.4194  -15.4567   25.3795 H       1  UNL1        0.1238
     23 C          -6.5679  -15.4268   27.0689 C.3     1  UNL1        0.0985
     24 C          -8.6744  -16.9307   27.2938 C.3     1  UNL1        0.0332
     25 C          -8.0098  -15.5947   27.4465 C.3     1  UNL1        0.1263
     26 O          -8.7871  -14.4265   27.9769 O.3     1  UNL1       -0.3830
     27 H          -8.2132  -13.6454   28.0120 H       1  UNL1        0.2104
@<TRIPOS>BOND
     1    25    24    1
     2    25    26    1
     3    25    23    1
     4    23    21    1
     5    21    20    1
     6    20     1    1
     7     1     2    2
     8     1     3   am
     9     3     4    1
    10     4     5    1
    11     5     6    1
    12     6     7   ar
    13     7     8   ar
    14     8     9   ar
    15     9    10   ar
    16    10    11    1
    17    10    12   ar
    18    12    13    1
    19    13    14    1
    20    14    15   ar
    21    15    16   ar
    22    16    17   ar
    23    17    18   ar
    24    18    19   ar
    25    13     3    1
    26    19    14   ar
    27    12     6   ar
    28    26    27    1
    29    21    22    1
@<TRIPOS>MOLECULE
*****
 27 29 0 0 0
SMALL
GASTEIGER

@<TRIPOS>ATOM
      1 C          -4.7058  -17.7933   23.1137 C.2     1  UNL1        0.2422
      2 O          -5.1945  -16.8551   24.1772 O.2     1  UNL1       -0.2733
      3 N          -5.6691  -18.3601   22.1132 N.am    1  UNL1       -0.2721
      4 C          -5.1805  -19.2983   21.0497 C.3     1  UNL1        0.0987
      5 C          -6.1437  -19.8650   20.0492 C.3     1  UNL1        0.0477
      6 C          -7.5956  -19.4935   20.1122 C.ar    1  UNL1       -0.0204
      7 C          -8.5588  -20.0602   19.1117 C.ar    1  UNL1       -0.0043
      8 C         -10.0107  -19.6887   19.1747 C.ar    1  UNL1        0.0020
      9 C         -10.4994  -18.7505   20.2381 C.ar    1  UNL1        0.0294
     10 C          -9.5362  -18.1838   21.2386 C.ar    1  UNL1        0.1377
     11 F         -10.0248  -17.2456   22.3021 F       1  UNL1       -0.2044
     12 C          -8.0843  -18.5553   21.1756 C.ar    1  UNL1        0.0235
     13 C          -7.1210  -17.9886   22.1762 C.3     1  UNL1        0.1223
     14 C          -7.6097  -17.0504   23.2396 C.ar    1  UNL1       -0.0000
     15 C          -7.4376  -15.5699   23.0704 C.ar    1  UNL1       -0.0023
     16 C          -7.9263  -14.6316   24.1339 C.ar    1  UNL1       -0.0003
     17 C          -8.5870  -15.1740   25.3666 C.ar    1  UNL1       -0.0000
     18 C          -8.7590  -16.6544   25.5357 C.ar    1  UNL1       -0.0003
     19 C          -8.2704  -17.5926   24.4723 C.ar    1  UNL1       -0.0023
     20 C          -3.2540  -18.1648   23.0507 C.3     1  UNL1        0.1552
     21 N          -2.2334  -17.1379   22.6585 N.3     1  UNL1       -0.2878
     22 H          -2.4719  -16.2805   23.1570 H       1  UNL1        0.1238
     23 C          -2.0597  -16.7660   21.2157 C.3     1  UNL1        0.0985
     24 C          -1.9937  -18.1841   19.0399 C.3     1  UNL1        0.0332
     25 C          -1.3251  -17.6867   20.2871 C.3     1  UNL1        0.1263
     26 O           0.0783  -18.1101   20.6056 O.3     1  UNL1       -0.3830
     27 H           0.3575  -17.7022   21.4402 H       1  UNL1        0.2104
@<TRIPOS>BOND
     1    25    24    1
     2    25    26    1
     3    25    23    1
     4    23    21    1
     5    21    20    1
     6    20     1    1
     7     1     2    2
     8     1     3   am
     9     3     4    1
    10     4     5    1
    11     5     6    1
    12     6     7   ar
    13     7     8   ar
    14     8     9   ar
    15     9    10   ar
    16    10    11    1
    17    10    12   ar
    18    12    13    1
    19    13    14    1
    20    14    15   ar
    21    15    16   ar
    22    16    17   ar
    23    17    18   ar
    24    18    19   ar
    25    13     3    1
    26    19    14   ar
    27    12     6   ar
    28    26    27    1
    29    21    22    1
@<TRIPOS>MOLECULE
*****
 27 29 0 0 0
SMALL
GASTEIGER

@<TRIPOS>ATOM
      1 C          -6.3008  -18.5544   21.8054 C.2     1  UNL1        0.2422
      2 O          -5.7199  -17.7363   22.9204 O.2     1  UNL1       -0.2733
      3 N          -7.7731  -18.4995   21.5233 N.am    1  UNL1       -0.2721
      4 C          -8.3541  -19.3176   20.4083 C.3     1  UNL1        0.0987
      5 C          -9.8263  -19.2628   20.1263 C.3     1  UNL1        0.0477
      6 C         -10.7176  -18.3899   20.9592 C.ar    1  UNL1       -0.0204
      7 C         -12.1897  -18.3351   20.6771 C.ar    1  UNL1       -0.0043
      8 C         -13.0809  -17.4622   21.5100 C.ar    1  UNL1        0.0020
      9 C         -12.5000  -16.6441   22.6250 C.ar    1  UNL1        0.0294
     10 C         -11.0278  -16.6989   22.9071 C.ar    1  UNL1        0.1377
     11 F         -10.4468  -15.8808   24.0220 F       1  UNL1       -0.2044
     12 C         -10.1366  -17.5718   22.0742 C.ar    1  UNL1        0.0235
     13 C          -8.6643  -17.6266   22.3562 C.3     1  UNL1        0.1223
     14 C          -8.0833  -16.8086   23.4712 C.ar    1  UNL1       -0.0000
     15 C          -8.2479  -17.2553   24.8937 C.ar    1  UNL1       -0.0023
     16 C          -7.6669  -16.4372   26.0087 C.ar    1  UNL1       -0.0003
     17 C          -6.9214  -15.1724   25.7012 C.ar    1  UNL1       -0.0000
     18 C          -6.7569  -14.7257   24.2788 C.ar    1  UNL1       -0.0003
     19 C          -7.3378  -15.5438   23.1638 C.ar    1  UNL1       -0.0023
     20 C          -5.4096  -19.4273   20.9725 C.3     1  UNL1        0.1552
     21 N          -4.6594  -18.8431   19.8124 N.3     1  UNL1       -0.2878
     22 H          -4.9148  -19.3909   18.9907 H       1  UNL1        0.1238
     23 C          -3.1610  -18.7810   19.8429 C.3     1  UNL1        0.0985
     24 C          -2.2267  -17.7446   22.0344 C.3     1  UNL1        0.0332
     25 C          -2.4303  -18.9343   21.1439 C.3     1  UNL1        0.1263
     26 O          -1.9032  -20.2773   21.5543 O.3     1  UNL1       -0.3830
     27 H          -2.1184  -20.9316   20.8714 H       1  UNL1        0.2104
@<TRIPOS>BOND
     1    25    24    1
     2    25    26    1
     3    25    23    1
     4    23    21    1
     5    21    20    1
     6    20     1    1
     7     1     2    2
     8     1     3   am
     9     3     4    1
    10     4     5    1
    11     5     6    1
    12     6     7   ar
    13     7     8   ar
    14     8     9   ar
    15     9    10   ar
    16    10    11    1
    17    10    12   ar
    18    12    13    1
    19    13    14    1
    20    14    15   ar
    21    15    16   ar
    22    16    17   ar
    23    17    18   ar
    24    18    19   ar
    25    13     3    1
    26    19    14   ar
    27    12     6   ar
    28    26    27    1
    29    21    22    1
@<TRIPOS>MOLECULE
*****
 27 29 0 0 0
SMALL
GASTEIGER

@<TRIPOS>ATOM
      1 C          -6.1490  -16.6764   23.5785 C.2     1  UNL1        0.2422
      2 O          -5.2041  -17.6429   22.9281 O.2     1  UNL1       -0.2733
      3 N          -7.6158  -16.7391   23.2705 N.am    1  UNL1       -0.2721
      4 C          -8.5607  -15.7726   23.9209 C.3     1  UNL1        0.0987
      5 C         -10.0274  -15.8352   23.6129 C.3     1  UNL1        0.0477
      6 C         -10.5492  -16.8644   22.6545 C.ar    1  UNL1       -0.0204
      7 C         -12.0159  -16.9271   22.3465 C.ar    1  UNL1       -0.0043
      8 C         -12.5377  -17.9562   21.3882 C.ar    1  UNL1        0.0020
      9 C         -11.5928  -18.9228   20.7378 C.ar    1  UNL1        0.0294
     10 C         -10.1261  -18.8601   21.0458 C.ar    1  UNL1        0.1377
     11 F          -9.1812  -19.8266   20.3954 F       1  UNL1       -0.2044
     12 C          -9.6043  -17.8309   22.0041 C.ar    1  UNL1        0.0235
     13 C          -8.1376  -17.7682   22.3121 C.3     1  UNL1        0.1223
     14 C          -7.1927  -18.7348   21.6618 C.ar    1  UNL1       -0.0000
     15 C          -6.5014  -18.3628   20.3835 C.ar    1  UNL1       -0.0023
     16 C          -5.5565  -19.3293   19.7331 C.ar    1  UNL1       -0.0003
     17 C          -5.3029  -20.6678   20.3610 C.ar    1  UNL1       -0.0000
     18 C          -5.9941  -21.0397   21.6392 C.ar    1  UNL1       -0.0003
     19 C          -6.9390  -20.0732   22.2896 C.ar    1  UNL1       -0.0023
     20 C          -5.6273  -15.6472   24.5369 C.3     1  UNL1        0.1552
     21 N          -5.6077  -15.9349   26.0089 N.3     1  UNL1       -0.2878
     22 H          -5.9790  -16.8772   26.1297 H       1  UNL1        0.1238
     23 C          -6.3600  -15.0482   26.9565 C.3     1  UNL1        0.0985
     24 C          -8.2499  -16.8131   27.2074 C.3     1  UNL1        0.0332
     25 C          -7.7571  -15.4057   27.3690 C.3     1  UNL1        0.1263
     26 O          -8.6615  -14.3557   27.9431 O.3     1  UNL1       -0.3830
     27 H          -8.1912  -13.5081   27.9785 H       1  UNL1        0.2104
@<TRIPOS>BOND
     1    25    24    1
     2    25    26    1
     3    25    23    1
     4    23    21    1
     5    21    20    1
     6    20     1    1
     7     1     2    2
     8     1     3   am
     9     3     4    1
    10     4     5    1
    11     5     6    1
    12     6     7   ar
    13     7     8   ar
    14     8     9   ar
    15     9    10   ar
    16    10    11    1
    17    10    12   ar
    18    12    13    1
    19    13    14    1
    20    14    15   ar
    21    15    16   ar
    22    16    17   ar
    23    17    18   ar
    24    18    19   ar
    25    13     3    1
    26    19    14   ar
    27    12     6   ar
    28    26    27    1
    29    21    22    1
@<TRIPOS>MOLECULE
*****
 27 29 0 0 0
SMALL
GASTEIGER

@<TRIPOS>ATOM
      1 C         -13.7036   -7.5015   17.8342 C.2     1  UNL1        0.2422
      2 O         -12.2446   -7.4848   17.4864 O.2     1  UNL1       -0.2733
      3 N         -14.3935   -6.2314   18.2357 N.am    1  UNL1       -0.2721
      4 C         -15.8525   -6.2482   18.5836 C.3     1  UNL1        0.0987
      5 C         -16.5424   -4.9782   18.9850 C.3     1  UNL1        0.0477
      6 C         -15.7734   -3.6914   19.0385 C.ar    1  UNL1       -0.0204
      7 C         -16.4633   -2.4215   19.4399 C.ar    1  UNL1       -0.0043
      8 C         -15.6942   -1.1348   19.4935 C.ar    1  UNL1        0.0020
      9 C         -14.2352   -1.1181   19.1456 C.ar    1  UNL1        0.0294
     10 C         -13.5453   -2.3880   18.7442 C.ar    1  UNL1        0.1377
     11 F         -12.0863   -2.3713   18.3963 F       1  UNL1       -0.2044
     12 C         -14.3143   -3.6747   18.6906 C.ar    1  UNL1        0.0235
     13 C         -13.6244   -4.9448   18.2892 C.3     1  UNL1        0.1223
     14 C         -12.1654   -4.9280   17.9413 C.ar    1  UNL1       -0.0000
     15 C         -11.1366   -5.1388   19.0124 C.ar    1  UNL1       -0.0023
     16 C          -9.6775   -5.1221   18.6645 C.ar    1  UNL1       -0.0003
     17 C          -9.2474   -4.8946   17.2456 C.ar    1  UNL1       -0.0000
     18 C         -10.2763   -4.6838   16.1746 C.ar    1  UNL1       -0.0003
     19 C         -11.7353   -4.7005   16.5225 C.ar    1  UNL1       -0.0023
     20 C         -14.4727   -8.7882   17.7807 C.3     1  UNL1        0.1552
     21 N         -14.8402   -9.4956   19.0513 N.3     1  UNL1       -0.2878
     22 H         -14.4717  -10.4439   18.9774 H       1  UNL1        0.1238
     23 C         -16.2807   -9.6206   19.4505 C.3     1  UNL1        0.0985
     24 C         -18.2676  -10.2636   17.9050 C.3     1  UNL1        0.0332
     25 C         -17.1467  -10.6682   18.8159 C.3     1  UNL1        0.1263
     26 O         -16.8917  -12.1203   19.0922 O.3     1  UNL1       -0.3830
     27 H         -16.1373  -12.2070   19.6957 H       1  UNL1        0.2104
@<TRIPOS>BOND
     1    25    24    1
     2    25    26    1
     3    25    23    1
     4    23    21    1
     5    21    20    1
     6    20     1    1
     7     1     2    2
     8     1     3   am
     9     3     4    1
    10     4     5    1
    11     5     6    1
    12     6     7   ar
    13     7     8   ar
    14     8     9   ar
    15     9    10   ar
    16    10    11    1
    17    10    12   ar
    18    12    13    1
    19    13    14    1
    20    14    15   ar
    21    15    16   ar
    22    16    17   ar
    23    17    18   ar
    24    18    19   ar
    25    13     3    1
    26    19    14   ar
    27    12     6   ar
    28    26    27    1
    29    21    22    1
@<TRIPOS>MOLECULE
*****
 27 29 0 0 0
SMALL
GASTEIGER

@<TRIPOS>ATOM
      1 C           6.0661   -3.6884   23.5672 C.2     1  UNL1        0.2422
      2 O           6.2785   -4.4482   22.2915 O.2     1  UNL1       -0.2733
      3 N           5.0342   -2.6014   23.6299 N.am    1  UNL1       -0.2721
      4 C           4.8218   -1.8417   24.9057 C.3     1  UNL1        0.0987
      5 C           3.7900   -0.7548   24.9684 C.3     1  UNL1        0.0477
      6 C           2.9706   -0.4275   23.7553 C.ar    1  UNL1       -0.0204
      7 C           1.9388    0.6594   23.8181 C.ar    1  UNL1       -0.0043
      8 C           1.1194    0.9865   22.6050 C.ar    1  UNL1        0.0020
      9 C           1.3319    0.2268   21.3292 C.ar    1  UNL1        0.0294
     10 C           2.3637   -0.8601   21.2665 C.ar    1  UNL1        0.1377
     11 F           2.5761   -1.6199   19.9907 F       1  UNL1       -0.2044
     12 C           3.1830   -1.1873   22.4795 C.ar    1  UNL1        0.0235
     13 C           4.2149   -2.2743   22.4169 C.3     1  UNL1        0.1223
     14 C           4.4273   -3.0340   21.1411 C.ar    1  UNL1       -0.0000
     15 C           5.3851   -2.5152   20.1098 C.ar    1  UNL1       -0.0023
     16 C           5.5976   -3.2750   18.8340 C.ar    1  UNL1       -0.0003
     17 C           4.8522   -4.5536   18.5895 C.ar    1  UNL1       -0.0000
     18 C           3.8944   -5.0723   19.6208 C.ar    1  UNL1       -0.0003
     19 C           3.6820   -4.3125   20.8965 C.ar    1  UNL1       -0.0023
     20 C           6.8854   -4.0156   24.7803 C.3     1  UNL1        0.1552
     21 N           6.3578   -4.9754   25.8051 N.3     1  UNL1       -0.2878
     22 H           5.9577   -4.4135   26.5565 H       1  UNL1        0.1238
     23 C           7.2810   -5.9664   26.4500 C.3     1  UNL1        0.0985
     24 C           8.3018   -7.5988   24.7057 C.3     1  UNL1        0.0332
     25 C           7.4091   -7.3500   25.8851 C.3     1  UNL1        0.1263
     26 O           6.6445   -8.4848   26.4997 O.3     1  UNL1       -0.3830
     27 H           6.1204   -8.1547   27.2462 H       1  UNL1        0.2104
@<TRIPOS>BOND
     1    25    24    1
     2    25    26    1
     3    25    23    1
     4    23    21    1
     5    21    20    1
     6    20     1    1
     7     1     2    2
     8     1     3   am
     9     3     4    1
    10     4     5    1
    11     5     6    1
    12     6     7   ar
    13     7     8   ar
    14     8     9   ar
    15     9    10   ar
    16    10    11    1
    17    10    12   ar
    18    12    13    1
    19    13    14    1
    20    14    15   ar
    21    15    16   ar
    22    16    17   ar
    23    17    18   ar
    24    18    19   ar
    25    13     3    1
    26    19    14   ar
    27    12     6   ar
    28    26    27    1
    29    21    22    1
@<TRIPOS>MOLECULE
*****
 27 29 0 0 0
SMALL
GASTEIGER

@<TRIPOS>ATOM
      1 C         -13.7485   -3.7625   17.7847 C.2     1  UNL1        0.2422
      2 O         -12.4370   -4.3691   17.3823 O.2     1  UNL1       -0.2733
      3 N         -14.8491   -4.6359   18.3101 N.am    1  UNL1       -0.2721
      4 C         -16.1607   -4.0292   18.7124 C.3     1  UNL1        0.0987
      5 C         -17.2612   -4.9025   19.2378 C.3     1  UNL1        0.0477
      6 C         -17.0503   -6.3825   19.3608 C.ar    1  UNL1       -0.0204
      7 C         -18.1509   -7.2558   19.8862 C.ar    1  UNL1       -0.0043
      8 C         -17.9399   -8.7358   20.0092 C.ar    1  UNL1        0.0020
      9 C         -16.6284   -9.3424   19.6069 C.ar    1  UNL1        0.0294
     10 C         -15.5278   -8.4691   19.0815 C.ar    1  UNL1        0.1377
     11 F         -14.2163   -9.0758   18.6792 F       1  UNL1       -0.2044
     12 C         -15.7388   -6.9892   18.9585 C.ar    1  UNL1        0.0235
     13 C         -14.6382   -6.1158   18.4331 C.3     1  UNL1        0.1223
     14 C         -13.3267   -6.7225   18.0308 C.ar    1  UNL1       -0.0000
     15 C         -12.2040   -6.8071   19.0220 C.ar    1  UNL1       -0.0023
     16 C         -10.8924   -7.4138   18.6197 C.ar    1  UNL1       -0.0003
     17 C         -10.7036   -7.9358   17.2261 C.ar    1  UNL1       -0.0000
     18 C         -11.8263   -7.8511   16.2350 C.ar    1  UNL1       -0.0003
     19 C         -13.1378   -7.2444   16.6373 C.ar    1  UNL1       -0.0023
     20 C         -13.9595   -2.2825   17.6616 C.3     1  UNL1        0.1552
     21 N         -13.3796   -1.3545   18.6875 N.3     1  UNL1       -0.2878
     22 H         -13.6315   -0.4076   18.4038 H       1  UNL1        0.1238
     23 C         -11.9019   -1.3506   18.9454 C.3     1  UNL1        0.0985
     24 C         -10.8303   -0.1267   16.9197 C.3     1  UNL1        0.0332
     25 C         -10.9398   -1.3401   17.7946 C.3     1  UNL1        0.1263
     26 O         -10.0872   -2.5430   17.5188 O.3     1  UNL1       -0.3830
     27 H         -10.2807   -3.2332   18.1724 H       1  UNL1        0.2104
@<TRIPOS>BOND
     1    25    24    1
     2    25    26    1
     3    25    23    1
     4    23    21    1
     5    21    20    1
     6    20     1    1
     7     1     2    2
     8     1     3   am
     9     3     4    1
    10     4     5    1
    11     5     6    1
    12     6     7   ar
    13     7     8   ar
    14     8     9   ar
    15     9    10   ar
    16    10    11    1
    17    10    12   ar
    18    12    13    1
    19    13    14    1
    20    14    15   ar
    21    15    16   ar
    22    16    17   ar
    23    17    18   ar
    24    18    19   ar
    25    13     3    1
    26    19    14   ar
    27    12     6   ar
    28    26    27    1
    29    21    22    1
@<TRIPOS>MOLECULE
*****
 27 29 0 0 0
SMALL
GASTEIGER

@<TRIPOS>ATOM
      1 C         -14.2779   -6.1569   18.9089 C.2     1  UNL1        0.2422
      2 O         -12.9322   -6.6348   18.4502 O.2     1  UNL1       -0.2733
      3 N         -14.5659   -4.6867   18.9848 N.am    1  UNL1       -0.2721
      4 C         -15.9117   -4.2087   19.4435 C.3     1  UNL1        0.0987
      5 C         -16.1996   -2.7386   19.5194 C.3     1  UNL1        0.0477
      6 C         -15.1418   -1.7464   19.1365 C.ar    1  UNL1       -0.0204
      7 C         -15.4298   -0.2763   19.2124 C.ar    1  UNL1       -0.0043
      8 C         -14.3720    0.7159   18.8295 C.ar    1  UNL1        0.0020
      9 C         -13.0262    0.2379   18.3708 C.ar    1  UNL1        0.0294
     10 C         -12.7382   -1.2322   18.2949 C.ar    1  UNL1        0.1377
     11 F         -11.3925   -1.7101   17.8362 F       1  UNL1       -0.2044
     12 C         -13.7960   -2.2243   18.6778 C.ar    1  UNL1        0.0235
     13 C         -13.5081   -3.6945   18.6019 C.3     1  UNL1        0.1223
     14 C         -12.1623   -4.1725   18.1432 C.ar    1  UNL1       -0.0000
     15 C         -11.9112   -4.4198   16.6851 C.ar    1  UNL1       -0.0023
     16 C         -10.5654   -4.8977   16.2264 C.ar    1  UNL1       -0.0003
     17 C          -9.4708   -5.1284   17.2257 C.ar    1  UNL1       -0.0000
     18 C          -9.7219   -4.8811   18.6837 C.ar    1  UNL1       -0.0003
     19 C         -11.0677   -4.4031   19.1424 C.ar    1  UNL1       -0.0023
     20 C         -15.3357   -7.1490   19.2918 C.3     1  UNL1        0.1552
     21 N         -16.0725   -7.9077   18.2282 N.3     1  UNL1       -0.2878
     22 H         -17.0437   -7.5979   18.2647 H       1  UNL1        0.1238
     23 C         -16.0951   -9.4074   18.2558 C.3     1  UNL1        0.0985
     24 C         -18.3531   -9.3962   19.5407 C.3     1  UNL1        0.0332
     25 C         -17.1324  -10.1271   19.0656 C.3     1  UNL1        0.1263
     26 O         -16.9491  -11.5777   19.4005 O.3     1  UNL1       -0.3830
     27 H         -16.1147  -11.8943   19.0204 H       1  UNL1        0.2104
@<TRIPOS>BOND
     1    25    24    1
     2    25    26    1
     3    25    23    1
     4    23    21    1
     5    21    20    1
     6    20     1    1
     7     1     2    2
     8     1     3   am
     9     3     4    1
    10     4     5    1
    11     5     6    1
    12     6     7   ar
    13     7     8   ar
    14     8     9   ar
    15     9    10   ar
    16    10    11    1
    17    10    12   ar
    18    12    13    1
    19    13    14    1
    20    14    15   ar
    21    15    16   ar
    22    16    17   ar
    23    17    18   ar
    24    18    19   ar
    25    13     3    1
    26    19    14   ar
    27    12     6   ar
    28    26    27    1
    29    21    22    1
