@<TRIPOS>MOLECULE
*****
 38 42 0 0 0
SMALL
GASTEIGER

@<TRIPOS>ATOM
      1 N          -3.7414    3.5042   23.0402 N.3     1  UNL1       -0.2722
      2 C          -4.9212    3.3513   22.1266 C.3     1  UNL1        0.0721
      3 C          -4.7491    3.5158   20.6456 C.3     1  UNL1        0.0165
      4 C          -5.9289    3.3629   19.7320 C.3     1  UNL1        0.0014
      5 C          -5.7568    3.5274   18.2510 C.3     1  UNL1        0.0000
      6 C          -4.4050    3.8448   17.6837 C.3     1  UNL1        0.0000
      7 C          -3.2253    3.9977   18.5973 C.3     1  UNL1        0.0006
      8 C          -3.3973    3.8332   20.0782 C.3     1  UNL1        0.0113
      9 C          -2.2175    3.9861   20.9920 C.3     1  UNL1        0.0927
     10 C          -2.3896    3.8216   22.4729 C.3     1  UNL1        0.0812
     11 C          -0.8657    4.3034   20.4246 C.2     1  UNL1        0.2266
     12 O          -0.4565    5.7314   20.2156 O.2     1  UNL1       -0.2748
     13 N           0.0768    3.1930   20.0663 N.am    1  UNL1       -0.2760
     14 C           1.4286    3.5104   19.4989 C.3     1  UNL1        0.1148
     15 C           2.3712    2.3998   19.1406 C.3     1  UNL1        0.1123
     16 N           1.9619    0.9720   19.3496 N.pl3   1  UNL1       -0.3040
     17 C           0.6101    0.6546   19.9169 C.3     1  UNL1        0.1123
     18 C          -0.3324    1.7651   20.2753 C.3     1  UNL1        0.1148
     19 C           2.9045   -0.1385   18.9913 C.ar    1  UNL1        0.0503
     20 C           3.8981    0.0493   17.8834 C.ar    1  UNL1        0.0170
     21 C           4.8407   -1.0612   17.5251 C.ar    1  UNL1        0.0332
     22 C           4.7896   -2.3595   18.2746 C.ar    1  UNL1        0.1675
     23 F           5.7321   -3.4699   17.9163 F       1  UNL1       -0.2018
     24 C           3.7959   -2.5473   19.3825 C.ar    1  UNL1        0.1686
     25 F           3.7448   -3.8456   20.1320 F       1  UNL1       -0.2018
     26 C           2.8534   -1.4368   19.7408 C.ar    1  UNL1        0.0465
     27 C          -3.9134    3.3397   24.5213 C.3     1  UNL1        0.0724
     28 C          -4.5251    4.4432   25.3324 C.3     1  UNL1        0.0204
     29 C          -4.4317    4.4142   26.8292 C.3     1  UNL1        0.0018
     30 C          -5.2302    5.5758   24.6468 C.3     1  UNL1        0.0293
     31 C          -9.7244    5.7948   24.7077 C.ar    1  UNL1        0.2250
     32 C          -8.9132    6.8307   25.4281 C.ar    1  UNL1        0.0574
     33 C          -7.4151    6.7577   25.4078 C.ar    1  UNL1        0.0021
     34 C          -6.7282    5.6489   24.6671 C.ar    1  UNL1       -0.0028
     35 C          -7.5394    4.6130   23.9467 C.ar    1  UNL1        0.0978
     36 N          -9.0375    4.6860   23.9670 N.ar    1  UNL1       -0.2105
     37 C         -12.0327    4.6134   24.8698 C.3     1  UNL1        0.2542
     38 O         -11.2224    5.8679   24.7280 O.3     1  UNL1       -0.4561
@<TRIPOS>BOND
     1    37    38    1
     2    38    31    1
     3    31    32   ar
     4    32    33   ar
     5    33    34   ar
     6    34    30    1
     7    30    28    1
     8    28    29    1
     9    28    27    1
    10    27     1    1
    11     1     2    1
    12     3     2    1
    13     3     4    1
    14     4     5    1
    15     5     6    1
    16     6     7    1
    17     8     7    1
    18     8     9    1
    19     9    11    1
    20    11    12    2
    21    11    13   am
    22    13    14    1
    23    14    15    1
    24    15    16    1
    25    16    19    1
    26    19    20   ar
    27    20    21   ar
    28    21    22   ar
    29    22    23    1
    30    22    24   ar
    31    24    25    1
    32    24    26   ar
    33    16    17    1
    34    17    18    1
    35     9    10    1
    36    34    35   ar
    37    35    36   ar
    38    36    31   ar
    39    10     1    1
    40     8     3    1
    41    18    13    1
    42    26    19   ar
@<TRIPOS>MOLECULE
*****
 38 42 0 0 0
SMALL
GASTEIGER

@<TRIPOS>ATOM
      1 N          -3.0863    3.7807   23.8053 N.3     1  UNL1       -0.2722
      2 C          -4.4172    3.6060   23.1359 C.3     1  UNL1        0.0721
      3 C          -4.5194    3.6733   21.6408 C.3     1  UNL1        0.0165
      4 C          -5.8503    3.4986   20.9714 C.3     1  UNL1        0.0014
      5 C          -5.9524    3.5659   19.4765 C.3     1  UNL1        0.0000
      6 C          -4.7237    3.8078   18.6509 C.3     1  UNL1        0.0000
      7 C          -3.3927    3.9825   19.3203 C.3     1  UNL1        0.0006
      8 C          -3.2906    3.9152   20.8152 C.3     1  UNL1        0.0113
      9 C          -1.9596    4.0899   21.4847 C.3     1  UNL1        0.0927
     10 C          -1.8575    4.0226   22.9797 C.3     1  UNL1        0.0812
     11 C          -0.7309    4.3318   20.6591 C.2     1  UNL1        0.2266
     12 O          -0.3821    5.7242   20.2236 O.2     1  UNL1       -0.2748
     13 N           0.1491    3.1814   20.2690 N.am    1  UNL1       -0.2760
     14 C           1.3779    3.4233   19.4435 C.3     1  UNL1        0.1148
     15 C           2.2579    2.2729   19.0534 C.3     1  UNL1        0.1123
     16 N           1.9091    0.8805   19.4889 N.pl3   1  UNL1       -0.3040
     17 C           0.6803    0.6386   20.3145 C.3     1  UNL1        0.1123
     18 C          -0.1997    1.7890   20.7046 C.3     1  UNL1        0.1148
     19 C           2.7891   -0.2698   19.0989 C.ar    1  UNL1        0.0503
     20 C           3.6287   -0.1850   17.8588 C.ar    1  UNL1        0.0170
     21 C           4.5087   -1.3355   17.4687 C.ar    1  UNL1        0.0332
     22 C           4.5491   -2.5707   18.3188 C.ar    1  UNL1        0.1675
     23 F           5.4290   -3.7211   17.9287 F       1  UNL1       -0.2018
     24 C           3.7094   -2.6555   19.5589 C.ar    1  UNL1        0.1686
     25 F           3.7498   -3.8907   20.4089 F       1  UNL1       -0.2018
     26 C           2.8295   -1.5051   19.9489 C.ar    1  UNL1        0.0465
     27 C          -2.9841    3.7134   25.3003 C.3     1  UNL1        0.0724
     28 C          -1.6590    3.4453   25.9502 C.3     1  UNL1        0.0204
     29 C          -1.0318    4.4846   26.8312 C.3     1  UNL1        0.0018
     30 C          -0.9612    2.1377   25.7190 C.3     1  UNL1        0.0293
     31 C           1.0978    0.0517   29.1335 C.ar    1  UNL1        0.2250
     32 C          -0.3925    0.2215   29.1475 C.ar    1  UNL1        0.0574
     33 C          -1.0789    0.9168   28.0093 C.ar    1  UNL1        0.0021
     34 C          -0.2749    1.4424   26.8572 C.ar    1  UNL1       -0.0028
     35 C           1.2154    1.2726   26.8432 C.ar    1  UNL1        0.0978
     36 N           1.9018    0.5773   27.9813 N.ar    1  UNL1       -0.2105
     37 C           2.7444    0.1114   31.1424 C.3     1  UNL1        0.2542
     38 O           1.7841   -0.6436   30.2717 O.3     1  UNL1       -0.4561
@<TRIPOS>BOND
     1    37    38    1
     2    38    31    1
     3    31    32   ar
     4    32    33   ar
     5    33    34   ar
     6    34    30    1
     7    30    28    1
     8    28    29    1
     9    28    27    1
    10    27     1    1
    11     1     2    1
    12     3     2    1
    13     3     4    1
    14     4     5    1
    15     5     6    1
    16     6     7    1
    17     8     7    1
    18     8     9    1
    19     9    11    1
    20    11    12    2
    21    11    13   am
    22    13    14    1
    23    14    15    1
    24    15    16    1
    25    16    19    1
    26    19    20   ar
    27    20    21   ar
    28    21    22   ar
    29    22    23    1
    30    22    24   ar
    31    24    25    1
    32    24    26   ar
    33    16    17    1
    34    17    18    1
    35     9    10    1
    36    34    35   ar
    37    35    36   ar
    38    36    31   ar
    39    10     1    1
    40     8     3    1
    41    18    13    1
    42    26    19   ar
@<TRIPOS>MOLECULE
*****
 38 42 0 0 0
SMALL
GASTEIGER

@<TRIPOS>ATOM
      1 N          -4.0691    3.5422   23.0626 N.3     1  UNL1       -0.2722
      2 C          -5.1220    3.4155   22.0018 C.3     1  UNL1        0.0721
      3 C          -4.7549    3.5821   20.5569 C.3     1  UNL1        0.0165
      4 C          -5.8077    3.4553   19.4962 C.3     1  UNL1        0.0014
      5 C          -5.4406    3.6219   18.0514 C.3     1  UNL1        0.0000
      6 C          -4.0205    3.9151   17.6674 C.3     1  UNL1        0.0000
      7 C          -2.9676    4.0419   18.7282 C.3     1  UNL1        0.0006
      8 C          -3.3348    3.8753   20.1730 C.3     1  UNL1        0.0113
      9 C          -2.2819    4.0021   21.2339 C.3     1  UNL1        0.0927
     10 C          -2.6491    3.8355   22.6786 C.3     1  UNL1        0.0812
     11 C          -0.8618    4.2953   20.8499 C.2     1  UNL1        0.2266
     12 O          -0.3536    5.7064   20.8775 O.2     1  UNL1       -0.2748
     13 N           0.0499    3.1776   20.4384 N.am    1  UNL1       -0.2760
     14 C           1.4700    3.4709   20.0544 C.3     1  UNL1        0.1148
     15 C           2.3818    2.3531   19.6429 C.3     1  UNL1        0.1123
     16 N           1.8735    0.9422   19.6153 N.pl3   1  UNL1       -0.3040
     17 C           0.4534    0.6489   19.9993 C.3     1  UNL1        0.1123
     18 C          -0.4583    1.7666   20.4108 C.3     1  UNL1        0.1148
     19 C           2.7853   -0.1755   19.2038 C.ar    1  UNL1        0.0503
     20 C           3.6575   -0.0246   17.9929 C.ar    1  UNL1        0.0170
     21 C           4.5694   -1.1424   17.5814 C.ar    1  UNL1        0.0332
     22 C           4.6089   -2.4110   18.3808 C.ar    1  UNL1        0.1675
     23 F           5.5206   -3.5286   17.9693 F       1  UNL1       -0.2018
     24 C           3.7366   -2.5618   19.5917 C.ar    1  UNL1        0.1686
     25 F           3.7761   -3.8304   20.3912 F       1  UNL1       -0.2018
     26 C           2.8248   -1.4442   20.0033 C.ar    1  UNL1        0.0465
     27 C          -4.4363    3.3757   24.5075 C.3     1  UNL1        0.0724
     28 C          -3.7966    4.2453   25.5489 C.3     1  UNL1        0.0204
     29 C          -2.7800    3.6667   26.4878 C.3     1  UNL1        0.0018
     30 C          -4.1736    5.6935   25.6514 C.3     1  UNL1        0.0293
     31 C          -6.8096    7.0996   29.0166 C.ar    1  UNL1        0.2250
     32 C          -7.4012    6.3345   27.8700 C.ar    1  UNL1        0.0574
     33 C          -6.5225    5.8657   26.7483 C.ar    1  UNL1        0.0021
     34 C          -5.0523    6.1622   26.7731 C.ar    1  UNL1       -0.0028
     35 C          -4.4608    6.9274   27.9197 C.ar    1  UNL1        0.0978
     36 N          -5.3394    7.3961   29.0414 N.ar    1  UNL1       -0.2105
     37 C          -7.4398    7.0868   31.5370 C.3     1  UNL1        0.2542
     38 O          -7.6883    7.5683   30.1382 O.3     1  UNL1       -0.4561
@<TRIPOS>BOND
     1    37    38    1
     2    38    31    1
     3    31    32   ar
     4    32    33   ar
     5    33    34   ar
     6    34    30    1
     7    30    28    1
     8    28    29    1
     9    28    27    1
    10    27     1    1
    11     1     2    1
    12     3     2    1
    13     3     4    1
    14     4     5    1
    15     5     6    1
    16     6     7    1
    17     8     7    1
    18     8     9    1
    19     9    11    1
    20    11    12    2
    21    11    13   am
    22    13    14    1
    23    14    15    1
    24    15    16    1
    25    16    19    1
    26    19    20   ar
    27    20    21   ar
    28    21    22   ar
    29    22    23    1
    30    22    24   ar
    31    24    25    1
    32    24    26   ar
    33    16    17    1
    34    17    18    1
    35     9    10    1
    36    34    35   ar
    37    35    36   ar
    38    36    31   ar
    39    10     1    1
    40     8     3    1
    41    18    13    1
    42    26    19   ar
@<TRIPOS>MOLECULE
*****
 38 42 0 0 0
SMALL
GASTEIGER

@<TRIPOS>ATOM
      1 N           4.9428   -1.4829   18.0504 N.3     1  UNL1       -0.2722
      2 C           5.8978   -0.4253   17.5821 C.3     1  UNL1        0.0721
      3 C           5.5062    1.0213   17.6484 C.3     1  UNL1        0.0165
      4 C           6.4612    2.0790   17.1801 C.3     1  UNL1        0.0014
      5 C           6.0696    3.5254   17.2464 C.3     1  UNL1        0.0000
      6 C           4.7231    3.9142   17.7809 C.3     1  UNL1        0.0000
      7 C           3.7681    2.8565   18.2492 C.3     1  UNL1        0.0006
      8 C           4.1597    1.4100   18.1830 C.3     1  UNL1        0.0113
      9 C           3.2047    0.3523   18.6513 C.3     1  UNL1        0.0927
     10 C           3.5963   -1.0942   18.5850 C.3     1  UNL1        0.0812
     11 C           1.8582    0.7410   19.1859 C.2     1  UNL1        0.2266
     12 O           0.6891    0.8664   18.2544 O.2     1  UNL1       -0.2748
     13 N           1.6808    1.0045   20.6518 N.am    1  UNL1       -0.2760
     14 C           0.3343    1.3932   21.1864 C.3     1  UNL1        0.1148
     15 C           0.1569    1.6567   22.6524 C.3     1  UNL1        0.1123
     16 N           1.3259    1.5314   23.5838 N.pl3   1  UNL1       -0.3040
     17 C           2.6725    1.1426   23.0492 C.3     1  UNL1        0.1123
     18 C           2.8499    0.8792   21.5833 C.3     1  UNL1        0.1148
     19 C           1.1485    1.7948   25.0498 C.ar    1  UNL1        0.0503
     20 C           2.2464    2.4528   25.8318 C.ar    1  UNL1        0.0170
     21 C           2.0689    2.7162   27.2979 C.ar    1  UNL1        0.0332
     22 C           0.7936    2.3217   27.9817 C.ar    1  UNL1        0.1675
     23 F           0.6161    2.5851   29.4477 F       1  UNL1       -0.2018
     24 C          -0.3044    1.6637   27.1997 C.ar    1  UNL1        0.1686
     25 F          -1.5797    1.2692   27.8835 F       1  UNL1       -0.2018
     26 C          -0.1269    1.4003   25.7337 C.ar    1  UNL1        0.0465
     27 C           5.3344   -2.9295   17.9842 C.3     1  UNL1        0.0724
     28 C           5.0845   -3.8286   19.1585 C.3     1  UNL1        0.0204
     29 C           3.8731   -4.7128   19.1816 C.3     1  UNL1        0.0018
     30 C           6.0461   -3.8436   20.3096 C.3     1  UNL1        0.0293
     31 C           5.2661   -1.2821   23.9263 C.ar    1  UNL1        0.2250
     32 C           4.7240   -2.6794   23.8659 C.ar    1  UNL1        0.0574
     33 C           4.9840   -3.5333   22.6603 C.ar    1  UNL1        0.0021
     34 C           5.7861   -2.9898   21.5152 C.ar    1  UNL1       -0.0028
     35 C           6.3281   -1.5924   21.5757 C.ar    1  UNL1        0.0978
     36 N           6.0681   -0.7386   22.7812 N.ar    1  UNL1       -0.2105
     37 C           3.9963   -0.8606   26.1535 C.3     1  UNL1        0.2542
     38 O           5.0061   -0.4283   25.1319 O.3     1  UNL1       -0.4561
@<TRIPOS>BOND
     1    37    38    1
     2    38    31    1
     3    31    32   ar
     4    32    33   ar
     5    33    34   ar
     6    34    30    1
     7    30    28    1
     8    28    29    1
     9    28    27    1
    10    27     1    1
    11     1     2    1
    12     3     2    1
    13     3     4    1
    14     4     5    1
    15     5     6    1
    16     6     7    1
    17     8     7    1
    18     8     9    1
    19     9    11    1
    20    11    12    2
    21    11    13   am
    22    13    14    1
    23    14    15    1
    24    15    16    1
    25    16    19    1
    26    19    20   ar
    27    20    21   ar
    28    21    22   ar
    29    22    23    1
    30    22    24   ar
    31    24    25    1
    32    24    26   ar
    33    16    17    1
    34    17    18    1
    35     9    10    1
    36    34    35   ar
    37    35    36   ar
    38    36    31   ar
    39    10     1    1
    40     8     3    1
    41    18    13    1
    42    26    19   ar
@<TRIPOS>MOLECULE
*****
 38 42 0 0 0
SMALL
GASTEIGER

@<TRIPOS>ATOM
      1 N          -2.6586    3.9235   24.6685 N.3     1  UNL1       -0.2722
      2 C          -3.9793    3.6941   23.9955 C.3     1  UNL1        0.0721
      3 C          -4.0686    3.6968   22.4982 C.3     1  UNL1        0.0165
      4 C          -5.3893    3.4675   21.8252 C.3     1  UNL1        0.0014
      5 C          -5.4786    3.4701   20.3278 C.3     1  UNL1        0.0000
      6 C          -4.2470    3.7020   19.5035 C.3     1  UNL1        0.0000
      7 C          -2.9263    3.9313   20.1765 C.3     1  UNL1        0.0006
      8 C          -2.8370    3.9287   21.6738 C.3     1  UNL1        0.0113
      9 C          -1.5162    4.1580   22.3469 C.3     1  UNL1        0.0927
     10 C          -1.4270    4.1554   23.8442 C.3     1  UNL1        0.0812
     11 C          -0.2847    4.3900   21.5226 C.2     1  UNL1        0.2266
     12 O           0.1526    5.7893   21.2049 O.2     1  UNL1       -0.2748
     13 N           0.5095    3.2227   21.0159 N.am    1  UNL1       -0.2760
     14 C           1.7410    3.4547   20.1916 C.3     1  UNL1        0.1148
     15 C           2.5353    2.2874   19.6849 C.3     1  UNL1        0.1123
     16 N           2.0979    0.8882   20.0026 N.pl3   1  UNL1       -0.3040
     17 C           0.8664    0.6562   20.8269 C.3     1  UNL1        0.1123
     18 C           0.0722    1.8235   21.3336 C.3     1  UNL1        0.1148
     19 C           2.8921   -0.2791   19.4959 C.ar    1  UNL1        0.0503
     20 C           3.5849   -0.1951   18.1682 C.ar    1  UNL1        0.0170
     21 C           4.3791   -1.3625   17.6615 C.ar    1  UNL1        0.0332
     22 C           4.4805   -2.6136   18.4826 C.ar    1  UNL1        0.1675
     23 F           5.2747   -3.7809   17.9759 F       1  UNL1       -0.2018
     24 C           3.7877   -2.6976   19.8104 C.ar    1  UNL1        0.1686
     25 F           3.8891   -3.9487   20.6315 F       1  UNL1       -0.2018
     26 C           2.9935   -1.5303   20.3170 C.ar    1  UNL1        0.0465
     27 C          -2.5693    3.9208   26.1659 C.3     1  UNL1        0.0724
     28 C          -1.3249    3.4269   26.8422 C.3     1  UNL1        0.0204
     29 C          -0.3491    4.4058   27.4250 C.3     1  UNL1        0.0018
     30 C          -1.0562    1.9541   26.9357 C.3     1  UNL1        0.0293
     31 C           2.8505    0.2812   25.4562 C.ar    1  UNL1        0.2250
     32 C           1.7741    0.6495   24.4786 C.ar    1  UNL1        0.0574
     33 C           0.4718    1.2072   24.9718 C.ar    1  UNL1        0.0021
     34 C           0.2460    1.3965   26.4426 C.ar    1  UNL1       -0.0028
     35 C           1.3224    1.0281   27.4202 C.ar    1  UNL1        0.0978
     36 N           2.6246    0.4705   26.9270 N.ar    1  UNL1       -0.2105
     37 C           4.1599   -1.4415   24.0182 C.3     1  UNL1        0.2542
     38 O           4.1527   -0.2765   24.9631 O.3     1  UNL1       -0.4561
@<TRIPOS>BOND
     1    37    38    1
     2    38    31    1
     3    31    32   ar
     4    32    33   ar
     5    33    34   ar
     6    34    30    1
     7    30    28    1
     8    28    29    1
     9    28    27    1
    10    27     1    1
    11     1     2    1
    12     3     2    1
    13     3     4    1
    14     4     5    1
    15     5     6    1
    16     6     7    1
    17     8     7    1
    18     8     9    1
    19     9    11    1
    20    11    12    2
    21    11    13   am
    22    13    14    1
    23    14    15    1
    24    15    16    1
    25    16    19    1
    26    19    20   ar
    27    20    21   ar
    28    21    22   ar
    29    22    23    1
    30    22    24   ar
    31    24    25    1
    32    24    26   ar
    33    16    17    1
    34    17    18    1
    35     9    10    1
    36    34    35   ar
    37    35    36   ar
    38    36    31   ar
    39    10     1    1
    40     8     3    1
    41    18    13    1
    42    26    19   ar
@<TRIPOS>MOLECULE
*****
 38 42 0 0 0
SMALL
GASTEIGER

@<TRIPOS>ATOM
      1 N           6.9031   -2.7557   20.7268 N.3     1  UNL1       -0.2722
      2 C           7.1992   -4.0456   21.4328 C.3     1  UNL1        0.0721
      3 C           7.3473   -4.0669   22.9254 C.3     1  UNL1        0.0165
      4 C           7.6433   -5.3567   23.6314 C.3     1  UNL1        0.0014
      5 C           7.7914   -5.3779   25.1239 C.3     1  UNL1        0.0000
      6 C           7.6434   -4.1093   25.9103 C.3     1  UNL1        0.0000
      7 C           7.3473   -2.8194   25.2043 C.3     1  UNL1        0.0006
      8 C           7.1992   -2.7982   23.7119 C.3     1  UNL1        0.0113
      9 C           6.9032   -1.5082   23.0058 C.3     1  UNL1        0.0927
     10 C           6.7551   -1.4870   21.5133 C.3     1  UNL1        0.0812
     11 C           6.7551   -0.2396   23.7923 C.2     1  UNL1        0.2266
     12 O           7.9660    0.5784   24.1312 O.2     1  UNL1       -0.2748
     13 N           5.3963    0.2112   24.2398 N.am    1  UNL1       -0.2760
     14 C           5.2483    1.4798   25.0263 C.3     1  UNL1        0.1148
     15 C           3.8894    1.9306   25.4739 C.3     1  UNL1        0.1123
     16 N           2.6786    1.1127   25.1350 N.pl3   1  UNL1       -0.3040
     17 C           2.8266   -0.1560   24.3485 C.3     1  UNL1        0.1123
     18 C           4.1854   -0.6068   23.9009 C.3     1  UNL1        0.1148
     19 C           1.3197    1.5634   25.5826 C.ar    1  UNL1        0.0503
     20 C           0.4643    2.3889   24.6678 C.ar    1  UNL1        0.0170
     21 C          -0.8946    2.8396   25.1154 C.ar    1  UNL1        0.0332
     22 C          -1.3980    2.4649   26.4778 C.ar    1  UNL1        0.1675
     23 F          -2.7568    2.9157   26.9253 F       1  UNL1       -0.2018
     24 C          -0.5426    1.6394   27.3926 C.ar    1  UNL1        0.1686
     25 F          -1.0460    1.2647   28.7549 F       1  UNL1       -0.2018
     26 C           0.8163    1.1887   26.9450 C.ar    1  UNL1        0.0465
     27 C           6.7551   -2.7344   19.2342 C.3     1  UNL1        0.0724
     28 C           5.3953   -2.8596   18.6136 C.3     1  UNL1        0.0204
     29 C           4.6863   -4.1814   18.6208 C.3     1  UNL1        0.0018
     30 C           4.7444   -1.6629   17.9857 C.3     1  UNL1        0.0293
     31 C           1.0322    0.1003   19.8188 C.ar    1  UNL1        0.2250
     32 C           1.8547   -0.8868   20.5929 C.ar    1  UNL1        0.0574
     33 C           3.0921   -1.4745   19.9818 C.ar    1  UNL1        0.0021
     34 C           3.5070   -1.0752   18.5967 C.ar    1  UNL1       -0.0028
     35 C           2.6844   -0.0881   17.8227 C.ar    1  UNL1        0.0978
     36 N           1.4470    0.4996   18.4338 N.ar    1  UNL1       -0.2105
     37 C          -0.1793    2.0823   20.9825 C.3     1  UNL1        0.2542
     38 O          -0.2052    0.6880   20.4299 O.3     1  UNL1       -0.4561
@<TRIPOS>BOND
     1    37    38    1
     2    38    31    1
     3    31    32   ar
     4    32    33   ar
     5    33    34   ar
     6    34    30    1
     7    30    28    1
     8    28    29    1
     9    28    27    1
    10    27     1    1
    11     1     2    1
    12     3     2    1
    13     3     4    1
    14     4     5    1
    15     5     6    1
    16     6     7    1
    17     8     7    1
    18     8     9    1
    19     9    11    1
    20    11    12    2
    21    11    13   am
    22    13    14    1
    23    14    15    1
    24    15    16    1
    25    16    19    1
    26    19    20   ar
    27    20    21   ar
    28    21    22   ar
    29    22    23    1
    30    22    24   ar
    31    24    25    1
    32    24    26   ar
    33    16    17    1
    34    17    18    1
    35     9    10    1
    36    34    35   ar
    37    35    36   ar
    38    36    31   ar
    39    10     1    1
    40     8     3    1
    41    18    13    1
    42    26    19   ar
@<TRIPOS>MOLECULE
*****
 38 42 0 0 0
SMALL
GASTEIGER

@<TRIPOS>ATOM
      1 N           7.0784   -5.2718   28.0471 N.3     1  UNL1       -0.2722
      2 C           7.4976   -6.5400   27.3646 C.3     1  UNL1        0.0721
      3 C           8.0715   -6.4919   25.9794 C.3     1  UNL1        0.0165
      4 C           8.4907   -7.7601   25.2969 C.3     1  UNL1        0.0014
      5 C           9.0645   -7.7120   23.9119 C.3     1  UNL1        0.0000
      6 C           9.2191   -6.3957   23.2094 C.3     1  UNL1        0.0000
      7 C           8.7999   -5.1275   23.8919 C.3     1  UNL1        0.0006
      8 C           8.2261   -5.1756   25.2770 C.3     1  UNL1        0.0113
      9 C           7.8068   -3.9074   25.9596 C.3     1  UNL1        0.0927
     10 C           7.2330   -3.9555   27.3446 C.3     1  UNL1        0.0812
     11 C           7.9614   -2.5911   25.2571 C.2     1  UNL1        0.2266
     12 O           9.1362   -1.7104   25.5644 O.2     1  UNL1       -0.2748
     13 N           6.9413   -2.1555   24.2474 N.am    1  UNL1       -0.2760
     14 C           7.0959   -0.8392   23.5449 C.3     1  UNL1        0.1148
     15 C           6.0758   -0.4036   22.5351 C.3     1  UNL1        0.1123
     16 N           4.9011   -1.2843   22.2279 N.pl3   1  UNL1       -0.3040
     17 C           4.7465   -2.6006   22.9303 C.3     1  UNL1        0.1123
     18 C           5.7666   -3.0362   23.9401 C.3     1  UNL1        0.1148
     19 C           3.8810   -0.8487   21.2181 C.ar    1  UNL1        0.0503
     20 C           2.4783   -0.5430   21.6529 C.ar    1  UNL1        0.0170
     21 C           1.4582   -0.1073   20.6431 C.ar    1  UNL1        0.0332
     22 C           1.8408    0.0225   19.1986 C.ar    1  UNL1        0.1675
     23 F           0.8207    0.4581   18.1888 F       1  UNL1       -0.2018
     24 C           3.2434   -0.2833   18.7638 C.ar    1  UNL1        0.1686
     25 F           3.6260   -0.1534   17.3192 F       1  UNL1       -0.2018
     26 C           4.2635   -0.7189   19.7735 C.ar    1  UNL1        0.0465
     27 C           6.5046   -5.3199   29.4322 C.3     1  UNL1        0.0724
     28 C           7.3685   -4.9918   30.6137 C.3     1  UNL1        0.0204
     29 C           8.1192   -6.0819   31.3196 C.3     1  UNL1        0.0018
     30 C           7.4817   -3.5738   31.0894 C.3     1  UNL1        0.0293
     31 C           3.7819   -1.0555   31.5581 C.ar    1  UNL1        0.2250
     32 C           4.6255   -0.9267   30.3245 C.ar    1  UNL1        0.0574
     33 C           5.8588   -1.7661   30.1682 C.ar    1  UNL1        0.0021
     34 C           6.2485   -2.7343   31.2456 C.ar    1  UNL1       -0.0028
     35 C           5.4048   -2.8631   32.4792 C.ar    1  UNL1        0.0978
     36 N           4.1715   -2.0237   32.6354 N.ar    1  UNL1       -0.2105
     37 C           2.6142    1.0807   32.4653 C.3     1  UNL1        0.2542
     38 O           2.5486   -0.2161   31.7143 O.3     1  UNL1       -0.4561
@<TRIPOS>BOND
     1    37    38    1
     2    38    31    1
     3    31    32   ar
     4    32    33   ar
     5    33    34   ar
     6    34    30    1
     7    30    28    1
     8    28    29    1
     9    28    27    1
    10    27     1    1
    11     1     2    1
    12     3     2    1
    13     3     4    1
    14     4     5    1
    15     5     6    1
    16     6     7    1
    17     8     7    1
    18     8     9    1
    19     9    11    1
    20    11    12    2
    21    11    13   am
    22    13    14    1
    23    14    15    1
    24    15    16    1
    25    16    19    1
    26    19    20   ar
    27    20    21   ar
    28    21    22   ar
    29    22    23    1
    30    22    24   ar
    31    24    25    1
    32    24    26   ar
    33    16    17    1
    34    17    18    1
    35     9    10    1
    36    34    35   ar
    37    35    36   ar
    38    36    31   ar
    39    10     1    1
    40     8     3    1
    41    18    13    1
    42    26    19   ar
@<TRIPOS>MOLECULE
*****
 38 42 0 0 0
SMALL
GASTEIGER

@<TRIPOS>ATOM
      1 N           1.1238    2.5602   23.8335 N.3     1  UNL1       -0.2722
      2 C           0.4720    1.8243   22.7005 C.3     1  UNL1        0.0721
      3 C           1.2518    0.8095   21.9180 C.3     1  UNL1        0.0165
      4 C           0.6001    0.0736   20.7851 C.3     1  UNL1        0.0014
      5 C           1.3799   -0.9411   20.0026 C.3     1  UNL1        0.0000
      6 C           2.8115   -1.2199   20.3532 C.3     1  UNL1        0.0000
      7 C           3.4632   -0.4840   21.4861 C.3     1  UNL1        0.0006
      8 C           2.6834    0.5307   22.2685 C.3     1  UNL1        0.0113
      9 C           3.3352    1.2667   23.4016 C.3     1  UNL1        0.0927
     10 C           2.5553    2.2814   24.1840 C.3     1  UNL1        0.0812
     11 C           4.7667    0.9879   23.7521 C.2     1  UNL1        0.2266
     12 O           5.8702    1.6529   22.9838 O.2     1  UNL1       -0.2748
     13 N           5.0948    0.0441   24.8709 N.am    1  UNL1       -0.2760
     14 C           6.5264   -0.2347   25.2214 C.3     1  UNL1        0.1148
     15 C           6.8545   -1.1785   26.3402 C.3     1  UNL1        0.1123
     16 N           5.7511   -1.8434   27.1084 N.pl3   1  UNL1       -0.3040
     17 C           4.3195   -1.5646   26.7579 C.3     1  UNL1        0.1123
     18 C           3.9914   -0.6209   25.6391 C.3     1  UNL1        0.1148
     19 C           6.0792   -2.7872   28.2272 C.ar    1  UNL1        0.0503
     20 C           6.2940   -4.2438   27.9409 C.ar    1  UNL1        0.0170
     21 C           6.6222   -5.1876   29.0598 C.ar    1  UNL1        0.0332
     22 C           6.7354   -4.6747   30.4647 C.ar    1  UNL1        0.1675
     23 F           7.0636   -5.6184   31.5835 F       1  UNL1       -0.2018
     24 C           6.5206   -3.2180   30.7510 C.ar    1  UNL1        0.1686
     25 F           6.6339   -2.7051   32.1560 F       1  UNL1       -0.2018
     26 C           6.1925   -2.2742   29.6322 C.ar    1  UNL1        0.0465
     27 C           0.3439    3.5749   24.6159 C.3     1  UNL1        0.0724
     28 C          -0.6622    3.1256   25.6336 C.3     1  UNL1        0.0204
     29 C          -1.6690    4.0980   26.1729 C.3     1  UNL1        0.0018
     30 C          -0.6616    1.7040   26.1121 C.3     1  UNL1        0.0293
     31 C           1.4165    0.6239   29.9546 C.ar    1  UNL1        0.2250
     32 C           2.1956    1.2307   28.8255 C.ar    1  UNL1        0.0574
     33 C           1.5029    1.5907   27.5446 C.ar    1  UNL1        0.0021
     34 C           0.0311    1.3440   27.3929 C.ar    1  UNL1       -0.0028
     35 C          -0.7480    0.7372   28.5220 C.ar    1  UNL1        0.0978
     36 N          -0.0553    0.3772   29.8028 N.ar    1  UNL1       -0.2105
     37 C           3.1935   -0.7727   31.2360 C.3     1  UNL1        0.2542
     38 O           2.1092    0.2639   31.2354 O.3     1  UNL1       -0.4561
@<TRIPOS>BOND
     1    37    38    1
     2    38    31    1
     3    31    32   ar
     4    32    33   ar
     5    33    34   ar
     6    34    30    1
     7    30    28    1
     8    28    29    1
     9    28    27    1
    10    27     1    1
    11     1     2    1
    12     3     2    1
    13     3     4    1
    14     4     5    1
    15     5     6    1
    16     6     7    1
    17     8     7    1
    18     8     9    1
    19     9    11    1
    20    11    12    2
    21    11    13   am
    22    13    14    1
    23    14    15    1
    24    15    16    1
    25    16    19    1
    26    19    20   ar
    27    20    21   ar
    28    21    22   ar
    29    22    23    1
    30    22    24   ar
    31    24    25    1
    32    24    26   ar
    33    16    17    1
    34    17    18    1
    35     9    10    1
    36    34    35   ar
    37    35    36   ar
    38    36    31   ar
    39    10     1    1
    40     8     3    1
    41    18    13    1
    42    26    19   ar
@<TRIPOS>MOLECULE
*****
 38 42 0 0 0
SMALL
GASTEIGER

@<TRIPOS>ATOM
      1 N          -1.2617    3.5132   26.0644 N.3     1  UNL1       -0.2722
      2 C          -2.7365    3.3335   25.8585 C.3     1  UNL1        0.0721
      3 C          -3.3206    3.4446   24.4813 C.3     1  UNL1        0.0165
      4 C          -4.7954    3.2649   24.2754 C.3     1  UNL1        0.0014
      5 C          -5.3794    3.3760   22.8983 C.3     1  UNL1        0.0000
      6 C          -4.4886    3.6668   21.7270 C.3     1  UNL1        0.0000
      7 C          -3.0137    3.8465   21.9329 C.3     1  UNL1        0.0006
      8 C          -2.4297    3.7354   23.3101 C.3     1  UNL1        0.0113
      9 C          -0.9548    3.9151   23.5161 C.3     1  UNL1        0.0927
     10 C          -0.3708    3.8040   24.8932 C.3     1  UNL1        0.0812
     11 C          -0.0639    4.2059   22.3448 C.2     1  UNL1        0.2266
     12 O           0.0445    5.6047   21.8141 O.2     1  UNL1       -0.2748
     13 N           0.7185    3.0980   21.7043 N.am    1  UNL1       -0.2760
     14 C           1.6094    3.3888   20.5331 C.3     1  UNL1        0.1148
     15 C           2.3918    2.2808   19.8926 C.3     1  UNL1        0.1123
     16 N           2.2834    0.8820   20.4234 N.pl3   1  UNL1       -0.3040
     17 C           1.3925    0.5912   21.5946 C.3     1  UNL1        0.1123
     18 C           0.6101    1.6992   22.2351 C.3     1  UNL1        0.1148
     19 C           3.0658   -0.2259   19.7829 C.ar    1  UNL1        0.0503
     20 C           2.7845   -1.6526   20.1508 C.ar    1  UNL1        0.0170
     21 C           3.5670   -2.7606   19.5103 C.ar    1  UNL1        0.0332
     22 C           4.6307   -2.4418   18.5019 C.ar    1  UNL1        0.1675
     23 F           5.4131   -3.5497   17.8614 F       1  UNL1       -0.2018
     24 C           4.9120   -1.0151   18.1340 C.ar    1  UNL1        0.1686
     25 F           5.9757   -0.6963   17.1256 F       1  UNL1       -0.2018
     26 C           4.1296    0.0929   18.7745 C.ar    1  UNL1        0.0465
     27 C          -0.6776    3.4021   27.4416 C.3     1  UNL1        0.0724
     28 C          -0.1558    2.0837   27.9309 C.3     1  UNL1        0.0204
     29 C          -1.1048    0.9518   28.1918 C.3     1  UNL1        0.0018
     30 C           1.3149    1.8972   28.1593 C.3     1  UNL1        0.0293
     31 C           3.6227   -1.0536   25.6659 C.ar    1  UNL1        0.2250
     32 C           3.5451   -1.2277   27.1537 C.ar    1  UNL1        0.0574
     33 C           2.7759   -0.2441   27.9849 C.ar    1  UNL1        0.0021
     34 C           2.0841    0.9136   27.3282 C.ar    1  UNL1       -0.0028
     35 C           2.1617    1.0877   25.8403 C.ar    1  UNL1        0.0978
     36 N           2.9309    0.1041   25.0092 N.ar    1  UNL1       -0.2105
     37 C           4.5723   -1.7980   23.3650 C.3     1  UNL1        0.2542
     38 O           4.3919   -2.0372   24.8348 O.3     1  UNL1       -0.4561
@<TRIPOS>BOND
     1    37    38    1
     2    38    31    1
     3    31    32   ar
     4    32    33   ar
     5    33    34   ar
     6    34    30    1
     7    30    28    1
     8    28    29    1
     9    28    27    1
    10    27     1    1
    11     1     2    1
    12     3     2    1
    13     3     4    1
    14     4     5    1
    15     5     6    1
    16     6     7    1
    17     8     7    1
    18     8     9    1
    19     9    11    1
    20    11    12    2
    21    11    13   am
    22    13    14    1
    23    14    15    1
    24    15    16    1
    25    16    19    1
    26    19    20   ar
    27    20    21   ar
    28    21    22   ar
    29    22    23    1
    30    22    24   ar
    31    24    25    1
    32    24    26   ar
    33    16    17    1
    34    17    18    1
    35     9    10    1
    36    34    35   ar
    37    35    36   ar
    38    36    31   ar
    39    10     1    1
    40     8     3    1
    41    18    13    1
    42    26    19   ar
