@<TRIPOS>MOLECULE
*****
 23 25 0 0 0
SMALL
GASTEIGER

@<TRIPOS>ATOM
      1 C          -7.2754  -18.8094   21.0517 C.ar    1  UNL1        0.0206
      2 C          -8.1579  -19.2740   19.9314 C.ar    1  UNL1        0.0989
      3 N          -9.6136  -18.9123   19.9240 N.ar    1  UNL1       -0.2423
      4 C         -10.1867  -18.0860   21.0370 C.ar    1  UNL1        0.0985
      5 C         -11.5736  -17.5772   21.2979 C.ar    1  UNL1        0.0392
      6 C         -11.5480  -16.7982   22.5795 C.ar    1  UNL1        0.0779
      7 N         -10.1455  -16.8256   23.1107 N.ar    1  UNL1       -0.3165
      8 C          -9.3042  -17.6214   22.1574 C.ar    1  UNL1        0.0782
      9 C          -7.8485  -17.9831   22.1647 C.ar    1  UNL1        0.0203
     10 C          -2.4739  -18.1096   22.9111 C.3     1  UNL1        0.0334
     11 C          -3.4189  -18.8212   21.9888 C.ar    1  UNL1        0.0056
     12 C          -4.8747  -18.4595   21.9814 C.ar    1  UNL1       -0.0020
     13 C          -5.8196  -19.1711   21.0591 C.ar    1  UNL1        0.0014
     14 C          -5.3088  -20.2444   20.1442 C.ar    1  UNL1        0.0023
     15 C          -3.8532  -20.6061   20.1515 C.ar    1  UNL1        0.0293
     16 C          -2.9081  -19.8945   21.0739 C.ar    1  UNL1        0.1361
     17 F          -1.4524  -20.2562   21.0812 F       1  UNL1       -0.2045
     18 C          -9.6681  -16.1718   24.3735 C.3     1  UNL1        0.1920
     19 C          -8.2717  -15.6301   24.4560 C.2     1  UNL1        0.2488
     20 O          -7.6429  -14.9909   23.2535 O.2     1  UNL1       -0.2728
     21 N          -7.5042  -15.7277   25.7410 N.am    1  UNL1       -0.2744
     22 C          -6.1078  -15.1860   25.8236 C.3     1  UNL1        0.1150
     23 C          -8.1328  -16.3669   26.9435 C.3     1  UNL1        0.1150
@<TRIPOS>BOND
     1    10    11    1
     2    11    12   ar
     3    12    13   ar
     4    13     1    1
     5     1     2   ar
     6     2     3   ar
     7     3     4   ar
     8     4     5   ar
     9     5     6   ar
    10     6     7   ar
    11     7    18    1
    12    18    19    1
    13    19    20    2
    14    19    21   am
    15    21    22    1
    16    21    23    1
    17     7     8   ar
    18     8     9   ar
    19    13    14   ar
    20    14    15   ar
    21    15    16   ar
    22    16    17    1
    23    16    11   ar
    24     9     1   ar
    25     8     4   ar
@<TRIPOS>MOLECULE
*****
 23 25 0 0 0
SMALL
GASTEIGER

@<TRIPOS>ATOM
      1 C          -7.9339  -18.7747   21.8089 C.ar    1  UNL1        0.0206
      2 C          -7.2896  -19.9692   21.1703 C.ar    1  UNL1        0.0989
      3 N          -5.8055  -20.1633   21.2690 N.ar    1  UNL1       -0.2423
      4 C          -4.9657  -19.1628   22.0063 C.ar    1  UNL1        0.0985
      5 C          -3.4905  -19.0892   22.2680 C.ar    1  UNL1        0.0392
      6 C          -3.2231  -17.8491   23.0684 C.ar    1  UNL1        0.0779
      7 N          -4.5330  -17.1563   23.3014 N.ar    1  UNL1       -0.3165
      8 C          -5.6100  -17.9682   22.6450 C.ar    1  UNL1        0.0782
      9 C          -7.0940  -17.7742   22.5463 C.ar    1  UNL1        0.0203
     10 C         -12.5776  -18.3401   24.0997 C.3     1  UNL1        0.0334
     11 C         -11.7399  -18.3633   22.8556 C.ar    1  UNL1        0.0056
     12 C         -10.2557  -18.5574   22.9543 C.ar    1  UNL1       -0.0020
     13 C          -9.4180  -18.5806   21.7103 C.ar    1  UNL1        0.0014
     14 C         -10.0644  -18.4097   20.3675 C.ar    1  UNL1        0.0023
     15 C         -11.5485  -18.2156   20.2688 C.ar    1  UNL1        0.0293
     16 C         -12.3863  -18.1924   21.5129 C.ar    1  UNL1        0.1361
     17 F         -13.8704  -17.9983   21.4141 F       1  UNL1       -0.2045
     18 C          -4.7311  -15.8763   24.0579 C.3     1  UNL1        0.1920
     19 C          -5.4381  -15.8887   25.3808 C.2     1  UNL1        0.2488
     20 O          -4.7397  -16.4150   26.5995 O.2     1  UNL1       -0.2728
     21 N          -6.8434  -15.3748   25.4850 N.am    1  UNL1       -0.2744
     22 C          -7.5504  -15.3872   26.8079 C.3     1  UNL1        0.1150
     23 C          -7.5419  -14.8485   24.2664 C.3     1  UNL1        0.1150
@<TRIPOS>BOND
     1    10    11    1
     2    11    12   ar
     3    12    13   ar
     4    13     1    1
     5     1     2   ar
     6     2     3   ar
     7     3     4   ar
     8     4     5   ar
     9     5     6   ar
    10     6     7   ar
    11     7    18    1
    12    18    19    1
    13    19    20    2
    14    19    21   am
    15    21    22    1
    16    21    23    1
    17     7     8   ar
    18     8     9   ar
    19    13    14   ar
    20    14    15   ar
    21    15    16   ar
    22    16    17    1
    23    16    11   ar
    24     9     1   ar
    25     8     4   ar
@<TRIPOS>MOLECULE
*****
 23 25 0 0 0
SMALL
GASTEIGER

@<TRIPOS>ATOM
      1 C          -6.7623  -19.0603   20.6508 C.ar    1  UNL1        0.0206
      2 C          -7.3412  -19.9280   19.5729 C.ar    1  UNL1        0.0989
      3 N          -8.8284  -20.0162   19.3990 N.ar    1  UNL1       -0.2423
      4 C          -9.7368  -19.2367   20.3031 C.ar    1  UNL1        0.0985
      5 C         -11.2311  -19.1253   20.3709 C.ar    1  UNL1        0.0392
      6 C         -11.5757  -18.1887   21.4908 C.ar    1  UNL1        0.0779
      7 N         -10.2944  -17.7213   22.1150 N.ar    1  UNL1       -0.3165
      8 C          -9.1578  -18.3690   21.3810 C.ar    1  UNL1        0.0782
      9 C          -7.6706  -18.2808   21.5548 C.ar    1  UNL1        0.0203
     10 C          -2.0385  -18.2360   18.6489 C.3     1  UNL1        0.0334
     11 C          -2.9131  -18.5599   19.8237 C.ar    1  UNL1        0.0056
     12 C          -4.4004  -18.6481   19.6498 C.ar    1  UNL1       -0.0020
     13 C          -5.2749  -18.9720   20.8246 C.ar    1  UNL1        0.0014
     14 C          -4.6622  -19.2077   22.1734 C.ar    1  UNL1        0.0023
     15 C          -3.1750  -19.1195   22.3473 C.ar    1  UNL1        0.0293
     16 C          -2.3004  -18.7956   21.1724 C.ar    1  UNL1        0.1361
     17 F          -0.8131  -18.7073   21.3464 F       1  UNL1       -0.2045
     18 C         -10.1711  -16.7727   23.2704 C.3     1  UNL1        0.1920
     19 C          -9.7536  -17.2824   24.6180 C.2     1  UNL1        0.2488
     20 O         -10.2846  -18.5914   25.1223 O.2     1  UNL1       -0.2728
     21 N          -8.8050  -16.4829   25.4613 N.am    1  UNL1       -0.2744
     22 C          -8.3874  -16.9926   26.8088 C.3     1  UNL1        0.1150
     23 C          -8.2740  -15.1738   24.9571 C.3     1  UNL1        0.1150
@<TRIPOS>BOND
     1    10    11    1
     2    11    12   ar
     3    12    13   ar
     4    13     1    1
     5     1     2   ar
     6     2     3   ar
     7     3     4   ar
     8     4     5   ar
     9     5     6   ar
    10     6     7   ar
    11     7    18    1
    12    18    19    1
    13    19    20    2
    14    19    21   am
    15    21    22    1
    16    21    23    1
    17     7     8   ar
    18     8     9   ar
    19    13    14   ar
    20    14    15   ar
    21    15    16   ar
    22    16    17    1
    23    16    11   ar
    24     9     1   ar
    25     8     4   ar
@<TRIPOS>MOLECULE
*****
 23 25 0 0 0
SMALL
GASTEIGER

@<TRIPOS>ATOM
      1 C          -8.9786  -16.7245   23.2108 C.ar    1  UNL1        0.0206
      2 C          -8.7870  -15.5322   24.1005 C.ar    1  UNL1        0.0989
      3 N          -7.4110  -15.1561   24.5644 N.ar    1  UNL1       -0.2423
      4 C          -6.2268  -15.9724   24.1388 C.ar    1  UNL1        0.0985
      5 C          -4.7617  -15.8456   24.4348 C.ar    1  UNL1        0.0392
      6 C          -4.0479  -16.9597   23.7280 C.ar    1  UNL1        0.0779
      7 N          -5.0719  -17.7749   22.9953 N.ar    1  UNL1       -0.3165
      8 C          -6.4184  -17.1648   23.2491 C.ar    1  UNL1        0.0782
      9 C          -7.7944  -17.5408   22.7851 C.ar    1  UNL1        0.0203
     10 C         -13.8528  -18.1684   24.2871 C.3     1  UNL1        0.0334
     11 C         -12.7917  -17.8225   23.2849 C.ar    1  UNL1        0.0056
     12 C         -11.4157  -17.4464   23.7490 C.ar    1  UNL1       -0.0020
     13 C         -10.3546  -17.1006   22.7468 C.ar    1  UNL1        0.0014
     14 C         -10.6695  -17.1309   21.2805 C.ar    1  UNL1        0.0023
     15 C         -12.0454  -17.5069   20.8164 C.ar    1  UNL1        0.0293
     16 C         -13.1065  -17.8528   21.8187 C.ar    1  UNL1        0.1361
     17 F         -14.4825  -18.2289   21.3546 F       1  UNL1       -0.2045
     18 C          -4.7975  -18.9875   22.1560 C.3     1  UNL1        0.1920
     19 C          -4.2947  -18.8294   20.7516 C.2     1  UNL1        0.2488
     20 O          -5.2671  -18.7030   19.6166 O.2     1  UNL1       -0.2728
     21 N          -2.8194  -18.7978   20.4823 N.am    1  UNL1       -0.2744
     22 C          -2.3166  -18.6397   19.0779 C.3     1  UNL1        0.1150
     23 C          -1.8468  -18.9241   21.6172 C.3     1  UNL1        0.1150
@<TRIPOS>BOND
     1    10    11    1
     2    11    12   ar
     3    12    13   ar
     4    13     1    1
     5     1     2   ar
     6     2     3   ar
     7     3     4   ar
     8     4     5   ar
     9     5     6   ar
    10     6     7   ar
    11     7    18    1
    12    18    19    1
    13    19    20    2
    14    19    21   am
    15    21    22    1
    16    21    23    1
    17     7     8   ar
    18     8     9   ar
    19    13    14   ar
    20    14    15   ar
    21    15    16   ar
    22    16    17    1
    23    16    11   ar
    24     9     1   ar
    25     8     4   ar
@<TRIPOS>MOLECULE
*****
 23 25 0 0 0
SMALL
GASTEIGER

@<TRIPOS>ATOM
      1 C          -8.6123  -17.0781   22.8779 C.ar    1  UNL1        0.0206
      2 C         -10.0628  -16.7852   22.6329 C.ar    1  UNL1        0.0989
      3 N         -10.7838  -17.4599   21.5038 N.ar    1  UNL1       -0.2423
      4 C         -10.0542  -18.4274   20.6197 C.ar    1  UNL1        0.0985
      5 C         -10.4978  -19.2386   19.4384 C.ar    1  UNL1        0.0392
      6 C          -9.3214  -20.0328   18.9535 C.ar    1  UNL1        0.0779
      7 N          -8.1507  -19.7124   19.8349 N.ar    1  UNL1       -0.3165
      8 C          -8.6037  -18.7202   20.8647 C.ar    1  UNL1        0.0782
      9 C          -7.8827  -18.0456   21.9938 C.ar    1  UNL1        0.0203
     10 C          -8.6155  -15.1349   27.6971 C.3     1  UNL1        0.0334
     11 C          -7.8928  -15.4318   26.4167 C.ar    1  UNL1        0.0056
     12 C          -8.6139  -16.1065   25.2875 C.ar    1  UNL1       -0.0020
     13 C          -7.8912  -16.4034   24.0071 C.ar    1  UNL1        0.0014
     14 C          -6.4475  -16.0256   23.8558 C.ar    1  UNL1        0.0023
     15 C          -5.7264  -15.3510   24.9849 C.ar    1  UNL1        0.0293
     16 C          -6.4491  -15.0541   26.2654 C.ar    1  UNL1        0.1361
     17 F          -5.7280  -14.3794   27.3945 F       1  UNL1       -0.2045
     18 C          -6.7696  -20.2839   19.7088 C.3     1  UNL1        0.1920
     19 C          -5.8497  -20.2908   20.8936 C.2     1  UNL1        0.2488
     20 O          -6.2578  -20.9910   22.1558 O.2     1  UNL1       -0.2728
     21 N          -4.5218  -19.5976   20.8162 N.am    1  UNL1       -0.2744
     22 C          -3.6019  -19.6046   22.0010 C.3     1  UNL1        0.1150
     23 C          -4.1136  -18.8974   19.5540 C.3     1  UNL1        0.1150
@<TRIPOS>BOND
     1    10    11    1
     2    11    12   ar
     3    12    13   ar
     4    13     1    1
     5     1     2   ar
     6     2     3   ar
     7     3     4   ar
     8     4     5   ar
     9     5     6   ar
    10     6     7   ar
    11     7    18    1
    12    18    19    1
    13    19    20    2
    14    19    21   am
    15    21    22    1
    16    21    23    1
    17     7     8   ar
    18     8     9   ar
    19    13    14   ar
    20    14    15   ar
    21    15    16   ar
    22    16    17    1
    23    16    11   ar
    24     9     1   ar
    25     8     4   ar
@<TRIPOS>MOLECULE
*****
 23 25 0 0 0
SMALL
GASTEIGER

@<TRIPOS>ATOM
      1 C          -9.0446  -17.3834   23.4055 C.ar    1  UNL1        0.0206
      2 C         -10.5383  -17.3964   23.2690 C.ar    1  UNL1        0.0989
      3 N         -11.1769  -18.0473   22.0781 N.ar    1  UNL1       -0.2423
      4 C         -10.3218  -18.6852   21.0236 C.ar    1  UNL1        0.0985
      5 C         -10.6646  -19.3970   19.7484 C.ar    1  UNL1        0.0392
      6 C          -9.3827  -19.8238   19.0969 C.ar    1  UNL1        0.0779
      7 N          -8.2477  -19.3759   19.9693 N.ar    1  UNL1       -0.3165
      8 C          -8.8281  -18.6722   21.1601 C.ar    1  UNL1        0.0782
      9 C          -8.1895  -18.0213   22.3511 C.ar    1  UNL1        0.0203
     10 C          -5.1249  -14.6905   25.4996 C.3     1  UNL1        0.0334
     11 C          -6.4461  -15.3859   25.6436 C.ar    1  UNL1        0.0056
     12 C          -7.0848  -16.0369   24.4525 C.ar    1  UNL1       -0.0020
     13 C          -8.4060  -16.7324   24.5965 C.ar    1  UNL1        0.0014
     14 C          -9.0885  -16.7769   25.9315 C.ar    1  UNL1        0.0023
     15 C          -8.4499  -16.1260   27.1225 C.ar    1  UNL1        0.0293
     16 C          -7.1287  -15.4305   26.9785 C.ar    1  UNL1        0.1361
     17 F          -6.4901  -14.7796   28.1695 F       1  UNL1       -0.2045
     18 C          -6.7885  -19.5934   19.6986 C.3     1  UNL1        0.1920
     19 C          -5.8558  -19.9152   20.8285 C.2     1  UNL1        0.2488
     20 O          -6.3490  -20.7003   22.0076 O.2     1  UNL1       -0.2728
     21 N          -4.4300  -19.4520   20.7792 N.am    1  UNL1       -0.2744
     22 C          -3.4974  -19.7738   21.9091 C.3     1  UNL1        0.1150
     23 C          -3.9368  -18.6669   19.6001 C.3     1  UNL1        0.1150
@<TRIPOS>BOND
     1    10    11    1
     2    11    12   ar
     3    12    13   ar
     4    13     1    1
     5     1     2   ar
     6     2     3   ar
     7     3     4   ar
     8     4     5   ar
     9     5     6   ar
    10     6     7   ar
    11     7    18    1
    12    18    19    1
    13    19    20    2
    14    19    21   am
    15    21    22    1
    16    21    23    1
    17     7     8   ar
    18     8     9   ar
    19    13    14   ar
    20    14    15   ar
    21    15    16   ar
    22    16    17    1
    23    16    11   ar
    24     9     1   ar
    25     8     4   ar
@<TRIPOS>MOLECULE
*****
 23 25 0 0 0
SMALL
GASTEIGER

@<TRIPOS>ATOM
      1 C          -4.9743  -16.7820   23.4767 C.ar    1  UNL1        0.0206
      2 C          -4.5808  -16.0690   24.7363 C.ar    1  UNL1        0.0989
      3 N          -5.6374  -15.5319   25.6555 N.ar    1  UNL1       -0.2423
      4 C          -7.0877  -15.7078   25.3150 C.ar    1  UNL1        0.0985
      5 C          -8.3426  -15.2890   26.0221 C.ar    1  UNL1        0.0392
      6 C          -9.5117  -15.7433   25.1994 C.ar    1  UNL1        0.0779
      7 N          -8.9793  -16.4427   23.9839 N.ar    1  UNL1       -0.3165
      8 C          -7.4812  -16.4208   24.0554 C.ar    1  UNL1        0.0782
      9 C          -6.4245  -16.9579   23.1362 C.ar    1  UNL1        0.0203
     10 C          -3.2636  -20.4953   20.2696 C.3     1  UNL1        0.0334
     11 C          -3.0622  -19.1758   20.9539 C.ar    1  UNL1        0.0056
     12 C          -4.1189  -18.6386   21.8732 C.ar    1  UNL1       -0.0020
     13 C          -3.9176  -17.3191   22.5574 C.ar    1  UNL1        0.0014
     14 C          -2.6596  -16.5367   22.3226 C.ar    1  UNL1        0.0023
     15 C          -1.6029  -17.0737   21.4034 C.ar    1  UNL1        0.0293
     16 C          -1.8042  -18.3933   20.7190 C.ar    1  UNL1        0.1361
     17 F          -0.7475  -18.9304   19.7999 F       1  UNL1       -0.2045
     18 C          -9.8008  -17.0564   22.8891 C.3     1  UNL1        0.1920
     19 C         -10.0302  -16.3040   21.6119 C.2     1  UNL1        0.2488
     20 O          -9.0045  -15.3244   21.1239 O.2     1  UNL1       -0.2728
     21 N         -11.2854  -16.5312   20.8227 N.am    1  UNL1       -0.2744
     22 C         -11.5149  -15.7788   19.5455 C.3     1  UNL1        0.1150
     23 C         -12.3113  -17.5108   21.3106 C.3     1  UNL1        0.1150
@<TRIPOS>BOND
     1    10    11    1
     2    11    12   ar
     3    12    13   ar
     4    13     1    1
     5     1     2   ar
     6     2     3   ar
     7     3     4   ar
     8     4     5   ar
     9     5     6   ar
    10     6     7   ar
    11     7    18    1
    12    18    19    1
    13    19    20    2
    14    19    21   am
    15    21    22    1
    16    21    23    1
    17     7     8   ar
    18     8     9   ar
    19    13    14   ar
    20    14    15   ar
    21    15    16   ar
    22    16    17    1
    23    16    11   ar
    24     9     1   ar
    25     8     4   ar
@<TRIPOS>MOLECULE
*****
 23 25 0 0 0
SMALL
GASTEIGER

@<TRIPOS>ATOM
      1 C          -8.1263  -18.9218   21.8136 C.ar    1  UNL1        0.0206
      2 C          -8.0876  -19.5236   20.4402 C.ar    1  UNL1        0.0989
      3 N          -6.7757  -19.6966   19.7339 N.ar    1  UNL1       -0.2423
      4 C          -5.5025  -19.2677   20.4010 C.ar    1  UNL1        0.0985
      5 C          -4.0710  -19.3132   19.9549 C.ar    1  UNL1        0.0392
      6 C          -3.2251  -18.7394   21.0527 C.ar    1  UNL1        0.0779
      7 N          -4.1337  -18.3394   22.1772 N.ar    1  UNL1       -0.3165
      8 C          -5.5412  -18.6659   21.7744 C.ar    1  UNL1        0.0782
      9 C          -6.8531  -18.4929   22.4807 C.ar    1  UNL1        0.0203
     10 C         -12.5540  -16.2907   22.5021 C.3     1  UNL1        0.0334
     11 C         -11.6521  -17.4333   22.8642 C.ar    1  UNL1        0.0056
     12 C         -10.3402  -17.6063   22.1578 C.ar    1  UNL1       -0.0020
     13 C          -9.4383  -18.7488   22.5200 C.ar    1  UNL1        0.0014
     14 C          -9.8483  -19.7184   23.5885 C.ar    1  UNL1        0.0023
     15 C         -11.1602  -19.5455   24.2948 C.ar    1  UNL1        0.0293
     16 C         -12.0622  -18.4029   23.9327 C.ar    1  UNL1        0.1361
     17 F         -13.3740  -18.2300   24.6391 F       1  UNL1       -0.2045
     18 C          -3.7093  -17.7213   23.4764 C.3     1  UNL1        0.1920
     19 C          -4.4555  -16.5412   24.0246 C.2     1  UNL1        0.2488
     20 O          -4.9798  -15.4875   23.0948 O.2     1  UNL1       -0.2728
     21 N          -4.6773  -16.4149   25.5028 N.am    1  UNL1       -0.2744
     22 C          -5.4234  -15.2347   26.0510 C.3     1  UNL1        0.1150
     23 C          -4.1530  -17.4686   26.4327 C.3     1  UNL1        0.1150
@<TRIPOS>BOND
     1    10    11    1
     2    11    12   ar
     3    12    13   ar
     4    13     1    1
     5     1     2   ar
     6     2     3   ar
     7     3     4   ar
     8     4     5   ar
     9     5     6   ar
    10     6     7   ar
    11     7    18    1
    12    18    19    1
    13    19    20    2
    14    19    21   am
    15    21    22    1
    16    21    23    1
    17     7     8   ar
    18     8     9   ar
    19    13    14   ar
    20    14    15   ar
    21    15    16   ar
    22    16    17    1
    23    16    11   ar
    24     9     1   ar
    25     8     4   ar
@<TRIPOS>MOLECULE
*****
 23 25 0 0 0
SMALL
GASTEIGER

@<TRIPOS>ATOM
      1 C         -15.2178   -5.8214   19.1444 C.ar    1  UNL1        0.0206
      2 C         -16.0440   -4.7440   19.7820 C.ar    1  UNL1        0.0989
      3 N         -15.4908   -3.3565   19.9184 N.ar    1  UNL1       -0.2423
      4 C         -14.1115   -3.0463   19.4172 C.ar    1  UNL1        0.0985
      5 C         -13.3057   -1.7810   19.4140 C.ar    1  UNL1        0.0392
      6 C         -11.9815   -2.0765   18.7744 C.ar    1  UNL1        0.0779
      7 N         -11.9689   -3.5244   18.3823 N.ar    1  UNL1       -0.3165
      8 C         -13.2853   -4.1237   18.7796 C.ar    1  UNL1        0.0782
      9 C         -13.8384   -5.5112   18.6432 C.ar    1  UNL1        0.0203
     10 C         -19.0663   -9.2274   19.9118 C.3     1  UNL1        0.0334
     11 C         -17.6952   -8.9120   19.3916 C.ar    1  UNL1        0.0056
     12 C         -17.1420   -7.5244   19.5281 C.ar    1  UNL1       -0.0020
     13 C         -15.7709   -7.2091   19.0080 C.ar    1  UNL1        0.0014
     14 C         -14.9529   -8.2813   18.3514 C.ar    1  UNL1        0.0023
     15 C         -15.5060   -9.6689   18.2149 C.ar    1  UNL1        0.0293
     16 C         -16.8771   -9.9843   18.7351 C.ar    1  UNL1        0.1361
     17 F         -17.4302  -11.3719   18.5986 F       1  UNL1       -0.2045
     18 C         -10.8384   -4.2462   17.7108 C.3     1  UNL1        0.1920
     19 C         -10.0914   -5.3190   18.4463 C.2     1  UNL1        0.2488
     20 O          -9.2087   -4.9591   19.6045 O.2     1  UNL1       -0.2728
     21 N         -10.2270   -6.7518   18.0237 N.am    1  UNL1       -0.2744
     22 C          -9.4800   -7.8247   18.7592 C.3     1  UNL1        0.1150
     23 C         -11.1096   -7.1119   16.8655 C.3     1  UNL1        0.1150
@<TRIPOS>BOND
     1    10    11    1
     2    11    12   ar
     3    12    13   ar
     4    13     1    1
     5     1     2   ar
     6     2     3   ar
     7     3     4   ar
     8     4     5   ar
     9     5     6   ar
    10     6     7   ar
    11     7    18    1
    12    18    19    1
    13    19    20    2
    14    19    21   am
    15    21    22    1
    16    21    23    1
    17     7     8   ar
    18     8     9   ar
    19    13    14   ar
    20    14    15   ar
    21    15    16   ar
    22    16    17    1
    23    16    11   ar
    24     9     1   ar
    25     8     4   ar
