@<TRIPOS>MOLECULE
*****
 25 27 0 0 0
SMALL
GASTEIGER

@<TRIPOS>ATOM
      1 C          -4.0987  -17.7395   22.9591 C.3     1  UNL1        0.0838
      2 C          -4.6541  -16.6329   23.8058 C.3     1  UNL1        0.0437
      3 C          -6.1453  -16.6291   23.6439 C.ar    1  UNL1       -0.0247
      4 C          -7.2170  -15.7628   24.2362 C.ar    1  UNL1       -0.0045
      5 C          -8.6550  -16.0007   23.8818 C.ar    1  UNL1       -0.0003
      6 C          -9.0212  -17.1049   22.9349 C.ar    1  UNL1        0.0012
      7 C          -7.9495  -17.9713   22.3426 C.ar    1  UNL1       -0.0045
      8 C          -6.5116  -17.7333   22.6970 C.ar    1  UNL1       -0.0247
      9 C          -5.2467  -18.4196   22.2738 C.3     1  UNL1        0.0437
     10 C         -10.4592  -17.3428   22.5805 C.ar    1  UNL1        0.0198
     11 C         -10.9090  -17.2283   21.1541 C.ar    1  UNL1        0.0989
     12 N         -12.3470  -17.4662   20.7997 N.ar    1  UNL1       -0.2416
     13 C         -13.3352  -17.8186   21.8716 C.ar    1  UNL1        0.1091
     14 C         -12.8854  -17.9332   23.2981 C.ar    1  UNL1        0.0876
     15 C         -11.4475  -17.6953   23.6525 C.ar    1  UNL1        0.0134
     16 C         -13.8737  -18.2857   24.3701 C.1     1  UNL1        0.1020
     17 N         -14.8619  -18.6382   25.4420 N.1     1  UNL1       -0.1908
     18 N          -2.6497  -18.1023   22.8217 N.3     1  UNL1       -0.1841
     19 H          -2.1267  -17.4535   23.4098 H       1  UNL1        0.1484
     20 S          -1.9970  -18.0851   21.4713 S.O2    1  UNL1        0.0390
     21 O          -2.3165  -16.6259   21.3355 O.2     1  UNL1       -0.1576
     22 O          -1.6775  -19.5443   21.6071 O.2     1  UNL1       -0.1576
     23 C          -2.1589  -18.3374   18.8906 C.3     1  UNL1        0.0270
     24 C          -1.3443  -18.0678   20.1208 C.3     1  UNL1        0.1457
     25 C           0.1231  -17.7810   20.0007 C.3     1  UNL1        0.0270
@<TRIPOS>BOND
     1    23    24    1
     2    24    25    1
     3    24    20    1
     4    20    21    2
     5    20    22    2
     6    20    18    1
     7    18     1    1
     8     1     2    1
     9     2     3    1
    10     3     4   ar
    11     4     5   ar
    12     5     6   ar
    13     6    10    1
    14    10    11   ar
    15    11    12   ar
    16    12    13   ar
    17    13    14   ar
    18    14    16    1
    19    16    17    3
    20    14    15   ar
    21     6     7   ar
    22     7     8   ar
    23     8     9    1
    24     9     1    1
    25     8     3   ar
    26    15    10   ar
    27    18    19    1
@<TRIPOS>MOLECULE
*****
 25 27 0 0 0
SMALL
GASTEIGER

@<TRIPOS>ATOM
      1 C          -4.5368  -19.8632   20.8868 C.3     1  UNL1        0.0838
      2 C          -5.3829  -20.5967   19.8889 C.3     1  UNL1        0.0437
      3 C          -6.7940  -20.1078   20.0291 C.ar    1  UNL1       -0.0247
      4 C          -8.0586  -20.4719   19.3093 C.ar    1  UNL1       -0.0045
      5 C          -9.3492  -19.8002   19.6742 C.ar    1  UNL1       -0.0003
      6 C          -9.3752  -18.7644   20.7589 C.ar    1  UNL1        0.0012
      7 C          -8.1106  -18.4004   21.4787 C.ar    1  UNL1       -0.0045
      8 C          -6.8200  -19.0720   21.1138 C.ar    1  UNL1       -0.0247
      9 C          -5.4250  -18.9209   21.6439 C.3     1  UNL1        0.0437
     10 C         -10.6659  -18.0928   21.1237 C.ar    1  UNL1        0.0198
     11 C         -11.2430  -17.0390   20.2257 C.ar    1  UNL1        0.0989
     12 N         -12.5337  -16.3673   20.5906 N.ar    1  UNL1       -0.2416
     13 C         -13.2472  -16.7495   21.8535 C.ar    1  UNL1        0.1091
     14 C         -12.6700  -17.8033   22.7515 C.ar    1  UNL1        0.0876
     15 C         -11.3794  -18.4749   22.3866 C.ar    1  UNL1        0.0134
     16 C         -13.3835  -18.1854   24.0144 C.1     1  UNL1        0.1020
     17 N         -14.0970  -18.5676   25.2773 N.1     1  UNL1       -0.1908
     18 N          -3.0615  -20.0408   21.0918 N.3     1  UNL1       -0.1841
     19 H          -2.9324  -20.3396   22.0584 H       1  UNL1        0.1484
     20 S          -2.1288  -18.8878   20.8666 S.O2    1  UNL1        0.0390
     21 O          -2.5994  -18.7845   19.4461 O.2     1  UNL1       -0.1576
     22 O          -1.6583  -18.9911   22.2871 O.2     1  UNL1       -0.1576
     23 C           0.0622  -17.9316   19.8491 C.3     1  UNL1        0.0270
     24 C          -1.1962  -17.7348   20.6414 C.3     1  UNL1        0.1457
     25 C          -1.5219  -16.3849   21.2086 C.3     1  UNL1        0.0270
@<TRIPOS>BOND
     1    23    24    1
     2    24    25    1
     3    24    20    1
     4    20    21    2
     5    20    22    2
     6    20    18    1
     7    18     1    1
     8     1     2    1
     9     2     3    1
    10     3     4   ar
    11     4     5   ar
    12     5     6   ar
    13     6    10    1
    14    10    11   ar
    15    11    12   ar
    16    12    13   ar
    17    13    14   ar
    18    14    16    1
    19    16    17    3
    20    14    15   ar
    21     6     7   ar
    22     7     8   ar
    23     8     9    1
    24     9     1    1
    25     8     3   ar
    26    15    10   ar
    27    18    19    1
@<TRIPOS>MOLECULE
*****
 25 27 0 0 0
SMALL
GASTEIGER

@<TRIPOS>ATOM
      1 C         -13.8994   -7.1237   19.0261 C.3     1  UNL1        0.0838
      2 C         -12.5875   -6.3977   18.9848 C.3     1  UNL1        0.0437
      3 C         -12.8694   -4.9263   19.0578 C.ar    1  UNL1       -0.0247
      4 C         -11.9649   -3.7297   19.0567 C.ar    1  UNL1       -0.0045
      5 C         -12.5466   -2.3498   19.1421 C.ar    1  UNL1       -0.0003
      6 C         -14.0328   -2.1664   19.2286 C.ar    1  UNL1        0.0012
      7 C         -14.9373   -3.3629   19.2297 C.ar    1  UNL1       -0.0045
      8 C         -14.3556   -4.7429   19.1442 C.ar    1  UNL1       -0.0247
      9 C         -14.9922   -6.1010   19.1246 C.3     1  UNL1        0.0437
     10 C         -14.6145   -0.7863   19.3140 C.ar    1  UNL1        0.0198
     11 C         -13.9239    0.3617   18.6395 C.ar    1  UNL1        0.0989
     12 N         -14.5056    1.7417   18.7249 N.ar    1  UNL1       -0.2416
     13 C         -15.7778    1.9737   19.4849 C.ar    1  UNL1        0.1091
     14 C         -16.4684    0.8255   20.1594 C.ar    1  UNL1        0.0876
     15 C         -15.8867   -0.5544   20.0740 C.ar    1  UNL1        0.0134
     16 C         -17.7407    1.0574   20.9194 C.1     1  UNL1        0.1020
     17 N         -19.0129    1.2893   21.6794 N.1     1  UNL1       -0.1908
     18 N         -14.0858   -8.6113   18.9774 N.3     1  UNL1       -0.1841
     19 H         -13.4065   -8.9714   18.3071 H       1  UNL1        0.1484
     20 S         -15.4171   -9.1883   18.5970 S.O2    1  UNL1        0.0390
     21 O         -15.7540   -9.3672   20.0477 O.2     1  UNL1       -0.1576
     22 O         -15.0802   -9.0094   17.1464 O.2     1  UNL1       -0.1576
     23 C         -17.7420   -8.9284   17.4668 C.3     1  UNL1        0.0270
     24 C         -16.7485   -9.7653   18.2167 C.3     1  UNL1        0.1457
     25 C         -17.0862  -11.1793   18.5864 C.3     1  UNL1        0.0270
@<TRIPOS>BOND
     1    23    24    1
     2    24    25    1
     3    24    20    1
     4    20    21    2
     5    20    22    2
     6    20    18    1
     7    18     1    1
     8     1     2    1
     9     2     3    1
    10     3     4   ar
    11     4     5   ar
    12     5     6   ar
    13     6    10    1
    14    10    11   ar
    15    11    12   ar
    16    12    13   ar
    17    13    14   ar
    18    14    16    1
    19    16    17    3
    20    14    15   ar
    21     6     7   ar
    22     7     8   ar
    23     8     9    1
    24     9     1    1
    25     8     3   ar
    26    15    10   ar
    27    18    19    1
@<TRIPOS>MOLECULE
*****
 25 27 0 0 0
SMALL
GASTEIGER

@<TRIPOS>ATOM
      1 C         -11.0189   -2.8365   18.5575 C.3     1  UNL1        0.0838
      2 C         -11.1651   -1.4288   18.0605 C.3     1  UNL1        0.0437
      3 C         -12.5289   -0.9394   18.4485 C.ar    1  UNL1       -0.0247
      4 C         -13.2263    0.3698   18.2261 C.ar    1  UNL1       -0.0045
      5 C         -14.6205    0.5737   18.7405 C.ar    1  UNL1       -0.0003
      6 C         -15.3173   -0.5316   19.4772 C.ar    1  UNL1        0.0012
      7 C         -14.6199   -1.8408   19.6997 C.ar    1  UNL1       -0.0045
      8 C         -13.2257   -2.0447   19.1853 C.ar    1  UNL1       -0.0247
      9 C         -12.2925   -3.2171   19.2526 C.3     1  UNL1        0.0437
     10 C         -16.7115   -0.3276   19.9916 C.ar    1  UNL1        0.0198
     11 C         -17.6903   -1.4641   19.9766 C.ar    1  UNL1        0.0989
     12 N         -19.0845   -1.2601   20.4910 N.ar    1  UNL1       -0.2416
     13 C         -19.5000    0.0805   21.0204 C.ar    1  UNL1        0.1091
     14 C         -18.5211    1.2170   21.0354 C.ar    1  UNL1        0.0876
     15 C         -17.1270    1.0130   20.5210 C.ar    1  UNL1        0.0134
     16 C         -18.9365    2.5576   21.5648 C.1     1  UNL1        0.1020
     17 N         -19.3520    3.8982   22.0942 N.1     1  UNL1       -0.1908
     18 N          -9.8113   -3.7101   18.3889 N.3     1  UNL1       -0.1841
     19 H          -9.3280   -3.3860   17.5512 H       1  UNL1        0.1484
     20 S          -9.9734   -5.1947   18.2482 S.O2    1  UNL1        0.0390
     21 O          -9.3463   -5.3909   19.5966 O.2     1  UNL1       -0.1576
     22 O         -10.6005   -4.9984   16.8998 O.2     1  UNL1       -0.1576
     23 C          -9.2832   -7.6072   18.9216 C.3     1  UNL1        0.0270
     24 C         -10.1354   -6.6793   18.1075 C.3     1  UNL1        0.1457
     25 C         -11.1496   -7.2359   17.1528 C.3     1  UNL1        0.0270
@<TRIPOS>BOND
     1    23    24    1
     2    24    25    1
     3    24    20    1
     4    20    21    2
     5    20    22    2
     6    20    18    1
     7    18     1    1
     8     1     2    1
     9     2     3    1
    10     3     4   ar
    11     4     5   ar
    12     5     6   ar
    13     6    10    1
    14    10    11   ar
    15    11    12   ar
    16    12    13   ar
    17    13    14   ar
    18    14    16    1
    19    16    17    3
    20    14    15   ar
    21     6     7   ar
    22     7     8   ar
    23     8     9    1
    24     9     1    1
    25     8     3   ar
    26    15    10   ar
    27    18    19    1
@<TRIPOS>MOLECULE
*****
 25 27 0 0 0
SMALL
GASTEIGER

@<TRIPOS>ATOM
      1 C          -3.6655  -19.9626   20.9644 C.3     1  UNL1        0.0838
      2 C          -4.4709  -20.7515   19.9750 C.3     1  UNL1        0.0437
      3 C          -5.9169  -20.4058   20.1735 C.ar    1  UNL1       -0.0247
      4 C          -7.1646  -20.8743   19.4853 C.ar    1  UNL1       -0.0045
      5 C          -8.5006  -20.3403   19.9093 C.ar    1  UNL1       -0.0003
      6 C          -8.5890  -19.3377   21.0214 C.ar    1  UNL1        0.0012
      7 C          -7.3413  -18.8691   21.7097 C.ar    1  UNL1       -0.0045
      8 C          -6.0053  -19.4031   21.2857 C.ar    1  UNL1       -0.0247
      9 C          -4.6139  -19.1293   21.7745 C.3     1  UNL1        0.0437
     10 C          -9.9251  -18.8037   21.4454 C.ar    1  UNL1        0.0198
     11 C         -10.5665  -19.3027   22.7061 C.ar    1  UNL1        0.0989
     12 N         -11.9027  -18.7687   23.1301 N.ar    1  UNL1       -0.2416
     13 C         -12.5973  -17.7356   22.2932 C.ar    1  UNL1        0.1091
     14 C         -11.9558  -17.2366   21.0324 C.ar    1  UNL1        0.0876
     15 C         -10.6198  -17.7706   20.6085 C.ar    1  UNL1        0.0134
     16 C         -12.6504  -16.2036   20.1956 C.1     1  UNL1        0.1020
     17 N         -13.3451  -15.1705   19.3587 N.1     1  UNL1       -0.1908
     18 N          -2.1738  -20.0004   21.1170 N.3     1  UNL1       -0.1841
     19 H          -1.9830  -20.3102   22.0699 H       1  UNL1        0.1484
     20 S          -1.3655  -18.7562   20.8962 S.O2    1  UNL1        0.0390
     21 O          -1.1624  -18.6256   22.3766 O.2     1  UNL1       -0.1576
     22 O          -1.5687  -18.8869   19.4159 O.2     1  UNL1       -0.1576
     23 C           0.8404  -17.6108   20.1400 C.3     1  UNL1        0.0270
     24 C          -0.5572  -17.5120   20.6755 C.3     1  UNL1        0.1457
     25 C          -1.1467  -16.1691   20.9903 C.3     1  UNL1        0.0270
@<TRIPOS>BOND
     1    23    24    1
     2    24    25    1
     3    24    20    1
     4    20    21    2
     5    20    22    2
     6    20    18    1
     7    18     1    1
     8     1     2    1
     9     2     3    1
    10     3     4   ar
    11     4     5   ar
    12     5     6   ar
    13     6    10    1
    14    10    11   ar
    15    11    12   ar
    16    12    13   ar
    17    13    14   ar
    18    14    16    1
    19    16    17    3
    20    14    15   ar
    21     6     7   ar
    22     7     8   ar
    23     8     9    1
    24     9     1    1
    25     8     3   ar
    26    15    10   ar
    27    18    19    1
@<TRIPOS>MOLECULE
*****
 25 27 0 0 0
SMALL
GASTEIGER

@<TRIPOS>ATOM
      1 C           4.3167    1.3800   36.4724 C.3     1  UNL1        0.0838
      2 C           4.3409    2.0929   35.1528 C.3     1  UNL1        0.0437
      3 C           4.7564    1.1075   34.1011 C.ar    1  UNL1       -0.0247
      4 C           4.9530    1.2431   32.6202 C.ar    1  UNL1       -0.0045
      5 C           5.3822    0.0567   31.8089 C.ar    1  UNL1       -0.0003
      6 C           5.6148   -1.2652   32.4784 C.ar    1  UNL1        0.0012
      7 C           5.4182   -1.4009   33.9592 C.ar    1  UNL1       -0.0045
      8 C           4.9890   -0.2145   34.7706 C.ar    1  UNL1       -0.0247
      9 C           4.7173   -0.0461   36.2361 C.3     1  UNL1        0.0437
     10 C           6.0441   -2.4516   31.6670 C.ar    1  UNL1        0.0198
     11 C           6.4210   -3.7319   32.3517 C.ar    1  UNL1        0.0989
     12 N           6.8503   -4.9182   31.5403 N.ar    1  UNL1       -0.2416
     13 C           6.9025   -4.8243   30.0442 C.ar    1  UNL1        0.1091
     14 C           6.5255   -3.5440   29.3594 C.ar    1  UNL1        0.0876
     15 C           6.0963   -2.3577   30.1709 C.ar    1  UNL1        0.0134
     16 C           6.5777   -3.4501   27.8633 C.1     1  UNL1        0.1020
     17 N           6.6300   -3.3562   26.3672 N.1     1  UNL1       -0.1908
     18 N           3.9554    1.9867   37.7958 N.3     1  UNL1       -0.1841
     19 H           4.7113    1.7572   38.4411 H       1  UNL1        0.1484
     20 S           2.6747    1.5994   38.4737 S.O2    1  UNL1        0.0390
     21 O           1.8940    2.2611   37.3771 O.2     1  UNL1       -0.1576
     22 O           3.4553    0.9376   39.5704 O.2     1  UNL1       -0.1576
     23 C           1.1842   -0.2015   39.6075 C.3     1  UNL1        0.0270
     24 C           1.3938    1.2120   39.1517 C.3     1  UNL1        0.1457
     25 C           0.3227    2.2384   39.3739 C.3     1  UNL1        0.0270
@<TRIPOS>BOND
     1    23    24    1
     2    24    25    1
     3    24    20    1
     4    20    21    2
     5    20    22    2
     6    20    18    1
     7    18     1    1
     8     1     2    1
     9     2     3    1
    10     3     4   ar
    11     4     5   ar
    12     5     6   ar
    13     6    10    1
    14    10    11   ar
    15    11    12   ar
    16    12    13   ar
    17    13    14   ar
    18    14    16    1
    19    16    17    3
    20    14    15   ar
    21     6     7   ar
    22     7     8   ar
    23     8     9    1
    24     9     1    1
    25     8     3   ar
    26    15    10   ar
    27    18    19    1
@<TRIPOS>MOLECULE
*****
 25 27 0 0 0
SMALL
GASTEIGER

@<TRIPOS>ATOM
      1 C         -11.0143   -2.7557   18.5583 C.3     1  UNL1        0.0838
      2 C         -12.3150   -3.1553   19.1896 C.3     1  UNL1        0.0437
      3 C         -13.2342   -1.9707   19.1468 C.ar    1  UNL1       -0.0247
      4 C         -14.6437   -1.7764   19.6218 C.ar    1  UNL1       -0.0045
      5 C         -15.3206   -0.4504   19.4391 C.ar    1  UNL1       -0.0003
      6 C         -14.5880    0.6813   18.7813 C.ar    1  UNL1        0.0012
      7 C         -13.1786    0.4870   18.3063 C.ar    1  UNL1       -0.0045
      8 C         -12.5017   -0.8390   18.4891 C.ar    1  UNL1       -0.0247
      9 C         -11.1297   -1.3242   18.1254 C.3     1  UNL1        0.0437
     10 C         -15.2650    2.0074   18.5986 C.ar    1  UNL1        0.0198
     11 C         -15.4048    2.5952   17.2257 C.ar    1  UNL1        0.0989
     12 N         -16.0817    3.9213   17.0430 N.ar    1  UNL1       -0.2416
     13 C         -16.6189    4.6595   18.2332 C.ar    1  UNL1        0.1091
     14 C         -16.4790    4.0716   19.6061 C.ar    1  UNL1        0.0876
     15 C         -15.8021    2.7456   19.7888 C.ar    1  UNL1        0.0134
     16 C         -17.0161    4.8098   20.7963 C.1     1  UNL1        0.1020
     17 N         -17.5532    5.5480   21.9865 N.1     1  UNL1       -0.1908
     18 N          -9.8097   -3.6335   18.3896 N.3     1  UNL1       -0.1841
     19 H          -9.3299   -3.3163   17.5472 H       1  UNL1        0.1484
     20 S          -9.9761   -5.1185   18.2600 S.O2    1  UNL1        0.0390
     21 O          -9.3052   -5.3096   19.5878 O.2     1  UNL1       -0.1576
     22 O         -10.6470   -4.9275   16.9321 O.2     1  UNL1       -0.1576
     23 C          -9.2953   -7.5280   18.9537 C.3     1  UNL1        0.0270
     24 C         -10.1425   -6.6037   18.1304 C.3     1  UNL1        0.1457
     25 C         -11.1562   -7.1645   17.1774 C.3     1  UNL1        0.0270
@<TRIPOS>BOND
     1    23    24    1
     2    24    25    1
     3    24    20    1
     4    20    21    2
     5    20    22    2
     6    20    18    1
     7    18     1    1
     8     1     2    1
     9     2     3    1
    10     3     4   ar
    11     4     5   ar
    12     5     6   ar
    13     6    10    1
    14    10    11   ar
    15    11    12   ar
    16    12    13   ar
    17    13    14   ar
    18    14    16    1
    19    16    17    3
    20    14    15   ar
    21     6     7   ar
    22     7     8   ar
    23     8     9    1
    24     9     1    1
    25     8     3   ar
    26    15    10   ar
    27    18    19    1
@<TRIPOS>MOLECULE
*****
 25 27 0 0 0
SMALL
GASTEIGER

@<TRIPOS>ATOM
      1 C           2.0177    1.1332   26.0934 C.3     1  UNL1        0.0838
      2 C           3.0752    0.1892   26.5838 C.3     1  UNL1        0.0437
      3 C           3.5387   -0.6338   25.4184 C.ar    1  UNL1       -0.0247
      4 C           4.5631   -1.7233   25.3033 C.ar    1  UNL1       -0.0045
      5 C           4.8165   -2.3774   23.9775 C.ar    1  UNL1       -0.0003
      6 C           4.0454   -1.9420   22.7668 C.ar    1  UNL1        0.0012
      7 C           3.0209   -0.8525   22.8819 C.ar    1  UNL1       -0.0045
      8 C           2.7676   -0.1984   24.2077 C.ar    1  UNL1       -0.0247
      9 C           1.8276    0.8937   24.6249 C.3     1  UNL1        0.0437
     10 C           4.2988   -2.5962   21.4409 C.ar    1  UNL1        0.0198
     11 C           4.7389   -4.0290   21.3835 C.ar    1  UNL1        0.0989
     12 N           4.9923   -4.6832   20.0576 N.ar    1  UNL1       -0.2416
     13 C           4.8057   -3.9045   18.7892 C.ar    1  UNL1        0.1091
     14 C           4.3656   -2.4716   18.8467 C.ar    1  UNL1        0.0876
     15 C           4.1122   -1.8175   20.1725 C.ar    1  UNL1        0.0134
     16 C           4.1789   -1.6929   17.5783 C.1     1  UNL1        0.1020
     17 N           3.9923   -0.9142   16.3099 N.1     1  UNL1       -0.1908
     18 N           1.2800    2.1399   26.9253 N.3     1  UNL1       -0.1841
     19 H           1.9625    2.8412   27.2128 H       1  UNL1        0.1484
     20 S           0.5587    1.7035   28.1660 S.O2    1  UNL1        0.0390
     21 O          -0.3864    0.8915   27.3309 O.2     1  UNL1       -0.1576
     22 O           1.5038    2.5155   29.0010 O.2     1  UNL1       -0.1576
     23 C          -1.3215    0.3200   29.3066 C.3     1  UNL1        0.0270
     24 C          -0.1626    1.2671   29.4067 C.3     1  UNL1        0.1457
     25 C           0.2749    1.7778   30.7475 C.3     1  UNL1        0.0270
@<TRIPOS>BOND
     1    23    24    1
     2    24    25    1
     3    24    20    1
     4    20    21    2
     5    20    22    2
     6    20    18    1
     7    18     1    1
     8     1     2    1
     9     2     3    1
    10     3     4   ar
    11     4     5   ar
    12     5     6   ar
    13     6    10    1
    14    10    11   ar
    15    11    12   ar
    16    12    13   ar
    17    13    14   ar
    18    14    16    1
    19    16    17    3
    20    14    15   ar
    21     6     7   ar
    22     7     8   ar
    23     8     9    1
    24     9     1    1
    25     8     3   ar
    26    15    10   ar
    27    18    19    1
@<TRIPOS>MOLECULE
*****
 25 27 0 0 0
SMALL
GASTEIGER

@<TRIPOS>ATOM
      1 C         -11.0581   -2.9490   18.5935 C.3     1  UNL1        0.0838
      2 C         -12.3375   -3.4000   19.2336 C.3     1  UNL1        0.0437
      3 C         -13.2862   -2.2381   19.2423 C.ar    1  UNL1       -0.0247
      4 C         -14.6915   -2.0935   19.7462 C.ar    1  UNL1       -0.0045
      5 C         -15.4038   -0.7800   19.6154 C.ar    1  UNL1       -0.0003
      6 C         -14.7107    0.3891   18.9806 C.ar    1  UNL1        0.0012
      7 C         -13.3053    0.2445   18.4767 C.ar    1  UNL1       -0.0045
      8 C         -12.5931   -1.0690   18.6075 C.ar    1  UNL1       -0.0247
      9 C         -11.2161   -1.5085   18.2065 C.3     1  UNL1        0.0437
     10 C         -15.4231    1.7027   18.8497 C.ar    1  UNL1        0.0198
     11 C         -16.6780    1.9564   19.6311 C.ar    1  UNL1        0.0989
     12 N         -17.3904    3.2700   19.5002 N.ar    1  UNL1       -0.2416
     13 C         -16.8477    4.3298   18.5880 C.ar    1  UNL1        0.1091
     14 C         -15.5926    4.0761   17.8066 C.ar    1  UNL1        0.0876
     15 C         -14.8804    2.7625   17.9375 C.ar    1  UNL1        0.0134
     16 C         -15.0499    5.1359   16.8943 C.1     1  UNL1        0.1020
     17 N         -14.5072    6.1957   15.9820 N.1     1  UNL1       -0.1908
     18 N          -9.8354   -3.7909   18.3781 N.3     1  UNL1       -0.1841
     19 H          -9.4021   -3.4651   17.5141 H       1  UNL1        0.1484
     20 S          -9.9615   -5.2812   18.2641 S.O2    1  UNL1        0.0390
     21 O         -10.6177   -5.1232   16.9245 O.2     1  UNL1       -0.1576
     22 O          -9.3054   -5.4392   19.6036 O.2     1  UNL1       -0.1576
     23 C          -9.2145   -7.6640   18.9814 C.3     1  UNL1        0.0270
     24 C         -10.0877   -6.7716   18.1500 C.3     1  UNL1        0.1457
     25 C         -11.0870   -7.3695   17.2046 C.3     1  UNL1        0.0270
@<TRIPOS>BOND
     1    23    24    1
     2    24    25    1
     3    24    20    1
     4    20    21    2
     5    20    22    2
     6    20    18    1
     7    18     1    1
     8     1     2    1
     9     2     3    1
    10     3     4   ar
    11     4     5   ar
    12     5     6   ar
    13     6    10    1
    14    10    11   ar
    15    11    12   ar
    16    12    13   ar
    17    13    14   ar
    18    14    16    1
    19    16    17    3
    20    14    15   ar
    21     6     7   ar
    22     7     8   ar
    23     8     9    1
    24     9     1    1
    25     8     3   ar
    26    15    10   ar
    27    18    19    1
