@<TRIPOS>MOLECULE
*****
 27 30 0 0 0
SMALL
GASTEIGER

@<TRIPOS>ATOM
      1 C          -8.5042  -17.1606   23.9651 C.2     1  UNL1       -0.0246
      2 C          -7.3599  -17.2515   22.9996 C.2     1  UNL1       -0.0421
      3 C          -6.1897  -16.5291   23.5986 C.3     1  UNL1        0.0480
      4 C          -6.6107  -15.9918   24.9343 C.ar    1  UNL1       -0.0184
      5 C          -5.8764  -15.1977   25.9735 C.ar    1  UNL1       -0.0040
      6 C          -6.5726  -14.7938   27.2392 C.ar    1  UNL1       -0.0003
      7 C          -8.0031  -15.1841   27.4658 C.ar    1  UNL1       -0.0000
      8 C          -8.7374  -15.9783   26.4266 C.ar    1  UNL1       -0.0006
      9 C          -8.0412  -16.3822   25.1608 C.ar    1  UNL1       -0.0079
     10 C         -10.3912  -18.7752   24.7286 C.3     1  UNL1        0.0111
     11 C          -9.8715  -17.7456   23.7694 C.3     1  UNL1        0.0634
     12 C         -10.7192  -17.3010   22.6146 C.ar    1  UNL1        0.0818
     13 C         -12.0297  -17.9780   22.3417 C.ar    1  UNL1        0.1139
     14 N         -12.8773  -17.5333   21.1868 N.ar    1  UNL1       -0.2394
     15 C         -12.4147  -16.4118   20.3048 C.ar    1  UNL1        0.1195
     16 C         -11.1042  -15.7347   20.5777 C.ar    1  UNL1        0.1191
     17 N         -10.2565  -16.1794   21.7325 N.ar    1  UNL1       -0.2446
     18 C          -7.3819  -17.9432   21.6688 C.3     1  UNL1        0.0394
     19 C          -7.2355  -19.4342   21.5960 C.3     1  UNL1        0.0768
     20 N          -5.9115  -20.0412   21.2372 N.3     1  UNL1       -0.2657
     21 C          -5.8522  -21.2118   20.3012 C.3     1  UNL1        0.0900
     22 C          -4.6470  -19.4775   21.8144 C.3     1  UNL1        0.1255
     23 C          -3.5766  -18.9515   20.9047 C.ar    1  UNL1        0.1045
     24 N          -3.7967  -18.1649   19.6467 N.ar    1  UNL1       -0.2398
     25 C          -2.4543  -17.8470   19.0577 C.ar    1  UNL1        0.1061
     26 C          -1.4044  -18.4372   19.9519 C.ar    1  UNL1        0.0572
     27 S          -2.0980  -19.1198   21.0933 S.2     1  UNL1       -0.0688
@<TRIPOS>BOND
     1    11    10    1
     2    11     1    1
     3     1     2    2
     4     2    18    1
     5    18    19    1
     6    19    20    1
     7    20    21    1
     8    20    22    1
     9    22    23    1
    10    23    24   ar
    11    24    25   ar
    12    25    26   ar
    13    26    27   ar
    14     2     3    1
    15     3     4    1
    16     4     5   ar
    17     5     6   ar
    18     6     7   ar
    19     7     8   ar
    20     8     9   ar
    21    11    12    1
    22    12    13   ar
    23    13    14   ar
    24    14    15   ar
    25    15    16   ar
    26    16    17   ar
    27     9     1    1
    28    17    12   ar
    29    27    23   ar
    30     9     4   ar
@<TRIPOS>MOLECULE
*****
 27 30 0 0 0
SMALL
GASTEIGER

@<TRIPOS>ATOM
      1 C          -8.6471  -17.0651   22.5676 C.2     1  UNL1       -0.0246
      2 C          -8.0272  -18.3823   22.2060 C.2     1  UNL1       -0.0421
      3 C          -9.1295  -19.3215   21.8149 C.3     1  UNL1        0.0480
      4 C         -10.4306  -18.5848   21.9348 C.ar    1  UNL1       -0.0184
      5 C         -11.8483  -19.0036   21.6805 C.ar    1  UNL1       -0.0040
      6 C         -12.9678  -18.0279   21.8914 C.ar    1  UNL1       -0.0003
      7 C         -12.6697  -16.6334   22.3566 C.ar    1  UNL1       -0.0000
      8 C         -11.2520  -16.2145   22.6109 C.ar    1  UNL1       -0.0006
      9 C         -10.1325  -17.1903   22.4000 C.ar    1  UNL1       -0.0079
     10 C          -7.5854  -14.7550   22.0324 C.3     1  UNL1        0.0111
     11 C          -7.9109  -15.8382   23.0178 C.3     1  UNL1        0.0634
     12 C          -7.5003  -15.6943   24.4532 C.ar    1  UNL1        0.0818
     13 C          -6.0548  -15.5007   24.8041 C.ar    1  UNL1        0.1139
     14 N          -5.6442  -15.3568   26.2396 N.ar    1  UNL1       -0.2394
     15 C          -6.6790  -15.4065   27.3243 C.ar    1  UNL1        0.1195
     16 C          -8.1245  -15.6002   26.9735 C.ar    1  UNL1        0.1191
     17 N          -8.5351  -15.7440   25.5380 N.ar    1  UNL1       -0.2446
     18 C          -6.5623  -18.7039   22.2311 C.3     1  UNL1        0.0394
     19 C          -6.0555  -19.9459   21.5600 C.3     1  UNL1        0.0768
     20 N          -4.6179  -20.0391   21.1418 N.3     1  UNL1       -0.2657
     21 C          -4.2613  -20.6260   19.8082 C.3     1  UNL1        0.0900
     22 C          -3.5371  -19.5453   22.0571 C.3     1  UNL1        0.1255
     23 C          -2.7781  -18.2971   21.7166 C.ar    1  UNL1        0.1045
     24 N          -3.0048  -16.9380   22.3093 N.ar    1  UNL1       -0.2398
     25 C          -2.0259  -15.9897   21.6826 C.ar    1  UNL1        0.1061
     26 C          -1.1942  -16.7629   20.7025 C.ar    1  UNL1        0.0572
     27 S          -1.6591  -18.1889   20.7235 S.2     1  UNL1       -0.0688
@<TRIPOS>BOND
     1    11    10    1
     2    11     1    1
     3     1     2    2
     4     2    18    1
     5    18    19    1
     6    19    20    1
     7    20    21    1
     8    20    22    1
     9    22    23    1
    10    23    24   ar
    11    24    25   ar
    12    25    26   ar
    13    26    27   ar
    14     2     3    1
    15     3     4    1
    16     4     5   ar
    17     5     6   ar
    18     6     7   ar
    19     7     8   ar
    20     8     9   ar
    21    11    12    1
    22    12    13   ar
    23    13    14   ar
    24    14    15   ar
    25    15    16   ar
    26    16    17   ar
    27     9     1    1
    28    17    12   ar
    29    27    23   ar
    30     9     4   ar
@<TRIPOS>MOLECULE
*****
 27 30 0 0 0
SMALL
GASTEIGER

@<TRIPOS>ATOM
      1 C          -6.0828  -18.8318   21.4118 C.2     1  UNL1       -0.0246
      2 C          -7.5415  -18.7784   21.0667 C.2     1  UNL1       -0.0421
      3 C          -8.1871  -17.7446   21.9412 C.3     1  UNL1        0.0480
      4 C          -7.1272  -17.1593   22.8267 C.ar    1  UNL1       -0.0184
      5 C          -7.1784  -16.1012   23.8887 C.ar    1  UNL1       -0.0040
      6 C          -5.9290  -15.7151   24.6235 C.ar    1  UNL1       -0.0003
      7 C          -4.6285  -16.3870   24.2962 C.ar    1  UNL1       -0.0000
      8 C          -4.5773  -17.4451   23.2343 C.ar    1  UNL1       -0.0006
      9 C          -5.8267  -17.8312   22.4995 C.ar    1  UNL1       -0.0079
     10 C          -5.3796  -21.1728   20.5309 C.3     1  UNL1        0.0111
     11 C          -5.0596  -19.7285   20.7800 C.3     1  UNL1        0.0634
     12 C          -3.7166  -19.1812   20.3973 C.ar    1  UNL1        0.0818
     13 C          -2.4798  -19.6805   21.0836 C.ar    1  UNL1        0.1139
     14 N          -1.1368  -19.1331   20.7009 N.ar    1  UNL1       -0.2394
     15 C          -1.0304  -18.0863   19.6318 C.ar    1  UNL1        0.1195
     16 C          -2.2672  -17.5869   18.9454 C.ar    1  UNL1        0.1191
     17 N          -3.6102  -18.1343   19.3282 N.ar    1  UNL1       -0.2446
     18 C          -8.2333  -19.6122   20.0293 C.3     1  UNL1        0.0394
     19 C          -9.4395  -19.0751   19.3176 C.3     1  UNL1        0.0768
     20 N         -10.6927  -18.7766   20.0859 N.3     1  UNL1       -0.2657
     21 C         -11.3991  -17.4679   19.8896 C.3     1  UNL1        0.0900
     22 C         -11.2396  -19.7867   21.0505 C.3     1  UNL1        0.1255
     23 C         -11.0212  -19.6115   22.5241 C.ar    1  UNL1        0.1045
     24 N         -10.0559  -20.3870   23.3707 N.ar    1  UNL1       -0.2398
     25 C         -10.1678  -19.8848   24.7797 C.ar    1  UNL1        0.1061
     26 C         -11.2023  -18.7989   24.8039 C.ar    1  UNL1        0.0572
     27 S         -11.7297  -18.6300   23.4099 S.2     1  UNL1       -0.0688
@<TRIPOS>BOND
     1    11    10    1
     2    11     1    1
     3     1     2    2
     4     2    18    1
     5    18    19    1
     6    19    20    1
     7    20    21    1
     8    20    22    1
     9    22    23    1
    10    23    24   ar
    11    24    25   ar
    12    25    26   ar
    13    26    27   ar
    14     2     3    1
    15     3     4    1
    16     4     5   ar
    17     5     6   ar
    18     6     7   ar
    19     7     8   ar
    20     8     9   ar
    21    11    12    1
    22    12    13   ar
    23    13    14   ar
    24    14    15   ar
    25    15    16   ar
    26    16    17   ar
    27     9     1    1
    28    17    12   ar
    29    27    23   ar
    30     9     4   ar
@<TRIPOS>MOLECULE
*****
 27 30 0 0 0
SMALL
GASTEIGER

@<TRIPOS>ATOM
      1 C          -4.1438  -18.1739   22.1485 C.2     1  UNL1       -0.0246
      2 C          -5.0616  -19.1402   21.4600 C.2     1  UNL1       -0.0421
      3 C          -4.4707  -19.4664   20.1205 C.3     1  UNL1        0.0480
      4 C          -3.1878  -18.7018   19.9810 C.ar    1  UNL1       -0.0184
      5 C          -2.1775  -18.6298   18.8747 C.ar    1  UNL1       -0.0040
      6 C          -0.9651  -17.7589   19.0218 C.ar    1  UNL1       -0.0003
      7 C          -0.7631  -16.9600   20.2752 C.ar    1  UNL1       -0.0000
      8 C          -1.7734  -17.0321   21.3815 C.ar    1  UNL1       -0.0006
      9 C          -2.9857  -17.9030   21.2344 C.ar    1  UNL1       -0.0079
     10 C          -3.4304  -17.9575   24.6374 C.3     1  UNL1        0.0111
     11 C          -4.3482  -17.5824   23.5117 C.3     1  UNL1        0.0634
     12 C          -5.4702  -16.6158   23.7493 C.ar    1  UNL1        0.0818
     13 C          -5.4199  -15.6818   24.9220 C.ar    1  UNL1        0.1139
     14 N          -6.5420  -14.7151   25.1596 N.ar    1  UNL1       -0.2394
     15 C          -7.7145  -14.6825   24.2246 C.ar    1  UNL1        0.1195
     16 C          -7.7649  -15.6165   23.0520 C.ar    1  UNL1        0.1191
     17 N          -6.6428  -16.5832   22.8144 N.ar    1  UNL1       -0.2446
     18 C          -6.3449  -19.6846   22.0139 C.3     1  UNL1        0.0394
     19 C          -7.6282  -19.4909   21.2619 C.3     1  UNL1        0.0768
     20 N          -8.9424  -19.6616   21.9647 N.3     1  UNL1       -0.2657
     21 C          -8.9760  -19.8927   23.4464 C.3     1  UNL1        0.0900
     22 C         -10.2228  -19.6012   21.1858 C.3     1  UNL1        0.1255
     23 C         -10.9021  -18.2829   20.9603 C.ar    1  UNL1        0.1045
     24 N         -10.7330  -17.3976   19.7614 N.ar    1  UNL1       -0.2398
     25 C         -11.5961  -16.1860   19.9543 C.ar    1  UNL1        0.1061
     26 C         -12.2986  -16.3226   21.2726 C.ar    1  UNL1        0.0572
     27 S         -11.8697  -17.6185   21.8943 S.2     1  UNL1       -0.0688
@<TRIPOS>BOND
     1    11    10    1
     2    11     1    1
     3     1     2    2
     4     2    18    1
     5    18    19    1
     6    19    20    1
     7    20    21    1
     8    20    22    1
     9    22    23    1
    10    23    24   ar
    11    24    25   ar
    12    25    26   ar
    13    26    27   ar
    14     2     3    1
    15     3     4    1
    16     4     5   ar
    17     5     6   ar
    18     6     7   ar
    19     7     8   ar
    20     8     9   ar
    21    11    12    1
    22    12    13   ar
    23    13    14   ar
    24    14    15   ar
    25    15    16   ar
    26    16    17   ar
    27     9     1    1
    28    17    12   ar
    29    27    23   ar
    30     9     4   ar
@<TRIPOS>MOLECULE
*****
 27 30 0 0 0
SMALL
GASTEIGER

@<TRIPOS>ATOM
      1 C          -6.4488  -17.9626   22.6500 C.2     1  UNL1       -0.0246
      2 C          -6.9557  -19.3121   22.2355 C.2     1  UNL1       -0.0421
      3 C          -5.7726  -20.1616   21.8769 C.3     1  UNL1        0.0480
      4 C          -4.5344  -19.3371   22.0699 C.ar    1  UNL1       -0.0184
      5 C          -3.0804  -19.6483   21.8722 C.ar    1  UNL1       -0.0040
      6 C          -2.0444  -18.6004   22.1524 C.ar    1  UNL1       -0.0003
      7 C          -2.4623  -17.2413   22.6302 C.ar    1  UNL1       -0.0000
      8 C          -3.9163  -16.9302   22.8278 C.ar    1  UNL1       -0.0006
      9 C          -4.9523  -17.9780   22.5477 C.ar    1  UNL1       -0.0079
     10 C          -8.1954  -16.1170   22.1085 C.3     1  UNL1        0.0111
     11 C          -7.2905  -16.8015   23.0897 C.3     1  UNL1        0.0634
     12 C          -7.2274  -16.3249   24.5105 C.ar    1  UNL1        0.0818
     13 C          -8.4076  -16.5113   25.4174 C.ar    1  UNL1        0.1139
     14 N          -8.3444  -16.0347   26.8382 N.ar    1  UNL1       -0.2394
     15 C          -7.1011  -15.3715   27.3522 C.ar    1  UNL1        0.1195
     16 C          -5.9208  -15.1850   26.4455 C.ar    1  UNL1        0.1191
     17 N          -5.9840  -15.6617   25.0246 N.ar    1  UNL1       -0.2446
     18 C          -8.3934  -19.7375   22.1878 C.3     1  UNL1        0.0394
     19 C          -9.1796  -19.8671   23.4586 C.3     1  UNL1        0.0768
     20 N         -10.6284  -19.4796   23.4870 N.3     1  UNL1       -0.2657
     21 C         -11.2653  -19.0521   24.7761 C.3     1  UNL1        0.0900
     22 C         -11.4403  -19.5195   22.2264 C.3     1  UNL1        0.1255
     23 C         -11.6365  -18.2696   21.4207 C.ar    1  UNL1        0.1045
     24 N         -12.5309  -17.1203   21.7799 N.ar    1  UNL1       -0.2398
     25 C         -12.4199  -16.0899   20.6955 C.ar    1  UNL1        0.1061
     26 C         -11.4568  -16.6023   19.6661 C.ar    1  UNL1        0.0572
     27 S         -10.9727  -17.9495   20.1142 S.2     1  UNL1       -0.0688
@<TRIPOS>BOND
     1    11    10    1
     2    11     1    1
     3     1     2    2
     4     2    18    1
     5    18    19    1
     6    19    20    1
     7    20    21    1
     8    20    22    1
     9    22    23    1
    10    23    24   ar
    11    24    25   ar
    12    25    26   ar
    13    26    27   ar
    14     2     3    1
    15     3     4    1
    16     4     5   ar
    17     5     6   ar
    18     6     7   ar
    19     7     8   ar
    20     8     9   ar
    21    11    12    1
    22    12    13   ar
    23    13    14   ar
    24    14    15   ar
    25    15    16   ar
    26    16    17   ar
    27     9     1    1
    28    17    12   ar
    29    27    23   ar
    30     9     4   ar
@<TRIPOS>MOLECULE
*****
 27 30 0 0 0
SMALL
GASTEIGER

@<TRIPOS>ATOM
      1 C          -6.5227  -17.5946   22.8112 C.2     1  UNL1       -0.0246
      2 C          -7.2695  -18.8428   22.4450 C.2     1  UNL1       -0.0421
      3 C          -6.2667  -19.8769   22.0264 C.3     1  UNL1        0.0480
      4 C          -4.9002  -19.2677   22.1340 C.ar    1  UNL1       -0.0184
      5 C          -3.5323  -19.8152   21.8530 C.ar    1  UNL1       -0.0040
      6 C          -2.3226  -18.9522   22.0570 C.ar    1  UNL1       -0.0003
      7 C          -2.4808  -17.5416   22.5420 C.ar    1  UNL1       -0.0000
      8 C          -3.8487  -16.9941   22.8231 C.ar    1  UNL1       -0.0006
      9 C          -5.0584  -17.8572   22.6190 C.ar    1  UNL1       -0.0079
     10 C          -7.7699  -15.3729   22.3026 C.3     1  UNL1        0.0111
     11 C          -7.1330  -16.3093   23.2863 C.3     1  UNL1        0.0634
     12 C          -7.1064  -15.9605   24.7448 C.ar    1  UNL1        0.0818
     13 C          -5.8740  -15.3555   25.3490 C.ar    1  UNL1        0.1139
     14 N          -5.8475  -15.0067   26.8077 N.ar    1  UNL1       -0.2394
     15 C          -7.0534  -15.2627   27.6621 C.ar    1  UNL1        0.1195
     16 C          -8.2859  -15.8677   27.0580 C.ar    1  UNL1        0.1191
     17 N          -8.3124  -16.2165   25.5993 N.ar    1  UNL1       -0.2446
     18 C          -8.7577  -19.0250   22.4894 C.3     1  UNL1        0.0394
     19 C          -9.4461  -19.8346   21.4308 C.3     1  UNL1        0.0768
     20 N          -9.6183  -19.2730   20.0506 N.3     1  UNL1       -0.2657
     21 C          -8.6361  -19.6206   18.9715 C.3     1  UNL1        0.0900
     22 C         -10.7727  -18.3638   19.7495 C.3     1  UNL1        0.1255
     23 C         -11.4726  -17.6455   20.8650 C.ar    1  UNL1        0.1045
     24 N         -12.5285  -18.2233   21.7602 N.ar    1  UNL1       -0.2398
     25 C         -12.9479  -17.1583   22.7296 C.ar    1  UNL1        0.1061
     26 C         -12.1512  -15.9223   22.4336 C.ar    1  UNL1        0.0572
     27 S         -11.2395  -16.2234   21.2812 S.2     1  UNL1       -0.0688
@<TRIPOS>BOND
     1    11    10    1
     2    11     1    1
     3     1     2    2
     4     2    18    1
     5    18    19    1
     6    19    20    1
     7    20    21    1
     8    20    22    1
     9    22    23    1
    10    23    24   ar
    11    24    25   ar
    12    25    26   ar
    13    26    27   ar
    14     2     3    1
    15     3     4    1
    16     4     5   ar
    17     5     6   ar
    18     6     7   ar
    19     7     8   ar
    20     8     9   ar
    21    11    12    1
    22    12    13   ar
    23    13    14   ar
    24    14    15   ar
    25    15    16   ar
    26    16    17   ar
    27     9     1    1
    28    17    12   ar
    29    27    23   ar
    30     9     4   ar
@<TRIPOS>MOLECULE
*****
 27 30 0 0 0
SMALL
GASTEIGER

@<TRIPOS>ATOM
      1 C          -6.0462  -19.2658   21.0631 C.2     1  UNL1       -0.0246
      2 C          -5.9466  -18.5191   22.3603 C.2     1  UNL1       -0.0421
      3 C          -7.3031  -17.9654   22.6816 C.3     1  UNL1        0.0480
      4 C          -8.2411  -18.3698   21.5831 C.ar    1  UNL1       -0.0184
      5 C          -9.7021  -18.1101   21.3644 C.ar    1  UNL1       -0.0040
      6 C         -10.3863  -18.6540   20.1455 C.ar    1  UNL1       -0.0003
      7 C          -9.6095  -19.4577   19.1452 C.ar    1  UNL1       -0.0000
      8 C          -8.1484  -19.7175   19.3638 C.ar    1  UNL1       -0.0006
      9 C          -7.4642  -19.1735   20.5828 C.ar    1  UNL1       -0.0079
     10 C          -5.0902  -21.4113   19.9525 C.3     1  UNL1        0.0111
     11 C          -4.9247  -19.9795   20.3682 C.3     1  UNL1        0.0634
     12 C          -3.6377  -19.2615   20.0891 C.ar    1  UNL1        0.0818
     13 C          -2.3732  -19.6970   20.7684 C.ar    1  UNL1        0.1139
     14 N          -1.0862  -18.9790   20.4892 N.ar    1  UNL1       -0.2394
     15 C          -1.0635  -17.8255   19.5306 C.ar    1  UNL1        0.1195
     16 C          -2.3279  -17.3899   18.8512 C.ar    1  UNL1        0.1191
     17 N          -3.6150  -18.1079   19.1305 N.ar    1  UNL1       -0.2446
     18 C          -4.7080  -18.3550   23.1903 C.3     1  UNL1        0.0394
     19 C          -3.9954  -17.0355   23.2214 C.3     1  UNL1        0.0768
     20 N          -4.7005  -15.8142   23.7326 N.3     1  UNL1       -0.2657
     21 C          -5.1615  -14.7575   22.7730 C.3     1  UNL1        0.0900
     22 C          -4.9445  -15.6496   25.2034 C.3     1  UNL1        0.1255
     23 C          -6.3480  -15.5634   25.7258 C.ar    1  UNL1        0.1045
     24 N          -7.5860  -15.3746   24.9003 N.ar    1  UNL1       -0.2398
     25 C          -8.7630  -15.3453   25.8297 C.ar    1  UNL1        0.1061
     26 C          -8.2524  -15.5160   27.2297 C.ar    1  UNL1        0.0572
     27 S          -6.7598  -15.6507   27.1655 S.2     1  UNL1       -0.0688
@<TRIPOS>BOND
     1    11    10    1
     2    11     1    1
     3     1     2    2
     4     2    18    1
     5    18    19    1
     6    19    20    1
     7    20    21    1
     8    20    22    1
     9    22    23    1
    10    23    24   ar
    11    24    25   ar
    12    25    26   ar
    13    26    27   ar
    14     2     3    1
    15     3     4    1
    16     4     5   ar
    17     5     6   ar
    18     6     7   ar
    19     7     8   ar
    20     8     9   ar
    21    11    12    1
    22    12    13   ar
    23    13    14   ar
    24    14    15   ar
    25    15    16   ar
    26    16    17   ar
    27     9     1    1
    28    17    12   ar
    29    27    23   ar
    30     9     4   ar
@<TRIPOS>MOLECULE
*****
 27 30 0 0 0
SMALL
GASTEIGER

@<TRIPOS>ATOM
      1 C          -5.0745  -18.0085   22.5897 C.2     1  UNL1       -0.0246
      2 C          -6.1763  -17.0863   23.0206 C.2     1  UNL1       -0.0421
      3 C          -7.4380  -17.5196   22.3347 C.3     1  UNL1        0.0480
      4 C          -7.1160  -18.7094   21.4800 C.ar    1  UNL1       -0.0184
      5 C          -7.9641  -19.5568   20.5786 C.ar    1  UNL1       -0.0040
      6 C          -7.3515  -20.7063   19.8348 C.ar    1  UNL1       -0.0003
      7 C          -5.8908  -21.0085   19.9924 C.ar    1  UNL1       -0.0000
      8 C          -5.0426  -20.1611   20.8938 C.ar    1  UNL1       -0.0006
      9 C          -5.6552  -19.0116   21.6376 C.ar    1  UNL1       -0.0079
     10 C          -3.3090  -17.9628   24.4954 C.3     1  UNL1        0.0111
     11 C          -3.6431  -17.9396   23.0331 C.3     1  UNL1        0.0634
     12 C          -2.5460  -17.8476   22.0145 C.ar    1  UNL1        0.0818
     13 C          -1.9443  -19.0982   21.4452 C.ar    1  UNL1        0.1139
     14 N          -0.8471  -19.0061   20.4265 N.ar    1  UNL1       -0.2394
     15 C          -0.3515  -17.6636   19.9772 C.ar    1  UNL1        0.1195
     16 C          -0.9531  -16.4130   20.5466 C.ar    1  UNL1        0.1191
     17 N          -2.0503  -16.5050   21.5652 N.ar    1  UNL1       -0.2446
     18 C          -6.0403  -15.9334   23.9705 C.3     1  UNL1        0.0394
     19 C          -7.2100  -15.0297   24.2254 C.3     1  UNL1        0.0768
     20 N          -8.3278  -15.4833   25.1169 N.3     1  UNL1       -0.2657
     21 C          -8.1261  -15.5415   26.6022 C.3     1  UNL1        0.0900
     22 C          -9.6473  -15.8785   24.5232 C.3     1  UNL1        0.1255
     23 C         -10.0079  -17.3289   24.3953 C.ar    1  UNL1        0.1045
     24 N          -9.6122  -18.4226   25.3425 N.ar    1  UNL1       -0.2398
     25 C         -10.1873  -19.7100   24.8305 C.ar    1  UNL1        0.1061
     26 C         -10.9383  -19.4118   23.5667 C.ar    1  UNL1        0.0572
     27 S         -10.8275  -17.9403   23.2978 S.2     1  UNL1       -0.0688
@<TRIPOS>BOND
     1    11    10    1
     2    11     1    1
     3     1     2    2
     4     2    18    1
     5    18    19    1
     6    19    20    1
     7    20    21    1
     8    20    22    1
     9    22    23    1
    10    23    24   ar
    11    24    25   ar
    12    25    26   ar
    13    26    27   ar
    14     2     3    1
    15     3     4    1
    16     4     5   ar
    17     5     6   ar
    18     6     7   ar
    19     7     8   ar
    20     8     9   ar
    21    11    12    1
    22    12    13   ar
    23    13    14   ar
    24    14    15   ar
    25    15    16   ar
    26    16    17   ar
    27     9     1    1
    28    17    12   ar
    29    27    23   ar
    30     9     4   ar
@<TRIPOS>MOLECULE
*****
 27 30 0 0 0
SMALL
GASTEIGER

@<TRIPOS>ATOM
      1 C          -6.2297  -19.2547   21.1826 C.2     1  UNL1       -0.0246
      2 C          -7.0928  -18.1915   21.7947 C.2     1  UNL1       -0.0421
      3 C          -8.4414  -18.2560   21.1411 C.3     1  UNL1        0.0480
      4 C          -8.4117  -19.3590   20.1249 C.ar    1  UNL1       -0.0184
      5 C          -9.4528  -19.8811   19.1797 C.ar    1  UNL1       -0.0040
      6 C          -9.1269  -21.0204   18.2600 C.ar    1  UNL1       -0.0003
      7 C          -7.7600  -21.6376   18.2857 C.ar    1  UNL1       -0.0000
      8 C          -6.7190  -21.1155   19.2309 C.ar    1  UNL1       -0.0006
      9 C          -7.0448  -19.9762   20.1506 C.ar    1  UNL1       -0.0079
     10 C          -4.4861  -20.3990   22.7320 C.3     1  UNL1        0.0111
     11 C          -4.8021  -19.5453   21.5397 C.3     1  UNL1        0.0634
     12 C          -3.6906  -18.9823   20.7046 C.ar    1  UNL1        0.0818
     13 C          -2.2647  -19.3142   21.0316 C.ar    1  UNL1        0.1139
     14 N          -1.1532  -18.7512   20.1965 N.ar    1  UNL1       -0.2394
     15 C          -1.4674  -17.8563   19.0344 C.ar    1  UNL1        0.1195
     16 C          -2.8932  -17.5244   18.7074 C.ar    1  UNL1        0.1191
     17 N          -4.0047  -18.0874   19.5425 N.ar    1  UNL1       -0.2446
     18 C          -6.6799  -17.2323   22.8715 C.3     1  UNL1        0.0394
     19 C          -7.6282  -16.1635   23.3279 C.3     1  UNL1        0.0768
     20 N          -8.4654  -16.3773   24.5540 N.3     1  UNL1       -0.2657
     21 C          -8.2913  -15.4838   25.7462 C.3     1  UNL1        0.0900
     22 C          -9.4767  -17.4846   24.5879 C.3     1  UNL1        0.1255
     23 C         -10.7328  -17.3784   23.7748 C.ar    1  UNL1        0.1045
     24 N         -11.0980  -16.2469   22.8603 N.ar    1  UNL1       -0.2398
     25 C         -12.4351  -16.5542   22.2538 C.ar    1  UNL1        0.1061
     26 C         -12.8962  -17.8756   22.7935 C.ar    1  UNL1        0.0572
     27 S         -11.8442  -18.3849   23.7336 S.2     1  UNL1       -0.0688
@<TRIPOS>BOND
     1    11    10    1
     2    11     1    1
     3     1     2    2
     4     2    18    1
     5    18    19    1
     6    19    20    1
     7    20    21    1
     8    20    22    1
     9    22    23    1
    10    23    24   ar
    11    24    25   ar
    12    25    26   ar
    13    26    27   ar
    14     2     3    1
    15     3     4    1
    16     4     5   ar
    17     5     6   ar
    18     6     7   ar
    19     7     8   ar
    20     8     9   ar
    21    11    12    1
    22    12    13   ar
    23    13    14   ar
    24    14    15   ar
    25    15    16   ar
    26    16    17   ar
    27     9     1    1
    28    17    12   ar
    29    27    23   ar
    30     9     4   ar
