@<TRIPOS>MOLECULE
*****
 31 34 0 0 0
SMALL
GASTEIGER

@<TRIPOS>ATOM
      1 N          -4.0724  -17.8081   20.3421 N.am    1  UNL1       -0.2667
      2 C          -4.9116  -19.0337   20.5512 C.2     1  UNL1        0.3077
      3 O          -4.3886  -20.3792   20.1438 O.2     1  UNL1       -0.2522
      4 N          -6.2738  -18.9137   21.1678 N.am    1  UNL1       -0.2640
      5 C          -6.9267  -17.6423   21.6227 C.3     1  UNL1        0.0950
      6 C          -8.2786  -17.9870   22.1737 C.3     1  UNL1        0.0219
      7 C          -9.5177  -17.4142   22.7954 C.3     1  UNL1        0.0061
      8 C         -10.4661  -18.5446   23.0652 C.3     1  UNL1        0.0224
      9 C          -9.8131  -19.8161   22.6102 C.3     1  UNL1        0.0061
     10 C          -8.4612  -19.4714   22.0592 C.3     1  UNL1        0.0219
     11 C          -7.2221  -20.0442   21.4375 C.3     1  UNL1        0.0950
     12 H          -4.4157  -16.9250   20.6095 H       1  UNL1        0.1565
     13 C          -1.5663  -18.4661   20.5329 C.ar    1  UNL1        0.0500
     14 C          -0.2041  -18.5859   19.9163 C.ar    1  UNL1        0.1245
     15 N           0.0140  -18.1677   18.4924 N.ar    1  UNL1       -0.1462
     16 N          -1.1299  -17.6296   17.6851 N.ar    1  UNL1       -0.1450
     17 C          -2.4920  -17.5098   18.3017 C.ar    1  UNL1        0.1368
     18 C          -2.7102  -17.9280   19.7256 C.ar    1  UNL1        0.0753
     19 O          -1.7919  -20.3401   22.3182 O.co2   1  UNL1       -0.5445
     20 C          -1.7844  -18.8843   21.9568 C.2     1  UNL1        0.0757
     21 O          -1.9952  -17.8467   23.0193 O.co2   1  UNL1       -0.5445
     22 C         -11.8282  -18.4247   23.6817 C.ar    1  UNL1       -0.0186
     23 C         -12.0815  -18.9749   25.0540 C.ar    1  UNL1       -0.0043
     24 C         -13.4437  -18.8550   25.6706 C.ar    1  UNL1       -0.0003
     25 C         -14.5526  -18.1848   24.9148 C.ar    1  UNL1       -0.0001
     26 C         -14.2993  -17.6346   23.5424 C.ar    1  UNL1        0.0035
     27 C         -12.9372  -17.7546   22.9260 C.ar    1  UNL1        0.0675
     28 C         -12.6840  -17.2044   21.5537 C.3     1  UNL1        0.4183
     29 F         -12.4307  -16.6542   20.1814 F       1  UNL1       -0.1659
     30 F         -12.6834  -15.8122   22.1120 F       1  UNL1       -0.1659
     31 F         -12.6845  -18.5966   20.9954 F       1  UNL1       -0.1659
@<TRIPOS>UNITY_ATOM_ATTR
19 1
charge -1
@<TRIPOS>BOND
     1    19    20   ar
     2    20    21   ar
     3    20    13    1
     4    13    14   ar
     5    14    15   ar
     6    15    16   ar
     7    16    17   ar
     8    17    18   ar
     9    18     1    1
    10     1     2   am
    11     2     3    2
    12     2     4   am
    13     4     5    1
    14     6     5    1
    15     6     7    1
    16     7     8    1
    17     8    22    1
    18    22    23   ar
    19    23    24   ar
    20    24    25   ar
    21    25    26   ar
    22    26    27   ar
    23    27    28    1
    24    28    29    1
    25    28    30    1
    26    28    31    1
    27     8     9    1
    28    10     9    1
    29    10    11    1
    30    18    13   ar
    31    11     4    1
    32    10     6    1
    33    27    22   ar
    34     1    12    1
@<TRIPOS>MOLECULE
*****
 31 34 0 0 0
SMALL
GASTEIGER

@<TRIPOS>ATOM
      1 N          -3.7833  -17.8866   21.5284 N.am    1  UNL1       -0.2667
      2 C          -4.6715  -19.0947   21.5675 C.2     1  UNL1        0.3077
      3 O          -4.1339  -20.4343   21.1595 O.2     1  UNL1       -0.2522
      4 N          -6.0973  -18.9632   22.0146 N.am    1  UNL1       -0.2640
      5 C          -6.7715  -17.6960   22.4498 C.3     1  UNL1        0.0950
      6 C          -8.1900  -18.0255   22.8092 C.3     1  UNL1        0.0219
      7 C          -9.4835  -17.4460   23.3003 C.3     1  UNL1        0.0061
      8 C         -10.4853  -18.5587   23.3908 C.3     1  UNL1        0.0224
      9 C          -9.8110  -19.8261   22.9556 C.3     1  UNL1        0.0061
     10 C          -8.3925  -19.4965   22.5962 C.3     1  UNL1        0.0219
     11 C          -7.0990  -20.0760   22.1051 C.3     1  UNL1        0.0950
     12 H          -4.1362  -17.0074   21.7962 H       1  UNL1        0.1565
     13 C          -2.0027  -17.8172   19.6378 C.ar    1  UNL1        0.0500
     14 C          -0.5768  -17.9486   19.1908 C.ar    1  UNL1        0.1245
     15 N           0.4940  -18.2807   20.1872 N.ar    1  UNL1       -0.1462
     16 N           0.1392  -18.4814   21.6307 N.ar    1  UNL1       -0.1450
     17 C          -1.2866  -18.3500   22.0778 C.ar    1  UNL1        0.1368
     18 C          -2.3575  -18.0179   21.0813 C.ar    1  UNL1        0.0753
     19 O          -4.4555  -18.0430   18.8115 O.co2   1  UNL1       -0.5445
     20 C          -3.0735  -17.4851   18.6413 C.2     1  UNL1        0.0757
     21 O          -2.7624  -16.5952   17.4746 O.co2   1  UNL1       -0.5445
     22 C         -11.9110  -18.4273   23.8379 C.ar    1  UNL1       -0.0186
     23 C         -12.3076  -18.8626   25.2174 C.ar    1  UNL1       -0.0043
     24 C         -13.7334  -18.7312   25.6646 C.ar    1  UNL1       -0.0003
     25 C         -14.7626  -18.1645   24.7321 C.ar    1  UNL1       -0.0001
     26 C         -14.3660  -17.7292   23.3525 C.ar    1  UNL1        0.0035
     27 C         -12.9403  -17.8606   22.9054 C.ar    1  UNL1        0.0675
     28 C         -12.5438  -17.4254   21.5258 C.3     1  UNL1        0.4183
     29 F         -12.1472  -16.9901   20.1462 F       1  UNL1       -0.1659
     30 F         -12.5627  -15.9934   21.9721 F       1  UNL1       -0.1659
     31 F         -12.5249  -18.8573   21.0794 F       1  UNL1       -0.1659
@<TRIPOS>UNITY_ATOM_ATTR
19 1
charge -1
@<TRIPOS>BOND
     1    19    20   ar
     2    20    21   ar
     3    20    13    1
     4    13    14   ar
     5    14    15   ar
     6    15    16   ar
     7    16    17   ar
     8    17    18   ar
     9    18     1    1
    10     1     2   am
    11     2     3    2
    12     2     4   am
    13     4     5    1
    14     6     5    1
    15     6     7    1
    16     7     8    1
    17     8    22    1
    18    22    23   ar
    19    23    24   ar
    20    24    25   ar
    21    25    26   ar
    22    26    27   ar
    23    27    28    1
    24    28    29    1
    25    28    30    1
    26    28    31    1
    27     8     9    1
    28    10     9    1
    29    10    11    1
    30    18    13   ar
    31    11     4    1
    32    10     6    1
    33    27    22   ar
    34     1    12    1
@<TRIPOS>MOLECULE
*****
 31 34 0 0 0
SMALL
GASTEIGER

@<TRIPOS>ATOM
      1 N           7.2205   -5.0685   26.8928 N.am    1  UNL1       -0.2667
      2 C           8.0394   -4.3995   25.8289 C.2     1  UNL1        0.3077
      3 O           9.5356   -4.3817   25.9344 O.2     1  UNL1       -0.2522
      4 N           7.3622   -3.7483   24.6597 N.am    1  UNL1       -0.2640
      5 C           5.8827   -3.6863   24.4201 C.3     1  UNL1        0.0950
      6 C           5.6517   -2.9445   23.1370 C.3     1  UNL1        0.0219
      7 C           4.5945   -2.4477   22.1959 C.3     1  UNL1        0.0061
      8 C           5.2778   -1.7441   21.0609 C.3     1  UNL1        0.0224
      9 C           6.7573   -1.8062   21.3005 C.3     1  UNL1        0.0061
     10 C           6.9883   -2.5480   22.5836 C.3     1  UNL1        0.0219
     11 C           8.0455   -3.0448   23.5247 C.3     1  UNL1        0.0950
     12 H           6.2385   -5.0801   26.8236 H       1  UNL1        0.1565
     13 C           8.4396   -7.1126   27.9348 C.ar    1  UNL1        0.0500
     14 C           9.1168   -7.7637   29.1042 C.ar    1  UNL1        0.1245
     15 N           9.2521   -7.0220   30.4009 N.ar    1  UNL1       -0.1462
     16 N           8.7102   -5.6291   30.5283 N.ar    1  UNL1       -0.1450
     17 C           8.0330   -4.9780   29.3589 C.ar    1  UNL1        0.1368
     18 C           7.8977   -5.7197   28.0622 C.ar    1  UNL1        0.0753
     19 O           6.9440   -8.1213   26.0651 O.co2   1  UNL1       -0.5445
     20 C           8.3043   -7.8543   26.6380 C.2     1  UNL1        0.0757
     21 O           9.5294   -8.3290   25.9143 O.co2   1  UNL1       -0.5445
     22 C           4.6006   -1.0930   19.8916 C.ar    1  UNL1       -0.0186
     23 C           4.2449    0.3632   19.9464 C.ar    1  UNL1       -0.0043
     24 C           3.5677    1.0145   18.7771 C.ar    1  UNL1       -0.0003
     25 C           3.2460    0.2095   17.5530 C.ar    1  UNL1       -0.0001
     26 C           3.6017   -1.2468   17.4982 C.ar    1  UNL1        0.0035
     27 C           4.2789   -1.8980   18.6674 C.ar    1  UNL1        0.0675
     28 C           4.6345   -3.3542   18.6126 C.3     1  UNL1        0.4183
     29 F           4.9901   -4.8103   18.5578 F       1  UNL1       -0.1659
     30 F           5.9604   -3.0074   18.0028 F       1  UNL1       -0.1659
     31 F           3.3087   -3.7009   19.2224 F       1  UNL1       -0.1659
@<TRIPOS>UNITY_ATOM_ATTR
19 1
charge -1
@<TRIPOS>BOND
     1    19    20   ar
     2    20    21   ar
     3    20    13    1
     4    13    14   ar
     5    14    15   ar
     6    15    16   ar
     7    16    17   ar
     8    17    18   ar
     9    18     1    1
    10     1     2   am
    11     2     3    2
    12     2     4   am
    13     4     5    1
    14     6     5    1
    15     6     7    1
    16     7     8    1
    17     8    22    1
    18    22    23   ar
    19    23    24   ar
    20    24    25   ar
    21    25    26   ar
    22    26    27   ar
    23    27    28    1
    24    28    29    1
    25    28    30    1
    26    28    31    1
    27     8     9    1
    28    10     9    1
    29    10    11    1
    30    18    13   ar
    31    11     4    1
    32    10     6    1
    33    27    22   ar
    34     1    12    1
@<TRIPOS>MOLECULE
*****
 31 34 0 0 0
SMALL
GASTEIGER

@<TRIPOS>ATOM
      1 N           6.4951   -2.5132   28.0155 N.am    1  UNL1       -0.2667
      2 C           5.2091   -2.0256   27.4170 C.2     1  UNL1        0.3077
      3 O           4.0153   -1.7902   28.2943 O.2     1  UNL1       -0.2522
      4 N           5.1167   -1.7734   25.9412 N.am    1  UNL1       -0.2640
      5 C           6.2207   -1.9629   24.9436 C.3     1  UNL1        0.0950
      6 C           5.6903   -1.5940   23.5898 C.3     1  UNL1        0.0219
      7 C           6.0449   -1.4831   22.1366 C.3     1  UNL1        0.0061
      8 C           4.8323   -0.9971   21.3993 C.3     1  UNL1        0.0224
      9 C           3.7282   -0.8076   22.3971 C.3     1  UNL1        0.0061
     10 C           4.2586   -1.1765   23.7508 C.3     1  UNL1        0.0219
     11 C           3.9040   -1.2874   25.2041 C.3     1  UNL1        0.0950
     12 H           7.2786   -2.6677   27.4397 H       1  UNL1        0.1565
     13 C           6.7285   -4.1677   30.0051 C.ar    1  UNL1        0.0500
     14 C           6.8210   -4.4198   31.4808 C.ar    1  UNL1        0.1245
     15 N           6.7725   -3.2698   32.4427 N.ar    1  UNL1       -0.1462
     16 N           6.6317   -1.8677   31.9289 N.ar    1  UNL1       -0.1450
     17 C           6.5392   -1.6155   30.4531 C.ar    1  UNL1        0.1368
     18 C           6.5876   -2.7655   29.4912 C.ar    1  UNL1        0.0753
     19 O           7.8162   -6.3872   29.2046 O.co2   1  UNL1       -0.5445
     20 C           6.7769   -5.3176   29.0432 C.2     1  UNL1        0.0757
     21 O           5.7861   -5.3981   27.9199 O.co2   1  UNL1       -0.5445
     22 C           4.7398   -0.7449   19.9237 C.ar    1  UNL1       -0.0186
     23 C           4.9963    0.6295   19.3801 C.ar    1  UNL1       -0.0043
     24 C           4.9039    0.8818   17.9044 C.ar    1  UNL1       -0.0003
     25 C           4.5550   -0.2404   16.9721 C.ar    1  UNL1       -0.0001
     26 C           4.2986   -1.6148   17.5156 C.ar    1  UNL1        0.0035
     27 C           4.3910   -1.8670   18.9913 C.ar    1  UNL1        0.0675
     28 C           4.1346   -3.2414   19.5348 C.3     1  UNL1        0.4183
     29 F           3.8782   -4.6157   20.0783 F       1  UNL1       -0.1659
     30 F           2.6732   -2.9234   19.6493 F       1  UNL1       -0.1659
     31 F           5.5960   -3.5593   19.4203 F       1  UNL1       -0.1659
@<TRIPOS>UNITY_ATOM_ATTR
19 1
charge -1
@<TRIPOS>BOND
     1    19    20   ar
     2    20    21   ar
     3    20    13    1
     4    13    14   ar
     5    14    15   ar
     6    15    16   ar
     7    16    17   ar
     8    17    18   ar
     9    18     1    1
    10     1     2   am
    11     2     3    2
    12     2     4   am
    13     4     5    1
    14     6     5    1
    15     6     7    1
    16     7     8    1
    17     8    22    1
    18    22    23   ar
    19    23    24   ar
    20    24    25   ar
    21    25    26   ar
    22    26    27   ar
    23    27    28    1
    24    28    29    1
    25    28    30    1
    26    28    31    1
    27     8     9    1
    28    10     9    1
    29    10    11    1
    30    18    13   ar
    31    11     4    1
    32    10     6    1
    33    27    22   ar
    34     1    12    1
@<TRIPOS>MOLECULE
*****
 31 34 0 0 0
SMALL
GASTEIGER

@<TRIPOS>ATOM
      1 N         -16.2529    1.5497   19.1806 N.am    1  UNL1       -0.2667
      2 C         -14.8329    1.5075   18.6992 C.2     1  UNL1        0.3077
      3 O         -14.1614    2.7651   18.2328 O.2     1  UNL1       -0.2522
      4 N         -14.0844    0.2076   18.6841 N.am    1  UNL1       -0.2640
      5 C         -14.6214   -1.1240   19.1180 C.3     1  UNL1        0.0950
      6 C         -13.5364   -2.1434   18.9345 C.3     1  UNL1        0.0219
      7 C         -13.1977   -3.5964   19.0893 C.3     1  UNL1        0.0061
      8 C         -11.7808   -3.7928   18.6377 C.3     1  UNL1        0.0224
      9 C         -11.2438   -2.4610   18.2038 C.3     1  UNL1        0.0061
     10 C         -12.3288   -1.4417   18.3873 C.3     1  UNL1        0.0219
     11 C         -12.6675    0.0114   18.2325 C.3     1  UNL1        0.0950
     12 H         -16.6936    0.7243   19.4867 H       1  UNL1        0.1565
     13 C         -17.3917    3.4751   20.5020 C.ar    1  UNL1        0.0500
     14 C         -18.1403    4.7749   20.5170 C.ar    1  UNL1        0.1245
     15 N         -18.4985    5.4491   19.2258 N.ar    1  UNL1       -0.1462
     16 N         -18.1083    4.8235   17.9196 N.ar    1  UNL1       -0.1450
     17 C         -17.3597    3.5237   17.9045 C.ar    1  UNL1        0.1368
     18 C         -17.0015    2.8496   19.1957 C.ar    1  UNL1        0.0753
     19 O         -16.4305    3.5968   22.9126 O.co2   1  UNL1       -0.5445
     20 C         -17.0335    2.8010   21.7932 C.2     1  UNL1        0.0757
     21 O         -17.2782    1.3311   21.9649 O.co2   1  UNL1       -0.5445
     22 C         -11.0323   -5.0925   18.6226 C.ar    1  UNL1       -0.0186
     23 C          -9.7288   -5.2160   19.3545 C.ar    1  UNL1       -0.0043
     24 C          -8.9803   -6.5158   19.3394 C.ar    1  UNL1       -0.0003
     25 C          -9.5353   -7.6922   18.5925 C.ar    1  UNL1       -0.0001
     26 C         -10.8388   -7.5688   17.8605 C.ar    1  UNL1        0.0035
     27 C         -11.5873   -6.2690   17.8756 C.ar    1  UNL1        0.0675
     28 C         -12.8908   -6.1456   17.1437 C.3     1  UNL1        0.4183
     29 F         -14.1943   -6.0222   16.4118 F       1  UNL1       -0.1659
     30 F         -13.6025   -6.7732   18.3054 F       1  UNL1       -0.1659
     31 F         -12.1791   -5.5181   15.9820 F       1  UNL1       -0.1659
@<TRIPOS>UNITY_ATOM_ATTR
19 1
charge -1
@<TRIPOS>BOND
     1    19    20   ar
     2    20    21   ar
     3    20    13    1
     4    13    14   ar
     5    14    15   ar
     6    15    16   ar
     7    16    17   ar
     8    17    18   ar
     9    18     1    1
    10     1     2   am
    11     2     3    2
    12     2     4   am
    13     4     5    1
    14     6     5    1
    15     6     7    1
    16     7     8    1
    17     8    22    1
    18    22    23   ar
    19    23    24   ar
    20    24    25   ar
    21    25    26   ar
    22    26    27   ar
    23    27    28    1
    24    28    29    1
    25    28    30    1
    26    28    31    1
    27     8     9    1
    28    10     9    1
    29    10    11    1
    30    18    13   ar
    31    11     4    1
    32    10     6    1
    33    27    22   ar
    34     1    12    1
@<TRIPOS>MOLECULE
*****
 31 34 0 0 0
SMALL
GASTEIGER

@<TRIPOS>ATOM
      1 N          -2.6639    2.5325   20.5064 N.am    1  UNL1       -0.2667
      2 C          -1.3124    2.9988   20.9600 C.2     1  UNL1        0.3077
      3 O          -1.1392    4.3898   21.4938 O.2     1  UNL1       -0.2522
      4 N          -0.1340    2.0741   20.8797 N.am    1  UNL1       -0.2640
      5 C          -0.1536    0.6631   20.3713 C.3     1  UNL1        0.0950
      6 C           1.2392    0.1151   20.4711 C.3     1  UNL1        0.0219
      7 C           2.0878   -1.0957   20.2186 C.3     1  UNL1        0.0061
      8 C           3.4927   -0.7717   20.6327 C.3     1  UNL1        0.0224
      9 C           3.5122    0.6395   21.1412 C.3     1  UNL1        0.0061
     10 C           2.1195    1.1874   21.0413 C.3     1  UNL1        0.0219
     11 C           1.2708    2.3982   21.2938 C.3     1  UNL1        0.0950
     12 H          -2.7776    1.6195   20.1560 H       1  UNL1        0.1565
     13 C          -4.3194    4.1725   19.3575 C.ar    1  UNL1        0.0500
     14 C          -5.4978    5.0971   19.4379 C.ar    1  UNL1        0.1245
     15 N          -6.1991    5.3062   20.7472 N.ar    1  UNL1       -0.1462
     16 N          -5.7222    4.5908   21.9762 N.ar    1  UNL1       -0.1450
     17 C          -4.5437    3.6662   21.8959 C.ar    1  UNL1        0.1368
     18 C          -3.8424    3.4571   20.5866 C.ar    1  UNL1        0.0753
     19 O          -4.3394    3.3100   16.9069 O.co2   1  UNL1       -0.5445
     20 C          -3.6180    3.9634   18.0482 C.2     1  UNL1        0.0757
     21 O          -2.1952    4.4077   17.8802 O.co2   1  UNL1       -0.5445
     22 C           4.6710   -1.6963   20.5525 C.ar    1  UNL1       -0.0186
     23 C           5.0334   -2.5532   21.7290 C.ar    1  UNL1       -0.0043
     24 C           6.2118   -3.4779   21.6488 C.ar    1  UNL1       -0.0003
     25 C           7.0278   -3.5456   20.3920 C.ar    1  UNL1       -0.0001
     26 C           6.6653   -2.6887   19.2154 C.ar    1  UNL1        0.0035
     27 C           5.4870   -1.7641   19.2956 C.ar    1  UNL1        0.0675
     28 C           5.1246   -0.9071   18.1191 C.3     1  UNL1        0.4183
     29 F           4.7621   -0.0502   16.9425 F       1  UNL1       -0.1659
     30 F           6.0342    0.1728   18.6254 F       1  UNL1       -0.1659
     31 F           4.2149   -1.9870   17.6128 F       1  UNL1       -0.1659
@<TRIPOS>UNITY_ATOM_ATTR
19 1
charge -1
@<TRIPOS>BOND
     1    19    20   ar
     2    20    21   ar
     3    20    13    1
     4    13    14   ar
     5    14    15   ar
     6    15    16   ar
     7    16    17   ar
     8    17    18   ar
     9    18     1    1
    10     1     2   am
    11     2     3    2
    12     2     4   am
    13     4     5    1
    14     6     5    1
    15     6     7    1
    16     7     8    1
    17     8    22    1
    18    22    23   ar
    19    23    24   ar
    20    24    25   ar
    21    25    26   ar
    22    26    27   ar
    23    27    28    1
    24    28    29    1
    25    28    30    1
    26    28    31    1
    27     8     9    1
    28    10     9    1
    29    10    11    1
    30    18    13   ar
    31    11     4    1
    32    10     6    1
    33    27    22   ar
    34     1    12    1
@<TRIPOS>MOLECULE
*****
 31 34 0 0 0
SMALL
GASTEIGER

@<TRIPOS>ATOM
      1 N          -2.9525    2.6252   20.5544 N.am    1  UNL1       -0.2667
      2 C          -1.7307    3.3457   20.0663 C.2     1  UNL1        0.3077
      3 O          -1.8282    4.7780   19.6318 O.2     1  UNL1       -0.2522
      4 N          -0.4115    2.6338   20.0128 N.am    1  UNL1       -0.2640
      5 C          -0.1612    1.2098   20.4123 C.3     1  UNL1        0.0950
      6 C           1.2940    0.9169   20.1968 C.3     1  UNL1        0.0219
      7 C           2.3481   -0.1442   20.3104 C.3     1  UNL1        0.0061
      8 C           3.6487    0.4429   19.8480 C.3     1  UNL1        0.0224
      9 C           3.3984    1.8669   19.4486 C.3     1  UNL1        0.0061
     10 C           1.9431    2.1598   19.6641 C.3     1  UNL1        0.0219
     11 C           0.8891    3.2210   19.5504 C.3     1  UNL1        0.0950
     12 H          -2.8885    1.6851   20.8396 H       1  UNL1        0.1565
     13 C          -4.7757    3.8855   21.9099 C.ar    1  UNL1        0.0500
     14 C          -6.0950    4.5973   21.9634 C.ar    1  UNL1        0.1245
     15 N          -6.9102    4.7606   20.7149 N.ar    1  UNL1       -0.1462
     16 N          -6.4063    4.2121   19.4130 N.ar    1  UNL1       -0.1450
     17 C          -5.0870    3.5003   19.3595 C.ar    1  UNL1        0.1368
     18 C          -4.2718    3.3370   20.6080 C.ar    1  UNL1        0.0753
     19 O          -2.5559    4.2462   23.2108 O.co2   1  UNL1       -0.5445
     20 C          -3.9604    3.7223   23.1584 C.2     1  UNL1        0.0757
     21 O          -4.5497    3.0351   24.3544 O.co2   1  UNL1       -0.5445
     22 C           4.9679   -0.2689   19.7945 C.ar    1  UNL1       -0.0186
     23 C           5.8851   -0.2389   20.9810 C.ar    1  UNL1       -0.0043
     24 C           7.2044   -0.9507   20.9276 C.ar    1  UNL1       -0.0003
     25 C           7.6064   -1.6927   19.6875 C.ar    1  UNL1       -0.0001
     26 C           6.6892   -1.7228   18.5009 C.ar    1  UNL1        0.0035
     27 C           5.3700   -1.0109   18.5544 C.ar    1  UNL1        0.0675
     28 C           4.4528   -1.0410   17.3679 C.3     1  UNL1        0.4183
     29 F           3.5357   -1.0711   16.1813 F       1  UNL1       -0.1659
     30 F           3.7290   -2.2152   17.9572 F       1  UNL1       -0.1659
     31 F           5.1767    0.1331   16.7785 F       1  UNL1       -0.1659
@<TRIPOS>UNITY_ATOM_ATTR
19 1
charge -1
@<TRIPOS>BOND
     1    19    20   ar
     2    20    21   ar
     3    20    13    1
     4    13    14   ar
     5    14    15   ar
     6    15    16   ar
     7    16    17   ar
     8    17    18   ar
     9    18     1    1
    10     1     2   am
    11     2     3    2
    12     2     4   am
    13     4     5    1
    14     6     5    1
    15     6     7    1
    16     7     8    1
    17     8    22    1
    18    22    23   ar
    19    23    24   ar
    20    24    25   ar
    21    25    26   ar
    22    26    27   ar
    23    27    28    1
    24    28    29    1
    25    28    30    1
    26    28    31    1
    27     8     9    1
    28    10     9    1
    29    10    11    1
    30    18    13   ar
    31    11     4    1
    32    10     6    1
    33    27    22   ar
    34     1    12    1
@<TRIPOS>MOLECULE
*****
 31 34 0 0 0
SMALL
GASTEIGER

@<TRIPOS>ATOM
      1 N           4.4798   -1.0218   21.5724 N.am    1  UNL1       -0.2667
      2 C           3.1640   -0.3363   21.7929 C.2     1  UNL1        0.3077
      3 O           2.2133   -0.1517   20.6475 O.2     1  UNL1       -0.2522
      4 N           2.7989    0.1647   23.1588 N.am    1  UNL1       -0.2640
      5 C           3.6430    0.0528   24.3937 C.3     1  UNL1        0.0950
      6 C           2.8913    0.6845   25.5277 C.3     1  UNL1        0.0219
      7 C           2.9485    1.0057   26.9918 C.3     1  UNL1        0.0061
      8 C           1.6752    1.7066   27.3627 C.3     1  UNL1        0.0224
      9 C           0.8311    1.8185   26.1277 C.3     1  UNL1        0.0061
     10 C           1.5827    1.1868   24.9937 C.3     1  UNL1        0.0219
     11 C           1.5256    0.8656   23.5296 C.3     1  UNL1        0.0950
     12 H           5.1038   -1.1429   22.3242 H       1  UNL1        0.1565
     13 C           4.8278   -2.9947   19.9182 C.ar    1  UNL1        0.0500
     14 C           5.1930   -3.4956   18.5523 C.ar    1  UNL1        0.1245
     15 N           5.5753   -2.5246   17.4748 N.ar    1  UNL1       -0.1462
     16 N           5.5925   -1.0527   17.7631 N.ar    1  UNL1       -0.1450
     17 C           5.2273   -0.5518   19.1290 C.ar    1  UNL1        0.1368
     18 C           4.8450   -1.5228   20.2065 C.ar    1  UNL1        0.0753
     19 O           3.7456   -5.2437   20.6397 O.co2   1  UNL1       -0.5445
     20 C           4.4455   -3.9657   20.9957 C.2     1  UNL1        0.0757
     21 O           4.7632   -3.6586   22.4291 O.co2   1  UNL1       -0.5445
     22 C           1.3101    2.2075   28.7285 C.ar    1  UNL1       -0.0186
     23 C           1.9567    3.4479   29.2701 C.ar    1  UNL1       -0.0043
     24 C           1.5916    3.9489   30.6360 C.ar    1  UNL1       -0.0003
     25 C           0.5799    3.2095   31.4604 C.ar    1  UNL1       -0.0001
     26 C          -0.0668    1.9691   30.9188 C.ar    1  UNL1        0.0035
     27 C           0.2983    1.4681   29.5530 C.ar    1  UNL1        0.0675
     28 C          -0.3484    0.2278   29.0114 C.3     1  UNL1        0.4183
     29 F          -0.9950   -1.0126   28.4698 F       1  UNL1       -0.1659
     30 F          -1.5017    1.0469   28.5126 F       1  UNL1       -0.1659
     31 F           0.8050   -0.5913   29.5102 F       1  UNL1       -0.1659
@<TRIPOS>UNITY_ATOM_ATTR
19 1
charge -1
@<TRIPOS>BOND
     1    19    20   ar
     2    20    21   ar
     3    20    13    1
     4    13    14   ar
     5    14    15   ar
     6    15    16   ar
     7    16    17   ar
     8    17    18   ar
     9    18     1    1
    10     1     2   am
    11     2     3    2
    12     2     4   am
    13     4     5    1
    14     6     5    1
    15     6     7    1
    16     7     8    1
    17     8    22    1
    18    22    23   ar
    19    23    24   ar
    20    24    25   ar
    21    25    26   ar
    22    26    27   ar
    23    27    28    1
    24    28    29    1
    25    28    30    1
    26    28    31    1
    27     8     9    1
    28    10     9    1
    29    10    11    1
    30    18    13   ar
    31    11     4    1
    32    10     6    1
    33    27    22   ar
    34     1    12    1
@<TRIPOS>MOLECULE
*****
 31 34 0 0 0
SMALL
GASTEIGER

@<TRIPOS>ATOM
      1 N           7.2148   -5.0419   26.9497 N.am    1  UNL1       -0.2667
      2 C           8.0457   -4.5351   25.8083 C.2     1  UNL1        0.3077
      3 O           9.5359   -4.7048   25.8322 O.2     1  UNL1       -0.2522
      4 N           7.3865   -3.8587   24.6430 N.am    1  UNL1       -0.2640
      5 C           5.9148   -3.6185   24.4801 C.3     1  UNL1        0.0950
      6 C           5.7021   -2.9150   23.1725 C.3     1  UNL1        0.0219
      7 C           4.6610   -2.3318   22.2636 C.3     1  UNL1        0.0061
      8 C           5.3577   -1.7768   21.0567 C.3     1  UNL1        0.0224
      9 C           6.8294   -2.0169   21.2197 C.3     1  UNL1        0.0061
     10 C           7.0422   -2.7204   22.5273 C.3     1  UNL1        0.0219
     11 C           8.0832   -3.3036   23.4362 C.3     1  UNL1        0.0950
     12 H           6.2367   -4.9305   26.9339 H       1  UNL1        0.1565
     13 C           7.8662   -5.0640   29.4647 C.ar    1  UNL1        0.0500
     14 C           8.5254   -5.7405   30.6299 C.ar    1  UNL1        0.1245
     15 N           9.1923   -7.0714   30.4454 N.ar    1  UNL1       -0.1462
     16 N           9.2000   -7.7258   29.0958 N.ar    1  UNL1       -0.1450
     17 C           8.5408   -7.0492   27.9305 C.ar    1  UNL1        0.1368
     18 C           7.8740   -5.7184   28.1150 C.ar    1  UNL1        0.0753
     19 O           6.3268   -3.4907   30.8449 O.co2   1  UNL1       -0.5445
     20 C           7.1993   -3.7331   29.6491 C.2     1  UNL1        0.0757
     21 O           7.4050   -2.6446   28.6378 O.co2   1  UNL1       -0.5445
     22 C           4.6985   -1.1003   19.8915 C.ar    1  UNL1       -0.0186
     23 C           4.4113    0.3710   19.9426 C.ar    1  UNL1       -0.0043
     24 C           3.7521    1.0475   18.7773 C.ar    1  UNL1       -0.0003
     25 C           3.3801    0.2526   17.5609 C.ar    1  UNL1       -0.0001
     26 C           3.6673   -1.2188   17.5098 C.ar    1  UNL1        0.0035
     27 C           4.3264   -1.8953   18.6750 C.ar    1  UNL1        0.0675
     28 C           4.6136   -3.3666   18.6238 C.3     1  UNL1        0.4183
     29 F           4.9008   -4.8380   18.5727 F       1  UNL1       -0.1659
     30 F           5.9401   -3.0854   17.9825 F       1  UNL1       -0.1659
     31 F           3.2871   -3.6478   19.2652 F       1  UNL1       -0.1659
@<TRIPOS>UNITY_ATOM_ATTR
19 1
charge -1
@<TRIPOS>BOND
     1    19    20   ar
     2    20    21   ar
     3    20    13    1
     4    13    14   ar
     5    14    15   ar
     6    15    16   ar
     7    16    17   ar
     8    17    18   ar
     9    18     1    1
    10     1     2   am
    11     2     3    2
    12     2     4   am
    13     4     5    1
    14     6     5    1
    15     6     7    1
    16     7     8    1
    17     8    22    1
    18    22    23   ar
    19    23    24   ar
    20    24    25   ar
    21    25    26   ar
    22    26    27   ar
    23    27    28    1
    24    28    29    1
    25    28    30    1
    26    28    31    1
    27     8     9    1
    28    10     9    1
    29    10    11    1
    30    18    13   ar
    31    11     4    1
    32    10     6    1
    33    27    22   ar
    34     1    12    1
