@<TRIPOS>MOLECULE
*****
 36 39 0 0 0
SMALL
GASTEIGER

@<TRIPOS>ATOM
      1 C          -5.1118  -19.8749   20.7664 C.3     1  UNL1        0.1225
      2 O          -6.1579  -20.7407   20.1291 O.3     1  UNL1       -0.3559
      3 C          -7.6028  -20.5590   20.4888 C.3     1  UNL1        0.1441
      4 C          -8.0016  -19.5116   21.4857 C.3     1  UNL1        0.0589
      5 C          -6.9555  -18.6459   22.1230 C.3     1  UNL1        0.1466
      6 C          -7.3542  -17.5985   23.1200 C.ar    1  UNL1        0.0618
      7 C          -8.7991  -17.4168   23.4797 C.ar    1  UNL1        0.1407
      8 F         -10.0716  -18.0852   23.0508 F       1  UNL1       -0.2043
      9 C          -9.1979  -16.3695   24.4766 C.ar    1  UNL1        0.0319
     10 C          -8.1518  -15.5037   25.1140 C.ar    1  UNL1        0.0351
     11 C          -6.7069  -15.6853   24.7543 C.ar    1  UNL1        0.1737
     12 F          -5.6608  -14.8196   25.3916 F       1  UNL1       -0.2010
     13 C          -6.3081  -16.7328   23.7573 C.ar    1  UNL1        0.1655
     14 O          -4.8633  -16.9144   23.3977 O.3     1  UNL1       -0.4732
     15 C          -4.4645  -17.9618   22.4007 C.3     1  UNL1        0.2098
     16 C          -5.5106  -18.8276   21.7634 C.3     1  UNL1        0.0957
     17 S          -8.4003  -18.4643   22.4827 S.O2    1  UNL1        0.0094
     18 O          -8.6676  -18.8145   23.1470 O.2     1  UNL1       -0.1684
     19 O          -8.9429  -17.6022   21.3815 O.2     1  UNL1       -0.1684
     20 C          -9.8452  -18.2826   22.8423 C.ar    1  UNL1        0.1059
     21 C         -10.4400  -19.0645   23.9759 C.ar    1  UNL1        0.0192
     22 C         -11.8848  -18.8829   24.3356 C.ar    1  UNL1        0.0127
     23 C         -12.7350  -17.9193   23.5616 C.ar    1  UNL1        0.0578
     24 CL        -14.1798  -17.7377   23.9212 Cl      1  UNL1       -0.0822
     25 C         -12.1402  -17.1375   22.4281 C.ar    1  UNL1        0.0127
     26 C         -10.6953  -17.3191   22.0684 C.ar    1  UNL1        0.0192
     27 C          -3.6669  -20.0566   20.4068 C.3     1  UNL1        0.0550
     28 C          -3.0838  -19.3097   19.2441 C.3     1  UNL1        0.1534
     29 S          -1.7401  -18.6552   19.3708 S.O2    1  UNL1       -0.0085
     30 O          -1.5191  -19.3616   20.6754 O.2     1  UNL1       -0.1729
     31 O          -1.9612  -17.9487   18.0662 O.2     1  UNL1       -0.1729
     32 C          -0.3964  -18.0006   19.4976 C.3     1  UNL1        0.1678
     33 C          -0.1912  -16.8953   20.4906 C.3     1  UNL1        0.0942
     34 C          -2.1560  -15.7187   21.7175 C.3     1  UNL1        0.0859
     35 N          -1.0960  -16.7794   21.6814 N.3     1  UNL1       -0.2948
     36 H          -1.5732  -17.6758   21.7771 H       1  UNL1        0.1233
@<TRIPOS>BOND
     1    34    35    1
     2    35    33    1
     3    33    32    1
     4    32    29    1
     5    29    30    2
     6    29    31    2
     7    29    28    1
     8    28    27    1
     9     1    27    1
    10     1     2    1
    11     2     3    1
    12     3     4    1
    13     4     5    1
    14     5    17    1
    15    17    18    2
    16    17    19    2
    17    17    20    1
    18    20    21   ar
    19    21    22   ar
    20    22    23   ar
    21    23    24    1
    22    23    25   ar
    23    25    26   ar
    24     5     6    1
    25     6     7   ar
    26     7     8    1
    27     7     9   ar
    28     9    10   ar
    29    10    11   ar
    30    11    12    1
    31    11    13   ar
    32    13    14    1
    33    14    15    1
    34    16    15    1
    35    16     1    1
    36    16     5    1
    37    26    20   ar
    38    13     6   ar
    39    35    36    1
@<TRIPOS>MOLECULE
*****
 36 39 0 0 0
SMALL
GASTEIGER

@<TRIPOS>ATOM
      1 C          -5.8394  -16.2521   23.7741 C.3     1  UNL1        0.1225
      2 O          -6.4756  -15.6615   24.9973 O.3     1  UNL1       -0.3559
      3 C          -7.9331  -15.8895   25.2690 C.3     1  UNL1        0.1441
      4 C          -8.7543  -16.7081   24.3174 C.3     1  UNL1        0.0589
      5 C          -8.1181  -17.2987   23.0942 C.3     1  UNL1        0.1466
      6 C          -8.9393  -18.1173   22.1426 C.ar    1  UNL1        0.0618
      7 C         -10.3968  -18.3453   22.4143 C.ar    1  UNL1        0.1407
      8 F         -11.3324  -17.9184   23.5062 F       1  UNL1       -0.2043
      9 C         -11.2180  -19.1639   21.4628 C.ar    1  UNL1        0.0319
     10 C         -10.5817  -19.7546   20.2395 C.ar    1  UNL1        0.0351
     11 C          -9.1243  -19.5266   19.9678 C.ar    1  UNL1        0.1737
     12 F          -8.4880  -20.1173   18.7446 F       1  UNL1       -0.2010
     13 C          -8.3030  -18.7080   20.9194 C.ar    1  UNL1        0.1655
     14 O          -6.8456  -18.4800   20.6477 O.3     1  UNL1       -0.4732
     15 C          -6.0244  -17.6614   21.5993 C.3     1  UNL1        0.2098
     16 C          -6.6606  -17.0707   22.8226 C.3     1  UNL1        0.0957
     17 S          -9.5755  -17.5267   23.3659 S.O2    1  UNL1        0.0094
     18 O          -9.7980  -18.2418   23.6388 O.2     1  UNL1       -0.1684
     19 O         -10.2202  -16.2206   23.0074 O.2     1  UNL1       -0.1684
     20 C         -11.0330  -17.7546   23.6376 C.ar    1  UNL1        0.1059
     21 C         -11.4562  -18.7776   24.6498 C.ar    1  UNL1        0.0192
     22 C         -12.9137  -19.0055   24.9215 C.ar    1  UNL1        0.0127
     23 C         -13.9480  -18.2105   24.1809 C.ar    1  UNL1        0.0578
     24 CL        -15.4054  -18.4385   24.4526 Cl      1  UNL1       -0.0822
     25 C         -13.5247  -17.1876   23.1688 C.ar    1  UNL1        0.0127
     26 C         -12.0673  -16.9597   22.8971 C.ar    1  UNL1        0.0192
     27 C          -4.3819  -16.0242   23.5024 C.3     1  UNL1        0.0550
     28 C          -3.4755  -17.1913   23.2451 C.3     1  UNL1        0.1534
     29 S          -2.4855  -17.1381   22.1194 S.O2    1  UNL1       -0.0085
     30 O          -2.0958  -18.5601   22.3950 O.2     1  UNL1       -0.1729
     31 O          -2.8752  -15.7161   21.8439 O.2     1  UNL1       -0.1729
     32 C          -1.4955  -17.0850   20.9938 C.3     1  UNL1        0.1678
     33 C          -1.9073  -17.5005   19.6126 C.3     1  UNL1        0.0942
     34 C          -3.6001  -19.4603   19.4042 C.3     1  UNL1        0.0859
     35 N          -3.3025  -17.9908   19.3615 N.3     1  UNL1       -0.2948
     36 H          -3.9000  -17.5489   20.0602 H       1  UNL1        0.1233
@<TRIPOS>BOND
     1    34    35    1
     2    35    33    1
     3    33    32    1
     4    32    29    1
     5    29    30    2
     6    29    31    2
     7    29    28    1
     8    28    27    1
     9     1    27    1
    10     1     2    1
    11     2     3    1
    12     3     4    1
    13     4     5    1
    14     5    17    1
    15    17    18    2
    16    17    19    2
    17    17    20    1
    18    20    21   ar
    19    21    22   ar
    20    22    23   ar
    21    23    24    1
    22    23    25   ar
    23    25    26   ar
    24     5     6    1
    25     6     7   ar
    26     7     8    1
    27     7     9   ar
    28     9    10   ar
    29    10    11   ar
    30    11    12    1
    31    11    13   ar
    32    13    14    1
    33    14    15    1
    34    16    15    1
    35    16     1    1
    36    16     5    1
    37    26    20   ar
    38    13     6   ar
    39    35    36    1
@<TRIPOS>MOLECULE
*****
 36 39 0 0 0
SMALL
GASTEIGER

@<TRIPOS>ATOM
      1 C           1.6023    4.2512   34.6624 C.3     1  UNL1        0.1225
      2 O           0.6543    5.1746   33.9563 O.3     1  UNL1       -0.3559
      3 C           0.2167    4.8713   32.5539 C.3     1  UNL1        0.1441
      4 C           0.7272    3.6447   31.8577 C.3     1  UNL1        0.0589
      5 C           1.6753    2.7214   32.5638 C.3     1  UNL1        0.1466
      6 C           2.1858    1.4947   31.8676 C.ar    1  UNL1        0.0618
      7 C           1.7483    1.1914   30.4652 C.ar    1  UNL1        0.1407
      8 F           0.8386    1.8737   29.4869 F       1  UNL1       -0.2043
      9 C           2.2588   -0.0352   29.7690 C.ar    1  UNL1        0.0319
     10 C           3.2069   -0.9586   30.4751 C.ar    1  UNL1        0.0351
     11 C           3.6444   -0.6553   31.8774 C.ar    1  UNL1        0.1737
     12 F           4.5925   -1.5786   32.5835 F       1  UNL1       -0.2010
     13 C           3.1339    0.5714   32.5737 C.ar    1  UNL1        0.1655
     14 O           3.5714    0.8746   33.9760 O.3     1  UNL1       -0.4732
     15 C           3.0609    2.1012   34.6722 C.3     1  UNL1        0.2098
     16 C           2.1128    3.0246   33.9661 C.3     1  UNL1        0.0957
     17 S           1.2377    2.4181   31.1614 S.O2    1  UNL1        0.0094
     18 O           1.6947    2.6780   30.5623 O.2     1  UNL1       -0.1684
     19 O          -0.0390    1.6507   31.3375 O.2     1  UNL1       -0.1684
     20 C           0.8002    2.1148   29.7591 C.ar    1  UNL1        0.1059
     21 C          -0.3633    1.1992   29.5179 C.ar    1  UNL1        0.0192
     22 C          -0.8008    0.8959   28.1155 C.ar    1  UNL1        0.0127
     23 C          -0.0749    1.5083   26.9544 C.ar    1  UNL1        0.0578
     24 CL         -0.5125    1.2050   25.5521 Cl      1  UNL1       -0.0822
     25 C           1.0885    2.4238   27.1956 C.ar    1  UNL1        0.0127
     26 C           1.5260    2.7271   28.5980 C.ar    1  UNL1        0.0192
     27 C           2.0399    4.5545   36.0647 C.3     1  UNL1        0.0550
     28 C           1.2311    4.0586   37.2266 C.3     1  UNL1        0.1534
     29 S           1.8043    3.0288   38.1544 S.O2    1  UNL1       -0.0085
     30 O           0.4184    2.5885   38.5220 O.2     1  UNL1       -0.1729
     31 O           3.1903    3.4691   37.7867 O.2     1  UNL1       -0.1729
     32 C           2.3776    1.9990   39.0822 C.3     1  UNL1        0.1678
     33 C           3.7194    1.3937   38.7939 C.3     1  UNL1        0.0942
     34 C           5.2394    0.2653   37.0144 C.3     1  UNL1        0.0859
     35 N           3.8866    0.4586   37.6330 N.3     1  UNL1       -0.2948
     36 H           3.5725   -0.4596   37.9469 H       1  UNL1        0.1233
@<TRIPOS>BOND
     1    34    35    1
     2    35    33    1
     3    33    32    1
     4    32    29    1
     5    29    30    2
     6    29    31    2
     7    29    28    1
     8    28    27    1
     9     1    27    1
    10     1     2    1
    11     2     3    1
    12     3     4    1
    13     4     5    1
    14     5    17    1
    15    17    18    2
    16    17    19    2
    17    17    20    1
    18    20    21   ar
    19    21    22   ar
    20    22    23   ar
    21    23    24    1
    22    23    25   ar
    23    25    26   ar
    24     5     6    1
    25     6     7   ar
    26     7     8    1
    27     7     9   ar
    28     9    10   ar
    29    10    11   ar
    30    11    12    1
    31    11    13   ar
    32    13    14    1
    33    14    15    1
    34    16    15    1
    35    16     1    1
    36    16     5    1
    37    26    20   ar
    38    13     6   ar
    39    35    36    1
@<TRIPOS>MOLECULE
*****
 36 39 0 0 0
SMALL
GASTEIGER

@<TRIPOS>ATOM
      1 C           8.8523   -5.5851   23.6392 C.3     1  UNL1        0.1225
      2 O           9.3414   -5.9037   22.2575 O.3     1  UNL1       -0.3559
      3 C           8.6843   -5.2734   21.0654 C.3     1  UNL1        0.1441
      4 C           7.5382   -4.3245   21.2551 C.3     1  UNL1        0.0589
      5 C           7.0492   -4.0059   22.6369 C.3     1  UNL1        0.1466
      6 C           5.9030   -3.0570   22.8266 C.ar    1  UNL1        0.0618
      7 C           5.2459   -2.4267   21.6346 C.ar    1  UNL1        0.1407
      8 F           5.4686   -2.5153   20.1539 F       1  UNL1       -0.2043
      9 C           4.0998   -1.4779   21.8243 C.ar    1  UNL1        0.0319
     10 C           3.6107   -1.1592   23.2061 C.ar    1  UNL1        0.0351
     11 C           4.2678   -1.7895   24.3982 C.ar    1  UNL1        0.1737
     12 F           3.7787   -1.4710   25.7799 F       1  UNL1       -0.2010
     13 C           5.4139   -2.7385   24.2084 C.ar    1  UNL1        0.1655
     14 O           6.0710   -3.3688   25.4004 O.3     1  UNL1       -0.4732
     15 C           7.2171   -4.3176   25.2107 C.3     1  UNL1        0.2098
     16 C           7.7062   -4.6362   23.8289 C.3     1  UNL1        0.0957
     17 S           6.3921   -3.3756   21.4448 S.O2    1  UNL1        0.0094
     18 O           6.7050   -2.7009   21.1581 O.2     1  UNL1       -0.1684
     19 O           5.2469   -4.2932   21.1341 O.2     1  UNL1       -0.1684
     20 C           5.7350   -2.7453   20.2528 C.ar    1  UNL1        0.1059
     21 C           6.2425   -1.4379   19.7206 C.ar    1  UNL1        0.0192
     22 C           5.5854   -0.8076   18.5286 C.ar    1  UNL1        0.0127
     23 C           4.4209   -1.4847   17.8687 C.ar    1  UNL1        0.0578
     24 CL          3.7638   -0.8544   16.6766 Cl      1  UNL1       -0.0822
     25 C           3.9135   -2.7921   18.4008 C.ar    1  UNL1        0.0127
     26 C           4.5706   -3.4224   19.5929 C.ar    1  UNL1        0.0192
     27 C           9.5094   -6.2154   24.8313 C.3     1  UNL1        0.0550
     28 C           8.9107   -7.4398   25.4576 C.3     1  UNL1        0.1534
     29 S           8.8637   -7.5717   26.9511 S.O2    1  UNL1       -0.0085
     30 O           9.5345   -6.2372   27.0900 O.2     1  UNL1       -0.1729
     31 O           8.1930   -8.9061   26.8121 O.2     1  UNL1       -0.1729
     32 C           8.8167   -7.7035   28.4445 C.3     1  UNL1        0.1678
     33 C           7.9967   -6.7454   29.2566 C.3     1  UNL1        0.0942
     34 C           6.6424   -4.5746   28.8053 C.3     1  UNL1        0.0859
     35 N           6.8181   -6.0547   28.6370 N.3     1  UNL1       -0.2948
     36 H           6.8661   -6.2334   27.6339 H       1  UNL1        0.1233
@<TRIPOS>BOND
     1    34    35    1
     2    35    33    1
     3    33    32    1
     4    32    29    1
     5    29    30    2
     6    29    31    2
     7    29    28    1
     8    28    27    1
     9     1    27    1
    10     1     2    1
    11     2     3    1
    12     3     4    1
    13     4     5    1
    14     5    17    1
    15    17    18    2
    16    17    19    2
    17    17    20    1
    18    20    21   ar
    19    21    22   ar
    20    22    23   ar
    21    23    24    1
    22    23    25   ar
    23    25    26   ar
    24     5     6    1
    25     6     7   ar
    26     7     8    1
    27     7     9   ar
    28     9    10   ar
    29    10    11   ar
    30    11    12    1
    31    11    13   ar
    32    13    14    1
    33    14    15    1
    34    16    15    1
    35    16     1    1
    36    16     5    1
    37    26    20   ar
    38    13     6   ar
    39    35    36    1
