@<TRIPOS>MOLECULE
*****
 30 33 0 0 0
SMALL
GASTEIGER

@<TRIPOS>ATOM
      1 N          -8.1479  -19.5196   21.3642 N.3     1  UNL1       -0.2641
      2 C          -8.7397  -19.1334   22.6874 C.3     1  UNL1        0.0981
      3 C          -9.5826  -20.1144   23.4470 C.3     1  UNL1        0.0224
      4 C         -10.1744  -19.7282   24.7701 C.3     1  UNL1        0.0065
      5 C          -9.9231  -18.3610   25.3337 C.3     1  UNL1        0.0277
      6 C          -9.0801  -17.3801   24.5741 C.ar    1  UNL1       -0.0073
      7 C          -8.8289  -16.0128   25.1376 C.ar    1  UNL1       -0.0015
      8 C          -7.9859  -15.0318   24.3781 C.ar    1  UNL1        0.0203
      9 C          -7.3942  -15.4180   23.0549 C.ar    1  UNL1        0.0985
     10 N          -7.6454  -16.7852   22.4914 N.ar    1  UNL1       -0.2471
     11 C          -8.4884  -17.7662   23.2509 C.ar    1  UNL1        0.0695
     12 C          -8.8693  -19.1827   20.0930 C.3     1  UNL1        0.0989
     13 C         -10.5099  -17.1681   20.0719 C.2     1  UNL1       -0.0125
     14 C         -10.2695  -18.6469   20.1446 C.2     1  UNL1       -0.0120
     15 N         -12.3524  -15.5935   19.1361 N.3     1  UNL1       -0.3175
     16 C         -11.9100  -16.6325   20.1235 C.3     1  UNL1        0.0916
     17 H         -13.3254  -15.3460   19.3160 H       1  UNL1        0.1192
     18 H         -12.2652  -15.9645   18.1900 H       1  UNL1        0.1192
     19 C          -6.8348  -20.2428   21.3123 C.3     1  UNL1        0.0888
     20 C          -5.5503  -19.4694   21.3580 C.3     1  UNL1        0.0748
     21 C          -4.6654  -19.4129   20.1482 C.3     1  UNL1        0.0432
     22 C          -3.3809  -18.6395   20.1939 C.ar    1  UNL1       -0.0234
     23 C          -2.4960  -18.5830   18.9841 C.ar    1  UNL1       -0.0045
     24 C          -1.2116  -17.8097   19.0299 C.ar    1  UNL1       -0.0003
     25 C          -0.8121  -17.0927   20.2855 C.ar    1  UNL1       -0.0003
     26 C          -1.6970  -17.1492   21.4953 C.ar    1  UNL1       -0.0032
     27 C          -2.9814  -17.9226   21.4495 C.ar    1  UNL1       -0.0103
     28 C          -3.8665  -17.9791   22.6593 C.3     1  UNL1        0.0953
     29 N          -5.1509  -18.7524   22.6136 N.3     1  UNL1       -0.2934
     30 H          -5.8993  -18.0931   22.8270 H       1  UNL1        0.1236
@<TRIPOS>BOND
     1    15    16    1
     2    16    13    1
     3    13    14    2
     4    14    12    1
     5    12     1    1
     6     1    19    1
     7    20    19    1
     8    20    21    1
     9    21    22    1
    10    22    23   ar
    11    23    24   ar
    12    24    25   ar
    13    25    26   ar
    14    26    27   ar
    15    27    28    1
    16    28    29    1
    17     2     1    1
    18     2     3    1
    19     3     4    1
    20     4     5    1
    21     5     6    1
    22     6     7   ar
    23     7     8   ar
    24     8     9   ar
    25     9    10   ar
    26    10    11   ar
    27    29    20    1
    28    11     2    1
    29    27    22   ar
    30    11     6   ar
    31    15    17    1
    32    15    18    1
    33    29    30    1
@<TRIPOS>MOLECULE
*****
 30 33 0 0 0
SMALL
GASTEIGER

@<TRIPOS>ATOM
      1 N          -8.1227  -17.8044   22.8876 N.3     1  UNL1       -0.2641
      2 C          -9.5956  -17.9437   23.1345 C.3     1  UNL1        0.0981
      3 C         -10.0867  -18.6716   24.3507 C.3     1  UNL1        0.0224
      4 C         -11.5596  -18.8108   24.5976 C.3     1  UNL1        0.0065
      5 C         -12.5415  -18.2222   23.6285 C.3     1  UNL1        0.0277
      6 C         -12.0505  -17.4943   22.4124 C.ar    1  UNL1       -0.0073
      7 C         -13.0325  -16.9056   21.4432 C.ar    1  UNL1       -0.0015
      8 C         -12.5414  -16.1776   20.2271 C.ar    1  UNL1        0.0203
      9 C         -11.0685  -16.0384   19.9801 C.ar    1  UNL1        0.0985
     10 N         -10.0865  -16.6270   20.9492 N.ar    1  UNL1       -0.2471
     11 C         -10.5776  -17.3550   22.1654 C.ar    1  UNL1        0.0695
     12 C          -7.4795  -16.4501   22.9320 C.3     1  UNL1        0.0989
     13 C          -5.7374  -15.7936   24.7443 C.2     1  UNL1       -0.0125
     14 C          -7.1543  -15.8172   24.2526 C.2     1  UNL1       -0.0120
     15 N          -6.5106  -14.8495   27.0380 N.3     1  UNL1       -0.3175
     16 C          -5.4123  -15.1607   26.0648 C.3     1  UNL1        0.0916
     17 H          -6.1123  -14.4256   27.8760 H       1  UNL1        0.1192
     18 H          -6.9955  -15.7107   27.2903 H       1  UNL1        0.1192
     19 C          -7.2929  -19.0195   22.5961 C.3     1  UNL1        0.0888
     20 C          -6.0714  -18.9042   21.7331 C.3     1  UNL1        0.0748
     21 C          -4.7270  -18.6861   22.3616 C.3     1  UNL1        0.0432
     22 C          -3.5054  -18.5708   21.4986 C.ar    1  UNL1       -0.0234
     23 C          -2.1610  -18.3527   22.1270 C.ar    1  UNL1       -0.0045
     24 C          -0.9396  -18.2374   21.2641 C.ar    1  UNL1       -0.0003
     25 C          -1.0626  -18.3403   19.7727 C.ar    1  UNL1       -0.0003
     26 C          -2.4070  -18.5584   19.1442 C.ar    1  UNL1       -0.0032
     27 C          -3.6284  -18.6736   20.0072 C.ar    1  UNL1       -0.0103
     28 C          -4.9729  -18.8918   19.3788 C.3     1  UNL1        0.0953
     29 N          -6.1943  -19.0070   20.2417 N.3     1  UNL1       -0.2934
     30 H          -6.6107  -19.9166   20.0426 H       1  UNL1        0.1236
@<TRIPOS>BOND
     1    15    16    1
     2    16    13    1
     3    13    14    2
     4    14    12    1
     5    12     1    1
     6     1    19    1
     7    20    19    1
     8    20    21    1
     9    21    22    1
    10    22    23   ar
    11    23    24   ar
    12    24    25   ar
    13    25    26   ar
    14    26    27   ar
    15    27    28    1
    16    28    29    1
    17     2     1    1
    18     2     3    1
    19     3     4    1
    20     4     5    1
    21     5     6    1
    22     6     7   ar
    23     7     8   ar
    24     8     9   ar
    25     9    10   ar
    26    10    11   ar
    27    29    20    1
    28    11     2    1
    29    27    22   ar
    30    11     6   ar
    31    15    17    1
    32    15    18    1
    33    29    30    1
@<TRIPOS>MOLECULE
*****
 30 33 0 0 0
SMALL
GASTEIGER

@<TRIPOS>ATOM
      1 N         -10.2657  -18.3523   21.6698 N.3     1  UNL1       -0.2641
      2 C          -9.4459  -19.0942   20.6562 C.3     1  UNL1        0.0981
      3 C         -10.0908  -19.6157   19.4064 C.3     1  UNL1        0.0224
      4 C          -9.2710  -20.3576   18.3928 C.3     1  UNL1        0.0065
      5 C          -7.8062  -20.5781   18.6290 C.3     1  UNL1        0.0277
      6 C          -7.1613  -20.0566   19.8788 C.ar    1  UNL1       -0.0073
      7 C          -5.6964  -20.2771   20.1150 C.ar    1  UNL1       -0.0015
      8 C          -5.0515  -19.7556   21.3648 C.ar    1  UNL1        0.0203
      9 C          -5.8713  -19.0137   22.3785 C.ar    1  UNL1        0.0985
     10 N          -7.3361  -18.7932   22.1423 N.ar    1  UNL1       -0.2471
     11 C          -7.9811  -19.3147   20.8924 C.ar    1  UNL1        0.0695
     12 C         -11.2938  -19.0821   22.4824 C.3     1  UNL1        0.0989
     13 C         -12.9904  -18.8817   24.4398 C.2     1  UNL1       -0.0125
     14 C         -12.3657  -18.3157   23.1992 C.2     1  UNL1       -0.0120
     15 N         -14.6110  -18.6288   26.4547 N.3     1  UNL1       -0.3175
     16 C         -14.0622  -18.1153   25.1565 C.3     1  UNL1        0.0916
     17 H         -15.3257  -17.9877   26.7990 H       1  UNL1        0.1192
     18 H         -13.8577  -18.6974   27.1389 H       1  UNL1        0.1192
     19 C         -10.0574  -16.8805   21.8709 C.3     1  UNL1        0.0888
     20 C          -9.0420  -16.3953   22.8626 C.3     1  UNL1        0.0748
     21 C          -9.2898  -16.5626   24.3325 C.3     1  UNL1        0.0432
     22 C          -8.2743  -16.0773   25.3243 C.ar    1  UNL1       -0.0234
     23 C          -8.5221  -16.2446   26.7942 C.ar    1  UNL1       -0.0045
     24 C          -7.5067  -15.7594   27.7858 C.ar    1  UNL1       -0.0003
     25 C          -6.2435  -15.1069   27.3076 C.ar    1  UNL1       -0.0003
     26 C          -5.9958  -14.9396   25.8378 C.ar    1  UNL1       -0.0032
     27 C          -7.0112  -15.4248   24.8461 C.ar    1  UNL1       -0.0103
     28 C          -6.7635  -15.2575   23.3761 C.3     1  UNL1        0.0953
     29 N          -7.7789  -15.7427   22.3844 N.3     1  UNL1       -0.2934
     30 H          -7.3059  -16.4200   21.7861 H       1  UNL1        0.1236
@<TRIPOS>BOND
     1    15    16    1
     2    16    13    1
     3    13    14    2
     4    14    12    1
     5    12     1    1
     6     1    19    1
     7    20    19    1
     8    20    21    1
     9    21    22    1
    10    22    23   ar
    11    23    24   ar
    12    24    25   ar
    13    25    26   ar
    14    26    27   ar
    15    27    28    1
    16    28    29    1
    17     2     1    1
    18     2     3    1
    19     3     4    1
    20     4     5    1
    21     5     6    1
    22     6     7   ar
    23     7     8   ar
    24     8     9   ar
    25     9    10   ar
    26    10    11   ar
    27    29    20    1
    28    11     2    1
    29    27    22   ar
    30    11     6   ar
    31    15    17    1
    32    15    18    1
    33    29    30    1
@<TRIPOS>MOLECULE
*****
 30 33 0 0 0
SMALL
GASTEIGER

@<TRIPOS>ATOM
      1 N          -5.9665  -19.2402   21.1925 N.3     1  UNL1       -0.2641
      2 C          -5.3232  -18.4519   22.2947 C.3     1  UNL1        0.0981
      3 C          -3.9884  -18.8707   22.8357 C.3     1  UNL1        0.0224
      4 C          -3.3450  -18.0825   23.9379 C.3     1  UNL1        0.0065
      5 C          -4.0365  -16.8755   24.4990 C.3     1  UNL1        0.0277
      6 C          -5.3713  -16.4567   23.9579 C.ar    1  UNL1       -0.0073
      7 C          -6.0629  -15.2496   24.5190 C.ar    1  UNL1       -0.0015
      8 C          -7.3977  -14.8308   23.9779 C.ar    1  UNL1        0.0203
      9 C          -8.0411  -15.6190   22.8758 C.ar    1  UNL1        0.0985
     10 N          -7.3496  -16.8260   22.3147 N.ar    1  UNL1       -0.2471
     11 C          -6.0147  -17.2449   22.8558 C.ar    1  UNL1        0.0695
     12 C          -5.4294  -19.1515   19.7948 C.3     1  UNL1        0.0989
     13 C          -3.1380  -17.9965   19.3878 C.2     1  UNL1       -0.0125
     14 C          -3.9522  -19.2456   19.5516 C.2     1  UNL1       -0.0120
     15 N          -1.1077  -17.8260   17.7757 N.3     1  UNL1       -0.3175
     16 C          -1.6608  -18.0907   19.1447 C.3     1  UNL1        0.0916
     17 H          -0.0935  -17.9337   17.7921 H       1  UNL1        0.1192
     18 H          -1.3441  -16.8754   17.4914 H       1  UNL1        0.1192
     19 C          -7.1471  -20.1171   21.4880 C.3     1  UNL1        0.0888
     20 C          -8.5113  -19.5122   21.6403 C.3     1  UNL1        0.0748
     21 C          -9.2568  -19.6594   22.9335 C.3     1  UNL1        0.0432
     22 C         -10.6211  -19.0545   23.0858 C.ar    1  UNL1       -0.0234
     23 C         -11.3666  -19.2018   24.3790 C.ar    1  UNL1       -0.0045
     24 C         -12.7308  -18.5969   24.5312 C.ar    1  UNL1       -0.0003
     25 C         -13.3493  -17.8448   23.3903 C.ar    1  UNL1       -0.0003
     26 C         -12.6037  -17.6976   22.0971 C.ar    1  UNL1       -0.0032
     27 C         -11.2396  -18.3025   21.9448 C.ar    1  UNL1       -0.0103
     28 C         -10.4940  -18.1553   20.6516 C.3     1  UNL1        0.0953
     29 N          -9.1298  -18.7601   20.4993 N.3     1  UNL1       -0.2934
     30 H          -8.4932  -17.9968   20.2702 H       1  UNL1        0.1236
@<TRIPOS>BOND
     1    15    16    1
     2    16    13    1
     3    13    14    2
     4    14    12    1
     5    12     1    1
     6     1    19    1
     7    20    19    1
     8    20    21    1
     9    21    22    1
    10    22    23   ar
    11    23    24   ar
    12    24    25   ar
    13    25    26   ar
    14    26    27   ar
    15    27    28    1
    16    28    29    1
    17     2     1    1
    18     2     3    1
    19     3     4    1
    20     4     5    1
    21     5     6    1
    22     6     7   ar
    23     7     8   ar
    24     8     9   ar
    25     9    10   ar
    26    10    11   ar
    27    29    20    1
    28    11     2    1
    29    27    22   ar
    30    11     6   ar
    31    15    17    1
    32    15    18    1
    33    29    30    1
@<TRIPOS>MOLECULE
*****
 30 33 0 0 0
SMALL
GASTEIGER

@<TRIPOS>ATOM
      1 N          -7.6729  -19.3873   21.5264 N.3     1  UNL1       -0.2641
      2 C          -8.5851  -18.9783   22.6448 C.3     1  UNL1        0.0981
      3 C          -9.7306  -19.8625   23.0397 C.3     1  UNL1        0.0224
      4 C         -10.6428  -19.4535   24.1580 C.3     1  UNL1        0.0065
      5 C         -10.4095  -18.1604   24.8814 C.3     1  UNL1        0.0277
      6 C          -9.2640  -17.2762   24.4865 C.ar    1  UNL1       -0.0073
      7 C          -9.0306  -15.9830   25.2098 C.ar    1  UNL1       -0.0015
      8 C          -7.8851  -15.0988   24.8149 C.ar    1  UNL1        0.0203
      9 C          -6.9729  -15.5078   23.6966 C.ar    1  UNL1        0.0985
     10 N          -7.2062  -16.8010   22.9732 N.ar    1  UNL1       -0.2471
     11 C          -8.3518  -17.6852   23.3681 C.ar    1  UNL1        0.0695
     12 C          -8.0594  -19.1103   20.1039 C.3     1  UNL1        0.0989
     13 C          -9.1741  -20.7485   18.4234 C.2     1  UNL1       -0.0125
     14 C          -7.9410  -20.1911   19.0704 C.2     1  UNL1       -0.0120
     15 N          -9.5285  -21.5815   15.9881 N.3     1  UNL1       -0.3175
     16 C          -9.0557  -21.8292   17.3900 C.3     1  UNL1        0.0916
     17 H          -9.3729  -22.4171   15.4242 H       1  UNL1        0.1192
     18 H          -9.0101  -20.7997   15.5876 H       1  UNL1        0.1192
     19 C          -6.3741  -20.0733   21.8307 C.3     1  UNL1        0.0888
     20 C          -5.0823  -19.3203   21.7117 C.3     1  UNL1        0.0748
     21 C          -4.3427  -19.3012   20.4069 C.3     1  UNL1        0.0432
     22 C          -3.0508  -18.5482   20.2879 C.ar    1  UNL1       -0.0234
     23 C          -2.3112  -18.5292   18.9831 C.ar    1  UNL1       -0.0045
     24 C          -1.0194  -17.7762   18.8642 C.ar    1  UNL1       -0.0003
     25 C          -0.4672  -17.0422   20.0501 C.ar    1  UNL1       -0.0003
     26 C          -1.2068  -17.0612   21.3549 C.ar    1  UNL1       -0.0032
     27 C          -2.4986  -17.8142   21.4738 C.ar    1  UNL1       -0.0103
     28 C          -3.2383  -17.8333   22.7787 C.3     1  UNL1        0.0953
     29 N          -4.5301  -18.5863   22.8976 N.3     1  UNL1       -0.2934
     30 H          -5.2394  -17.9109   23.1824 H       1  UNL1        0.1236
@<TRIPOS>BOND
     1    15    16    1
     2    16    13    1
     3    13    14    2
     4    14    12    1
     5    12     1    1
     6     1    19    1
     7    20    19    1
     8    20    21    1
     9    21    22    1
    10    22    23   ar
    11    23    24   ar
    12    24    25   ar
    13    25    26   ar
    14    26    27   ar
    15    27    28    1
    16    28    29    1
    17     2     1    1
    18     2     3    1
    19     3     4    1
    20     4     5    1
    21     5     6    1
    22     6     7   ar
    23     7     8   ar
    24     8     9   ar
    25     9    10   ar
    26    10    11   ar
    27    29    20    1
    28    11     2    1
    29    27    22   ar
    30    11     6   ar
    31    15    17    1
    32    15    18    1
    33    29    30    1
@<TRIPOS>MOLECULE
*****
 30 33 0 0 0
SMALL
GASTEIGER

@<TRIPOS>ATOM
      1 N          -5.4531  -16.6717   23.4028 N.3     1  UNL1       -0.2641
      2 C          -5.0150  -17.7872   22.5007 C.3     1  UNL1        0.0981
      3 C          -5.8948  -18.9870   22.3099 C.3     1  UNL1        0.0224
      4 C          -5.4567  -20.1025   21.4078 C.3     1  UNL1        0.0065
      5 C          -4.1388  -20.0182   20.6965 C.3     1  UNL1        0.0277
      6 C          -3.2590  -18.8185   20.8873 C.ar    1  UNL1       -0.0073
      7 C          -1.9411  -18.7341   20.1760 C.ar    1  UNL1       -0.0015
      8 C          -1.0613  -17.5344   20.3668 C.ar    1  UNL1        0.0203
      9 C          -1.4994  -16.4189   21.2689 C.ar    1  UNL1        0.0985
     10 N          -2.8173  -16.5031   21.9802 N.ar    1  UNL1       -0.2471
     11 C          -3.6971  -17.7030   21.7894 C.ar    1  UNL1        0.0695
     12 C          -4.8920  -16.5644   24.7897 C.3     1  UNL1        0.0989
     13 C          -6.4533  -15.9615   26.7769 C.2     1  UNL1       -0.0125
     14 C          -5.4448  -15.5494   25.7459 C.2     1  UNL1       -0.0120
     15 N          -8.4763  -14.6501   27.7452 N.3     1  UNL1       -0.3175
     16 C          -7.0059  -14.9465   27.7331 C.3     1  UNL1        0.0916
     17 H          -8.6745  -13.9412   28.4513 H       1  UNL1        0.1192
     18 H          -8.9931  -15.5018   27.9642 H       1  UNL1        0.1192
     19 C          -6.4523  -15.6636   22.9179 C.3     1  UNL1        0.0888
     20 C          -7.8972  -16.0440   22.7841 C.3     1  UNL1        0.0748
     21 C          -8.5199  -16.9843   23.7730 C.3     1  UNL1        0.0432
     22 C          -9.9647  -17.3647   23.6392 C.ar    1  UNL1       -0.0234
     23 C         -10.5874  -18.3050   24.6281 C.ar    1  UNL1       -0.0045
     24 C         -12.0321  -18.6853   24.4942 C.ar    1  UNL1       -0.0003
     25 C         -12.8542  -18.1254   23.3714 C.ar    1  UNL1       -0.0003
     26 C         -12.2315  -17.1851   22.3825 C.ar    1  UNL1       -0.0032
     27 C         -10.7867  -16.8047   22.5163 C.ar    1  UNL1       -0.0103
     28 C         -10.1640  -15.8644   21.5274 C.3     1  UNL1        0.0953
     29 N          -8.7192  -15.4840   21.6613 N.3     1  UNL1       -0.2934
     30 H          -8.6893  -14.4685   21.7524 H       1  UNL1        0.1236
@<TRIPOS>BOND
     1    15    16    1
     2    16    13    1
     3    13    14    2
     4    14    12    1
     5    12     1    1
     6     1    19    1
     7    20    19    1
     8    20    21    1
     9    21    22    1
    10    22    23   ar
    11    23    24   ar
    12    24    25   ar
    13    25    26   ar
    14    26    27   ar
    15    27    28    1
    16    28    29    1
    17     2     1    1
    18     2     3    1
    19     3     4    1
    20     4     5    1
    21     5     6    1
    22     6     7   ar
    23     7     8   ar
    24     8     9   ar
    25     9    10   ar
    26    10    11   ar
    27    29    20    1
    28    11     2    1
    29    27    22   ar
    30    11     6   ar
    31    15    17    1
    32    15    18    1
    33    29    30    1
@<TRIPOS>MOLECULE
*****
 30 33 0 0 0
SMALL
GASTEIGER

@<TRIPOS>ATOM
      1 N          -8.5787  -17.1910   22.3869 N.3     1  UNL1       -0.2641
      2 C         -10.0169  -17.0277   21.9933 C.3     1  UNL1        0.0981
      3 C         -10.3693  -16.3394   20.7081 C.3     1  UNL1        0.0224
      4 C         -11.8075  -16.1761   20.3145 C.3     1  UNL1        0.0065
      5 C         -12.8934  -16.7011   21.2062 C.3     1  UNL1        0.0277
      6 C         -12.5410  -17.3895   22.4915 C.ar    1  UNL1       -0.0073
      7 C         -13.6269  -17.9146   23.3832 C.ar    1  UNL1       -0.0015
      8 C         -13.2745  -18.6030   24.6685 C.ar    1  UNL1        0.0203
      9 C         -11.8363  -18.7663   25.0621 C.ar    1  UNL1        0.0985
     10 N         -10.7505  -18.2412   24.1704 N.ar    1  UNL1       -0.2471
     11 C         -11.1028  -17.5528   22.8850 C.ar    1  UNL1        0.0695
     12 C          -7.8196  -16.0282   22.9538 C.3     1  UNL1        0.0989
     13 C          -8.2980  -15.5713   25.4663 C.2     1  UNL1       -0.0125
     14 C          -7.3740  -16.0499   24.3860 C.2     1  UNL1       -0.0120
     15 N          -6.7980  -14.6361   27.3704 N.3     1  UNL1       -0.3175
     16 C          -7.8523  -15.5930   26.8984 C.3     1  UNL1        0.0916
     17 H          -6.6193  -14.7895   28.3628 H       1  UNL1        0.1192
     18 H          -7.1189  -13.6786   27.2267 H       1  UNL1        0.1192
     19 C          -7.8996  -18.5172   22.2135 C.3     1  UNL1        0.0888
     20 C          -6.5708  -18.5946   21.5219 C.3     1  UNL1        0.0748
     21 C          -5.3043  -18.5598   22.3248 C.3     1  UNL1        0.0432
     22 C          -3.9754  -18.6373   21.6332 C.ar    1  UNL1       -0.0234
     23 C          -2.7089  -18.6025   22.4361 C.ar    1  UNL1       -0.0045
     24 C          -1.3802  -18.6799   21.7444 C.ar    1  UNL1       -0.0003
     25 C          -1.3179  -18.7922   20.2499 C.ar    1  UNL1       -0.0003
     26 C          -2.5844  -18.8269   19.4471 C.ar    1  UNL1       -0.0032
     27 C          -3.9132  -18.7495   20.1387 C.ar    1  UNL1       -0.0103
     28 C          -5.1798  -18.7843   19.3358 C.3     1  UNL1        0.0953
     29 N          -6.5086  -18.7068   20.0274 N.3     1  UNL1       -0.2934
     30 H          -7.0221  -19.5509   19.7739 H       1  UNL1        0.1236
@<TRIPOS>BOND
     1    15    16    1
     2    16    13    1
     3    13    14    2
     4    14    12    1
     5    12     1    1
     6     1    19    1
     7    20    19    1
     8    20    21    1
     9    21    22    1
    10    22    23   ar
    11    23    24   ar
    12    24    25   ar
    13    25    26   ar
    14    26    27   ar
    15    27    28    1
    16    28    29    1
    17     2     1    1
    18     2     3    1
    19     3     4    1
    20     4     5    1
    21     5     6    1
    22     6     7   ar
    23     7     8   ar
    24     8     9   ar
    25     9    10   ar
    26    10    11   ar
    27    29    20    1
    28    11     2    1
    29    27    22   ar
    30    11     6   ar
    31    15    17    1
    32    15    18    1
    33    29    30    1
@<TRIPOS>MOLECULE
*****
 30 33 0 0 0
SMALL
GASTEIGER

@<TRIPOS>ATOM
      1 N          -7.6507  -19.5257   21.7170 N.3     1  UNL1       -0.2641
      2 C          -8.8435  -19.3998   22.6177 C.3     1  UNL1        0.0981
      3 C          -9.0405  -20.3731   23.7419 C.3     1  UNL1        0.0224
      4 C         -10.2334  -20.2472   24.6426 C.3     1  UNL1        0.0065
      5 C         -11.2293  -19.1480   24.4191 C.3     1  UNL1        0.0277
      6 C         -11.0323  -18.1748   23.2949 C.ar    1  UNL1       -0.0073
      7 C         -12.0282  -17.0755   23.0713 C.ar    1  UNL1       -0.0015
      8 C         -11.8312  -16.1022   21.9471 C.ar    1  UNL1        0.0203
      9 C         -10.6383  -16.2281   21.0464 C.ar    1  UNL1        0.0985
     10 N          -9.6424  -17.3273   21.2699 N.ar    1  UNL1       -0.2471
     11 C          -9.8394  -18.3007   22.3942 C.ar    1  UNL1        0.0695
     12 C          -7.7695  -19.1799   20.2623 C.3     1  UNL1        0.0989
     13 C          -9.0314  -20.5759   18.4711 C.2     1  UNL1       -0.0125
     14 C          -7.7749  -20.2687   19.2305 C.2     1  UNL1       -0.0120
     15 N          -9.6470  -21.4176   16.0914 N.3     1  UNL1       -0.3175
     16 C          -9.0369  -21.6647   17.4393 C.3     1  UNL1        0.0916
     17 H          -9.5635  -22.2591   15.5210 H       1  UNL1        0.1192
     18 H          -9.1600  -20.6470   15.6339 H       1  UNL1        0.1192
     19 C          -6.3390  -19.9975   22.2710 C.3     1  UNL1        0.0888
     20 C          -5.0547  -19.5719   21.6234 C.3     1  UNL1        0.0748
     21 C          -4.3463  -18.3391   22.1012 C.3     1  UNL1        0.0432
     22 C          -3.0619  -17.9135   21.4535 C.ar    1  UNL1       -0.0234
     23 C          -2.3536  -16.6807   21.9313 C.ar    1  UNL1       -0.0045
     24 C          -1.0693  -16.2552   21.2837 C.ar    1  UNL1       -0.0003
     25 C          -0.4934  -17.0625   20.1582 C.ar    1  UNL1       -0.0003
     26 C          -1.2017  -18.2953   19.6804 C.ar    1  UNL1       -0.0032
     27 C          -2.4860  -18.7208   20.3281 C.ar    1  UNL1       -0.0103
     28 C          -3.1945  -19.9537   19.8503 C.3     1  UNL1        0.0953
     29 N          -4.4787  -20.3792   20.4980 N.3     1  UNL1       -0.2934
     30 H          -4.3287  -21.3216   20.8583 H       1  UNL1        0.1236
@<TRIPOS>BOND
     1    15    16    1
     2    16    13    1
     3    13    14    2
     4    14    12    1
     5    12     1    1
     6     1    19    1
     7    20    19    1
     8    20    21    1
     9    21    22    1
    10    22    23   ar
    11    23    24   ar
    12    24    25   ar
    13    25    26   ar
    14    26    27   ar
    15    27    28    1
    16    28    29    1
    17     2     1    1
    18     2     3    1
    19     3     4    1
    20     4     5    1
    21     5     6    1
    22     6     7   ar
    23     7     8   ar
    24     8     9   ar
    25     9    10   ar
    26    10    11   ar
    27    29    20    1
    28    11     2    1
    29    27    22   ar
    30    11     6   ar
    31    15    17    1
    32    15    18    1
    33    29    30    1
@<TRIPOS>MOLECULE
*****
 30 33 0 0 0
SMALL
GASTEIGER

@<TRIPOS>ATOM
      1 N          -6.4543  -17.5181   22.8421 N.3     1  UNL1       -0.2641
      2 C          -4.9872  -17.7691   22.6562 C.3     1  UNL1        0.0981
      3 C          -3.9851  -16.9740   23.4395 C.3     1  UNL1        0.0224
      4 C          -2.5179  -17.2251   23.2536 C.3     1  UNL1        0.0065
      5 C          -2.0529  -18.2712   22.2844 C.3     1  UNL1        0.0277
      6 C          -3.0550  -19.0663   21.5011 C.ar    1  UNL1       -0.0073
      7 C          -2.5900  -20.1125   20.5319 C.ar    1  UNL1       -0.0015
      8 C          -3.5922  -20.9076   19.7486 C.ar    1  UNL1        0.0203
      9 C          -5.0593  -20.6566   19.9345 C.ar    1  UNL1        0.0985
     10 N          -5.5243  -19.6104   20.9037 N.ar    1  UNL1       -0.2471
     11 C          -4.5221  -18.8153   21.6870 C.ar    1  UNL1        0.0695
     12 C          -6.9315  -16.1782   23.3184 C.3     1  UNL1        0.0989
     13 C          -8.3076  -15.7472   25.4796 C.2     1  UNL1       -0.0125
     14 C          -6.9834  -15.8793   24.7874 C.2     1  UNL1       -0.0120
     15 N          -7.3147  -14.5715   27.5729 N.3     1  UNL1       -0.3175
     16 C          -8.3595  -15.4483   26.9485 C.3     1  UNL1        0.0916
     17 H          -7.5030  -14.4761   28.5708 H       1  UNL1        0.1192
     18 H          -7.3361  -13.6514   27.1333 H       1  UNL1        0.1192
     19 C          -7.4442  -18.6069   22.5517 C.3     1  UNL1        0.0888
     20 C          -8.9146  -18.3117   22.5831 C.3     1  UNL1        0.0748
     21 C          -9.7428  -18.7505   23.7542 C.3     1  UNL1        0.0432
     22 C         -11.2132  -18.4553   23.7856 C.ar    1  UNL1       -0.0234
     23 C         -12.0413  -18.8940   24.9567 C.ar    1  UNL1       -0.0045
     24 C         -13.5116  -18.5988   24.9881 C.ar    1  UNL1       -0.0003
     25 C         -14.1537  -17.8649   23.8483 C.ar    1  UNL1       -0.0003
     26 C         -13.3256  -17.4262   22.6772 C.ar    1  UNL1       -0.0032
     27 C         -11.8553  -17.7214   22.6458 C.ar    1  UNL1       -0.0103
     28 C         -11.0270  -17.2826   21.4747 C.3     1  UNL1        0.0953
     29 N          -9.5567  -17.5778   21.4433 N.3     1  UNL1       -0.2934
     30 H          -9.0779  -16.6807   21.3637 H       1  UNL1        0.1236
@<TRIPOS>BOND
     1    15    16    1
     2    16    13    1
     3    13    14    2
     4    14    12    1
     5    12     1    1
     6     1    19    1
     7    20    19    1
     8    20    21    1
     9    21    22    1
    10    22    23   ar
    11    23    24   ar
    12    24    25   ar
    13    25    26   ar
    14    26    27   ar
    15    27    28    1
    16    28    29    1
    17     2     1    1
    18     2     3    1
    19     3     4    1
    20     4     5    1
    21     5     6    1
    22     6     7   ar
    23     7     8   ar
    24     8     9   ar
    25     9    10   ar
    26    10    11   ar
    27    29    20    1
    28    11     2    1
    29    27    22   ar
    30    11     6   ar
    31    15    17    1
    32    15    18    1
    33    29    30    1
