@<TRIPOS>MOLECULE
*****
 28 31 0 0 0
SMALL
GASTEIGER

@<TRIPOS>ATOM
      1 C          -6.1294  -16.7965   23.2511 C.ar    1  UNL1        0.1515
      2 N          -7.3955  -17.2111   22.5618 N.ar    1  UNL1       -0.1596
      3 N          -8.5434  -16.9064   23.4780 N.ar    1  UNL1       -0.2112
      4 C          -7.9868  -16.3035   24.7337 C.ar    1  UNL1        0.0596
      5 C          -6.4949  -16.2356   24.5935 C.ar    1  UNL1        0.0153
      6 C          -5.9383  -15.6327   25.8491 C.3     1  UNL1        0.0297
      7 C          -7.0862  -15.3280   26.7654 C.3     1  UNL1        0.0104
      8 C          -8.4082  -15.1412   27.4490 C.3     1  UNL1        0.0066
      9 C          -8.3522  -15.7426   26.0761 C.3     1  UNL1        0.0405
     10 C          -9.9933  -17.1600   23.1894 C.ar    1  UNL1        0.2362
     11 C         -10.6200  -16.5992   21.9472 C.ar    1  UNL1        0.3408
     12 N         -12.0699  -16.8527   21.6585 N.ar    1  UNL1       -0.1478
     13 O         -12.6966  -16.2920   20.4164 O.co2   1  UNL1       -0.6186
     14 C         -12.8933  -17.6671   22.6119 C.ar    1  UNL1        0.3227
     15 C         -12.2666  -18.2279   23.8540 C.ar    1  UNL1        0.1776
     16 N         -10.8167  -17.9743   24.1428 N.ar    1  UNL1       -0.2133
     17 N          -4.3604  -18.1298   21.8938 N.am    1  UNL1       -0.2987
     18 C          -4.7416  -16.9210   22.6957 C.2     1  UNL1        0.2651
     19 O          -3.7351  -15.8365   22.9424 O.2     1  UNL1       -0.2684
     20 H          -5.0210  -18.8416   21.7320 H       1  UNL1        0.1498
     21 CA         -2.9726  -18.2543   21.3384 C.3     1  UNL1        0.1010
     22 C          -3.8449  -18.8785   19.5082 C.3     1  UNL1        0.0017
     23 C          -2.7163  -17.9666   19.8887 C.3     1  UNL1        0.0189
     24 C          -1.5877  -17.0547   20.2693 C.3     1  UNL1        0.0017
     25 C          -2.4600  -17.6788   18.4390 C.3     1  UNL1        0.0017
     26 C          -1.8411  -18.6665   22.2327 C.3     1  UNL1        0.1565
     27 O          -1.6364  -17.9775   23.5493 O.3     1  UNL1       -0.3802
     28 H          -1.3923  -17.0515   23.3951 H       1  UNL1        0.2105
@<TRIPOS>UNITY_ATOM_ATTR
12 1
charge 1
13 1
charge -1
@<TRIPOS>BOND
     1    22    23    1
     2    23    24    1
     3    23    25    1
     4    23    21    1
     5    21    26    1
     6    26    27    1
     7    21    17    1
     8    17    18   am
     9    18    19    2
    10    18     1    1
    11     1     2   ar
    12     2     3   ar
    13     3    10    1
    14    10    11   ar
    15    11    12   ar
    16    12    13    1
    17    12    14   ar
    18    14    15   ar
    19    15    16   ar
    20     3     4   ar
    21     4     5   ar
    22     5     6    1
    23     7     6    1
    24     7     8    1
    25     9     8    1
    26     5     1   ar
    27     9     7    1
    28    16    10   ar
    29     9     4    1
    30    27    28    1
    31    17    20    1
@<TRIPOS>MOLECULE
*****
 28 31 0 0 0
SMALL
GASTEIGER

@<TRIPOS>ATOM
      1 C          -7.9081  -17.0113   22.6935 C.ar    1  UNL1        0.1515
      2 N          -6.7035  -17.4981   21.9440 N.ar    1  UNL1       -0.1596
      3 N          -5.4819  -17.0747   22.7046 N.ar    1  UNL1       -0.2112
      4 C          -5.9317  -16.3261   23.9243 C.ar    1  UNL1        0.0596
      5 C          -7.4311  -16.2869   23.9174 C.ar    1  UNL1        0.0153
      6 C          -7.8808  -15.5384   25.1369 C.3     1  UNL1        0.0297
      7 C          -6.6593  -15.1149   25.8976 C.3     1  UNL1        0.0104
      8 C          -5.2837  -14.8357   26.4264 C.3     1  UNL1        0.0066
      9 C          -5.4546  -15.6017   25.1481 C.3     1  UNL1        0.0405
     10 C          -4.0602  -17.3512   22.3143 C.ar    1  UNL1        0.2362
     11 C          -3.6111  -18.7608   22.0665 C.ar    1  UNL1        0.3408
     12 N          -2.1895  -19.0374   21.6761 N.ar    1  UNL1       -0.1478
     13 O          -1.7404  -20.4470   21.4283 O.co2   1  UNL1       -0.6186
     14 C          -1.2169  -17.9044   21.5337 C.ar    1  UNL1        0.3227
     15 C          -1.6659  -16.4948   21.7815 C.ar    1  UNL1        0.1776
     16 N          -3.0876  -16.2182   22.1719 N.ar    1  UNL1       -0.2133
     17 N         -10.1045  -18.3942   22.8085 N.am    1  UNL1       -0.2987
     18 C          -9.3386  -17.2133   22.2900 C.2     1  UNL1        0.2651
     19 O         -10.0032  -16.2344   21.3680 O.2     1  UNL1       -0.2684
     20 H          -9.6683  -19.0367   23.4137 H       1  UNL1        0.1498
     21 CA        -11.5350  -18.5962   22.4050 C.3     1  UNL1        0.1010
     22 C         -13.4162  -17.6316   22.2290 C.3     1  UNL1        0.0017
     23 C         -12.6397  -18.2441   23.3568 C.3     1  UNL1        0.0189
     24 C         -11.8632  -18.8565   24.4846 C.3     1  UNL1        0.0017
     25 C         -13.7443  -17.8919   24.3085 C.3     1  UNL1        0.0017
     26 C         -11.8609  -19.1504   21.0498 C.3     1  UNL1        0.1565
     27 O         -11.1023  -18.6791   19.8445 O.3     1  UNL1       -0.3802
     28 H         -11.2953  -17.7416   19.6872 H       1  UNL1        0.2105
@<TRIPOS>UNITY_ATOM_ATTR
12 1
charge 1
13 1
charge -1
@<TRIPOS>BOND
     1    22    23    1
     2    23    24    1
     3    23    25    1
     4    23    21    1
     5    21    26    1
     6    26    27    1
     7    21    17    1
     8    17    18   am
     9    18    19    2
    10    18     1    1
    11     1     2   ar
    12     2     3   ar
    13     3    10    1
    14    10    11   ar
    15    11    12   ar
    16    12    13    1
    17    12    14   ar
    18    14    15   ar
    19    15    16   ar
    20     3     4   ar
    21     4     5   ar
    22     5     6    1
    23     7     6    1
    24     7     8    1
    25     9     8    1
    26     5     1   ar
    27     9     7    1
    28    16    10   ar
    29     9     4    1
    30    27    28    1
    31    17    20    1
@<TRIPOS>MOLECULE
*****
 28 31 0 0 0
SMALL
GASTEIGER

@<TRIPOS>ATOM
      1 C          -7.2291  -17.9261   22.0954 C.ar    1  UNL1        0.1515
      2 N          -8.6487  -18.3280   21.8243 N.ar    1  UNL1       -0.1596
      3 N          -9.5142  -17.7177   22.8866 N.ar    1  UNL1       -0.2112
      4 C          -8.6295  -16.9386   23.8143 C.ar    1  UNL1        0.0596
      5 C          -7.2173  -17.0674   23.3253 C.ar    1  UNL1        0.0153
      6 C          -6.3327  -16.2884   24.2529 C.3     1  UNL1        0.0297
      7 C          -7.1982  -15.6780   25.3152 C.3     1  UNL1        0.0104
      8 C          -8.2966  -15.2101   26.2232 C.3     1  UNL1        0.0066
      9 C          -8.6177  -16.0799   25.0441 C.3     1  UNL1        0.0405
     10 C         -11.0029  -17.8612   23.0013 C.ar    1  UNL1        0.2362
     11 C         -11.6191  -18.2633   24.3084 C.ar    1  UNL1        0.3408
     12 N         -13.1077  -18.4068   24.4232 N.ar    1  UNL1       -0.1478
     13 O         -13.7240  -18.8090   25.7303 O.co2   1  UNL1       -0.6186
     14 C         -13.9803  -18.1482   23.2308 C.ar    1  UNL1        0.3227
     15 C         -13.3641  -17.7461   21.9237 C.ar    1  UNL1        0.1776
     16 N         -11.8754  -17.6025   21.8089 N.ar    1  UNL1       -0.2133
     17 N          -4.6882  -18.4432   21.9343 N.am    1  UNL1       -0.2987
     18 C          -6.0317  -18.3147   21.2799 C.2     1  UNL1        0.2651
     19 O          -6.1779  -18.5748   19.8098 O.2     1  UNL1       -0.2684
     20 H          -4.5923  -18.2725   22.8992 H       1  UNL1        0.1498
     21 CA         -3.4908  -18.8318   21.1188 C.3     1  UNL1        0.1010
     22 C          -2.4859  -17.3617   22.2717 C.3     1  UNL1        0.0017
     23 C          -2.4099  -17.8276   20.8479 C.3     1  UNL1        0.0189
     24 C          -2.3338  -18.2936   19.4241 C.3     1  UNL1        0.0017
     25 C          -1.3290  -16.8235   20.5770 C.3     1  UNL1        0.0017
     26 C          -3.3742  -20.2246   20.5742 C.3     1  UNL1        0.1565
     27 O          -4.5936  -20.9362   20.0674 O.3     1  UNL1       -0.3802
     28 H          -5.2018  -21.1007   20.8049 H       1  UNL1        0.2105
@<TRIPOS>UNITY_ATOM_ATTR
12 1
charge 1
13 1
charge -1
@<TRIPOS>BOND
     1    22    23    1
     2    23    24    1
     3    23    25    1
     4    23    21    1
     5    21    26    1
     6    26    27    1
     7    21    17    1
     8    17    18   am
     9    18    19    2
    10    18     1    1
    11     1     2   ar
    12     2     3   ar
    13     3    10    1
    14    10    11   ar
    15    11    12   ar
    16    12    13    1
    17    12    14   ar
    18    14    15   ar
    19    15    16   ar
    20     3     4   ar
    21     4     5   ar
    22     5     6    1
    23     7     6    1
    24     7     8    1
    25     9     8    1
    26     5     1   ar
    27     9     7    1
    28    16    10   ar
    29     9     4    1
    30    27    28    1
    31    17    20    1
@<TRIPOS>MOLECULE
*****
 28 31 0 0 0
SMALL
GASTEIGER

@<TRIPOS>ATOM
      1 C          -7.9169  -17.0707   22.6606 C.ar    1  UNL1        0.1515
      2 N          -6.8212  -17.7578   21.9007 N.ar    1  UNL1       -0.1596
      3 N          -5.5203  -17.4458   22.5792 N.ar    1  UNL1       -0.2112
      4 C          -5.8120  -16.5657   23.7585 C.ar    1  UNL1        0.0596
      5 C          -7.2932  -16.3339   23.8087 C.ar    1  UNL1        0.0153
      6 C          -7.5848  -15.4540   24.9880 C.3     1  UNL1        0.0297
      7 C          -6.2839  -15.1419   25.6665 C.3     1  UNL1        0.0104
      8 C          -4.8599  -15.0080   26.1182 C.3     1  UNL1        0.0066
      9 C          -5.1883  -15.8290   24.9066 C.3     1  UNL1        0.0405
     10 C          -4.1656  -17.9288   22.1534 C.ar    1  UNL1        0.2362
     11 C          -3.1384  -16.9492   21.6683 C.ar    1  UNL1        0.3408
     12 N          -1.7837  -17.4321   21.2425 N.ar    1  UNL1       -0.1478
     13 O          -0.7565  -16.4525   20.7574 O.co2   1  UNL1       -0.6186
     14 C          -1.4561  -18.8947   21.3016 C.ar    1  UNL1        0.3227
     15 C          -2.4832  -19.8743   21.7867 C.ar    1  UNL1        0.1776
     16 N          -3.8380  -19.3914   22.2126 N.ar    1  UNL1       -0.2133
     17 N         -10.1917  -18.3255   22.6759 N.am    1  UNL1       -0.2987
     18 C          -9.3795  -17.1128   22.3303 C.2     1  UNL1        0.2651
     19 O         -10.0297  -15.9421   21.6545 O.2     1  UNL1       -0.2684
     20 H          -9.7649  -19.0938   23.1195 H       1  UNL1        0.1498
     21 CA        -11.6543  -18.3677   22.3457 C.3     1  UNL1        0.1010
     22 C         -13.6020  -17.5393   22.4882 C.3     1  UNL1        0.0017
     23 C         -12.6739  -18.2369   23.4380 C.3     1  UNL1        0.0189
     24 C         -11.7459  -18.9344   24.3878 C.3     1  UNL1        0.0017
     25 C         -13.6936  -18.1061   24.5304 C.3     1  UNL1        0.0017
     26 C         -12.0972  -18.5406   20.9230 C.3     1  UNL1        0.1565
     27 O         -11.6160  -17.5903   19.8668 O.3     1  UNL1       -0.3802
     28 H         -11.9726  -16.7053   20.0414 H       1  UNL1        0.2105
@<TRIPOS>UNITY_ATOM_ATTR
12 1
charge 1
13 1
charge -1
@<TRIPOS>BOND
     1    22    23    1
     2    23    24    1
     3    23    25    1
     4    23    21    1
     5    21    26    1
     6    26    27    1
     7    21    17    1
     8    17    18   am
     9    18    19    2
    10    18     1    1
    11     1     2   ar
    12     2     3   ar
    13     3    10    1
    14    10    11   ar
    15    11    12   ar
    16    12    13    1
    17    12    14   ar
    18    14    15   ar
    19    15    16   ar
    20     3     4   ar
    21     4     5   ar
    22     5     6    1
    23     7     6    1
    24     7     8    1
    25     9     8    1
    26     5     1   ar
    27     9     7    1
    28    16    10   ar
    29     9     4    1
    30    27    28    1
    31    17    20    1
@<TRIPOS>MOLECULE
*****
 28 31 0 0 0
SMALL
GASTEIGER

@<TRIPOS>ATOM
      1 C          -8.6805  -18.2927   21.1296 C.ar    1  UNL1        0.1515
      2 N          -7.2348  -18.0533   21.4500 N.ar    1  UNL1       -0.1596
      3 N          -6.4141  -18.9990   20.6241 N.ar    1  UNL1       -0.2112
      4 C          -7.3527  -19.8229   19.7932 C.ar    1  UNL1        0.0596
      5 C          -8.7533  -19.3864   20.1056 C.ar    1  UNL1        0.0153
      6 C          -9.6918  -20.2103   19.2747 C.3     1  UNL1        0.0297
      7 C          -8.8712  -21.1560   18.4488 C.3     1  UNL1        0.0104
      8 C          -7.8079  -21.9648   17.7667 C.3     1  UNL1        0.0066
      9 C          -7.4255  -20.9166   18.7692 C.3     1  UNL1        0.0405
     10 C          -4.9178  -19.1026   20.6282 C.ar    1  UNL1        0.2362
     11 C          -4.1334  -18.6801   19.4214 C.ar    1  UNL1        0.3408
     12 N          -2.6371  -18.7837   19.4254 N.ar    1  UNL1       -0.1478
     13 O          -1.8527  -18.3612   18.2186 O.co2   1  UNL1       -0.6186
     14 C          -1.9249  -19.3098   20.6362 C.ar    1  UNL1        0.3227
     15 C          -2.7092  -19.7323   21.8430 C.ar    1  UNL1        0.1776
     16 N          -4.2056  -19.6287   21.8390 N.ar    1  UNL1       -0.2133
     17 N         -11.0686  -18.3283   22.1521 N.am    1  UNL1       -0.2987
     18 C          -9.8483  -17.5661   21.7281 C.2     1  UNL1        0.2651
     19 O          -9.7957  -16.0771   21.9025 O.2     1  UNL1       -0.2684
     20 H         -11.1030  -19.3055   22.0376 H       1  UNL1        0.1498
     21 CA        -12.2364  -17.6016   22.7506 C.3     1  UNL1        0.1010
     22 C         -14.2180  -17.6541   23.5060 C.3     1  UNL1        0.0017
     23 C         -12.8812  -18.1201   24.0018 C.3     1  UNL1        0.0189
     24 C         -11.5443  -18.5862   24.4976 C.3     1  UNL1        0.0017
     25 C         -13.5259  -18.6386   25.2530 C.3     1  UNL1        0.0017
     26 C         -12.7595  -16.3565   22.0979 C.3     1  UNL1        0.1565
     27 O         -12.7468  -16.2312   20.6031 O.3     1  UNL1       -0.3802
     28 H         -11.8296  -16.2064   20.2885 H       1  UNL1        0.2105
@<TRIPOS>UNITY_ATOM_ATTR
12 1
charge 1
13 1
charge -1
@<TRIPOS>BOND
     1    22    23    1
     2    23    24    1
     3    23    25    1
     4    23    21    1
     5    21    26    1
     6    26    27    1
     7    21    17    1
     8    17    18   am
     9    18    19    2
    10    18     1    1
    11     1     2   ar
    12     2     3   ar
    13     3    10    1
    14    10    11   ar
    15    11    12   ar
    16    12    13    1
    17    12    14   ar
    18    14    15   ar
    19    15    16   ar
    20     3     4   ar
    21     4     5   ar
    22     5     6    1
    23     7     6    1
    24     7     8    1
    25     9     8    1
    26     5     1   ar
    27     9     7    1
    28    16    10   ar
    29     9     4    1
    30    27    28    1
    31    17    20    1
@<TRIPOS>MOLECULE
*****
 28 31 0 0 0
SMALL
GASTEIGER

@<TRIPOS>ATOM
      1 C         -14.7984   -6.5320   18.8599 C.ar    1  UNL1        0.1515
      2 N         -15.4300   -5.1786   18.9993 N.ar    1  UNL1       -0.1596
      3 N         -16.8588   -5.3741   19.4121 N.ar    1  UNL1       -0.2112
      4 C         -17.1103   -6.8485   19.5277 C.ar    1  UNL1        0.0596
      5 C         -15.8369   -7.5640   19.1865 C.ar    1  UNL1        0.0153
      6 C         -16.0883   -9.0382   19.3021 C.3     1  UNL1        0.0297
      7 C         -17.5171   -9.2338   19.7149 C.3     1  UNL1        0.0104
      8 C         -18.9562   -9.1160   20.1212 C.3     1  UNL1        0.0066
      9 C         -18.1487   -7.8804   19.8543 C.3     1  UNL1        0.0405
     10 C         -17.8604   -4.2865   19.6648 C.ar    1  UNL1        0.2362
     11 C         -17.3942   -2.9021   20.0056 C.ar    1  UNL1        0.3408
     12 N         -18.3956   -1.8144   20.2584 N.ar    1  UNL1       -0.1478
     13 O         -17.9294   -0.4300   20.5992 O.co2   1  UNL1       -0.6186
     14 C         -19.8633   -2.1111   20.1703 C.ar    1  UNL1        0.3227
     15 C         -20.3296   -3.4954   19.8295 C.ar    1  UNL1        0.1776
     16 N         -19.3281   -4.5831   19.5767 N.ar    1  UNL1       -0.2133
     17 N         -12.2890   -5.8595   18.8751 N.am    1  UNL1       -0.2987
     18 C         -13.3778   -6.8054   18.4635 C.2     1  UNL1        0.2651
     19 O         -13.0462   -8.0249   17.6554 O.2     1  UNL1       -0.2684
     20 H         -12.5067   -5.0592   19.4055 H       1  UNL1        0.1498
     21 CA        -10.8684   -6.1329   18.4787 C.3     1  UNL1        0.1010
     22 C         -10.7077   -5.6869   16.4110 C.3     1  UNL1        0.0017
     23 C         -10.1092   -5.1258   17.6668 C.3     1  UNL1        0.0189
     24 C          -9.5107   -4.5646   18.9226 C.3     1  UNL1        0.0017
     25 C          -9.3499   -4.1186   16.8549 C.3     1  UNL1        0.0017
     26 C         -10.2071   -7.4135   18.8942 C.3     1  UNL1        0.1565
     27 O         -10.0257   -8.5213   17.8991 O.3     1  UNL1       -0.3802
     28 H         -10.8938   -8.8649   17.6360 H       1  UNL1        0.2105
@<TRIPOS>UNITY_ATOM_ATTR
12 1
charge 1
13 1
charge -1
@<TRIPOS>BOND
     1    22    23    1
     2    23    24    1
     3    23    25    1
     4    23    21    1
     5    21    26    1
     6    26    27    1
     7    21    17    1
     8    17    18   am
     9    18    19    2
    10    18     1    1
    11     1     2   ar
    12     2     3   ar
    13     3    10    1
    14    10    11   ar
    15    11    12   ar
    16    12    13    1
    17    12    14   ar
    18    14    15   ar
    19    15    16   ar
    20     3     4   ar
    21     4     5   ar
    22     5     6    1
    23     7     6    1
    24     7     8    1
    25     9     8    1
    26     5     1   ar
    27     9     7    1
    28    16    10   ar
    29     9     4    1
    30    27    28    1
    31    17    20    1
@<TRIPOS>MOLECULE
*****
 28 31 0 0 0
SMALL
GASTEIGER

@<TRIPOS>ATOM
      1 C          -6.5265  -19.0039   21.2324 C.ar    1  UNL1        0.1515
      2 N          -7.6443  -18.1238   21.7078 N.ar    1  UNL1       -0.1596
      3 N          -8.8689  -18.4570   20.9082 N.ar    1  UNL1       -0.2112
      4 C          -8.5079  -19.5431   19.9385 C.ar    1  UNL1        0.0596
      5 C          -7.0603  -19.8811   20.1389 C.ar    1  UNL1        0.0153
      6 C          -6.6994  -20.9672   19.1693 C.3     1  UNL1        0.0297
      7 C          -7.9240  -21.3004   18.3696 C.3     1  UNL1        0.0104
      8 C          -9.2834  -21.4114   17.7454 C.3     1  UNL1        0.0066
      9 C          -9.0417  -20.4203   18.8450 C.3     1  UNL1        0.0405
     10 C         -10.2176  -17.8166   21.0527 C.ar    1  UNL1        0.2362
     11 C         -11.1218  -18.2187   22.1801 C.ar    1  UNL1        0.3408
     12 N         -12.4704  -17.5784   22.3247 N.ar    1  UNL1       -0.1478
     13 O         -13.3746  -17.9805   23.4521 O.co2   1  UNL1       -0.6186
     14 C         -12.9151  -16.5361   21.3420 C.ar    1  UNL1        0.3227
     15 C         -12.0110  -16.1340   20.2146 C.ar    1  UNL1        0.1776
     16 N         -10.6622  -16.7743   20.0700 N.ar    1  UNL1       -0.2133
     17 N          -4.1521  -17.9527   21.3119 N.am    1  UNL1       -0.2987
     18 C          -5.1217  -19.0065   21.7581 C.2     1  UNL1        0.2651
     19 O          -4.6866  -20.0629   22.7300 O.2     1  UNL1       -0.2684
     20 H          -4.4377  -17.2593   20.6740 H       1  UNL1        0.1498
     21 CA         -2.7472  -17.9552   21.8376 C.3     1  UNL1        0.1010
     22 C          -1.3994  -16.5443   21.0052 C.3     1  UNL1        0.0017
     23 C          -1.5903  -18.0273   20.8856 C.3     1  UNL1        0.0189
     24 C          -1.7811  -19.5103   20.7661 C.3     1  UNL1        0.0017
     25 C          -0.4333  -18.0994   19.9336 C.3     1  UNL1        0.0017
     26 C          -2.4993  -17.8856   23.3153 C.3     1  UNL1        0.1565
     27 O          -3.6543  -17.7630   24.2647 O.3     1  UNL1       -0.3802
     28 H          -4.0916  -16.9072   24.1330 H       1  UNL1        0.2105
@<TRIPOS>UNITY_ATOM_ATTR
12 1
charge 1
13 1
charge -1
@<TRIPOS>BOND
     1    22    23    1
     2    23    24    1
     3    23    25    1
     4    23    21    1
     5    21    26    1
     6    26    27    1
     7    21    17    1
     8    17    18   am
     9    18    19    2
    10    18     1    1
    11     1     2   ar
    12     2     3   ar
    13     3    10    1
    14    10    11   ar
    15    11    12   ar
    16    12    13    1
    17    12    14   ar
    18    14    15   ar
    19    15    16   ar
    20     3     4   ar
    21     4     5   ar
    22     5     6    1
    23     7     6    1
    24     7     8    1
    25     9     8    1
    26     5     1   ar
    27     9     7    1
    28    16    10   ar
    29     9     4    1
    30    27    28    1
    31    17    20    1
@<TRIPOS>MOLECULE
*****
 28 31 0 0 0
SMALL
GASTEIGER

@<TRIPOS>ATOM
      1 C         -12.7670   -3.7075   18.7946 C.ar    1  UNL1        0.1515
      2 N         -13.9916   -4.5730   18.7580 N.ar    1  UNL1       -0.1596
      3 N         -13.5473   -6.0057   18.7736 N.ar    1  UNL1       -0.2112
      4 C         -12.0481   -6.0255   18.8199 C.ar    1  UNL1        0.0596
      5 C         -11.5659   -4.6052   18.8328 C.ar    1  UNL1        0.0153
      6 C         -10.0667   -4.6251   18.8791 C.3     1  UNL1        0.0297
      7 C          -9.6224   -6.0577   18.8947 C.3     1  UNL1        0.0104
      8 C          -9.4855   -7.5514   18.9009 C.3     1  UNL1        0.0066
      9 C         -10.8470   -6.9232   18.8581 C.3     1  UNL1        0.0405
     10 C         -14.4445   -7.2074   18.7475 C.ar    1  UNL1        0.2362
     11 C         -15.7294   -7.2011   19.5217 C.ar    1  UNL1        0.3408
     12 N         -16.6266   -8.4027   19.4957 N.ar    1  UNL1       -0.1478
     13 O         -17.9114   -8.3964   20.2698 O.co2   1  UNL1       -0.6186
     14 C         -16.2391   -9.6109   18.6956 C.ar    1  UNL1        0.3227
     15 C         -14.9543   -9.6173   17.9214 C.ar    1  UNL1        0.1776
     16 N         -14.0570   -8.4156   17.9474 N.ar    1  UNL1       -0.2133
     17 N         -13.9719   -1.4417   18.3897 N.am    1  UNL1       -0.2987
     18 C         -12.7470   -2.2076   18.7932 C.2     1  UNL1        0.2651
     19 O         -11.5021   -1.4739   19.1954 O.2     1  UNL1       -0.2684
     20 H         -14.7889   -1.9233   18.1258 H       1  UNL1        0.1498
     21 CA        -13.9519    0.0582   18.3884 C.3     1  UNL1        0.1010
     22 C         -14.5879    2.0817   18.3540 C.3     1  UNL1        0.0017
     23 C         -15.0866    0.8240   19.0016 C.3     1  UNL1        0.0189
     24 C         -15.5854   -0.4338   19.6492 C.3     1  UNL1        0.0017
     25 C         -16.2214    1.5897   19.6148 C.3     1  UNL1        0.0017
     26 C         -12.7972    0.7923   17.7737 C.3     1  UNL1        0.1565
     27 O         -12.0832    0.2104   16.5898 O.3     1  UNL1       -0.3802
     28 H         -11.6336   -0.6077   16.8534 H       1  UNL1        0.2105
@<TRIPOS>UNITY_ATOM_ATTR
12 1
charge 1
13 1
charge -1
@<TRIPOS>BOND
     1    22    23    1
     2    23    24    1
     3    23    25    1
     4    23    21    1
     5    21    26    1
     6    26    27    1
     7    21    17    1
     8    17    18   am
     9    18    19    2
    10    18     1    1
    11     1     2   ar
    12     2     3   ar
    13     3    10    1
    14    10    11   ar
    15    11    12   ar
    16    12    13    1
    17    12    14   ar
    18    14    15   ar
    19    15    16   ar
    20     3     4   ar
    21     4     5   ar
    22     5     6    1
    23     7     6    1
    24     7     8    1
    25     9     8    1
    26     5     1   ar
    27     9     7    1
    28    16    10   ar
    29     9     4    1
    30    27    28    1
    31    17    20    1
@<TRIPOS>MOLECULE
*****
 28 31 0 0 0
SMALL
GASTEIGER

@<TRIPOS>ATOM
      1 C          -7.0174  -17.9543   22.1283 C.ar    1  UNL1        0.1515
      2 N          -8.2582  -17.6192   22.9017 N.ar    1  UNL1       -0.1596
      3 N          -9.4321  -18.1968   22.1679 N.ar    1  UNL1       -0.2112
      4 C          -8.9167  -18.8889   20.9408 C.ar    1  UNL1        0.0596
      5 C          -7.4244  -18.7390   20.9164 C.ar    1  UNL1        0.0153
      6 C          -6.9091  -19.4311   19.6895 C.3     1  UNL1        0.0297
      7 C          -8.0829  -20.0087   18.9556 C.3     1  UNL1        0.0104
      8 C          -9.4229  -20.4614   18.4564 C.3     1  UNL1        0.0066
      9 C          -9.3237  -19.6736   19.7290 C.3     1  UNL1        0.0405
     10 C         -10.8689  -18.0994   22.5872 C.ar    1  UNL1        0.2362
     11 C         -11.2789  -18.5289   23.9647 C.ar    1  UNL1        0.3408
     12 N         -12.7157  -18.4316   24.3842 N.ar    1  UNL1       -0.1478
     13 O         -13.1257  -18.8611   25.7617 O.co2   1  UNL1       -0.6186
     14 C         -13.7427  -17.9048   23.4261 C.ar    1  UNL1        0.3227
     15 C         -13.3328  -17.4754   22.0487 C.ar    1  UNL1        0.1776
     16 N         -11.8959  -17.5726   21.6292 N.ar    1  UNL1       -0.2133
     17 N          -4.4556  -18.3503   21.9556 N.am    1  UNL1       -0.2987
     18 C          -5.6158  -17.5718   22.5013 C.2     1  UNL1        0.2651
     19 O          -5.3745  -16.4109   23.4199 O.2     1  UNL1       -0.2684
     20 H          -4.6140  -19.1122   21.3526 H       1  UNL1        0.1498
     21 CA         -3.0539  -17.9678   22.3285 C.3     1  UNL1        0.1010
     22 C          -2.1138  -18.9602   20.7064 C.3     1  UNL1        0.0017
     23 C          -2.0769  -17.5678   21.2630 C.3     1  UNL1        0.0189
     24 C          -2.0401  -16.1753   21.8196 C.3     1  UNL1        0.0017
     25 C          -1.0999  -17.1677   20.1974 C.3     1  UNL1        0.0017
     26 C          -2.6293  -17.9854   23.7671 C.3     1  UNL1        0.1565
     27 O          -3.6616  -18.0597   24.8529 O.3     1  UNL1       -0.3802
     28 H          -4.1925  -17.2479   24.8504 H       1  UNL1        0.2105
@<TRIPOS>UNITY_ATOM_ATTR
12 1
charge 1
13 1
charge -1
@<TRIPOS>BOND
     1    22    23    1
     2    23    24    1
     3    23    25    1
     4    23    21    1
     5    21    26    1
     6    26    27    1
     7    21    17    1
     8    17    18   am
     9    18    19    2
    10    18     1    1
    11     1     2   ar
    12     2     3   ar
    13     3    10    1
    14    10    11   ar
    15    11    12   ar
    16    12    13    1
    17    12    14   ar
    18    14    15   ar
    19    15    16   ar
    20     3     4   ar
    21     4     5   ar
    22     5     6    1
    23     7     6    1
    24     7     8    1
    25     9     8    1
    26     5     1   ar
    27     9     7    1
    28    16    10   ar
    29     9     4    1
    30    27    28    1
    31    17    20    1
