@<TRIPOS>MOLECULE
*****
 39 42 0 0 0
SMALL
GASTEIGER

@<TRIPOS>ATOM
      1 C          -4.4688  -20.0550   20.1353 C.ar    1  UNL1        0.0611
      2 C          -3.3556  -20.2695   19.1532 C.ar    1  UNL1        0.1037
      3 N          -2.2707  -19.2798   19.4589 N.ar    1  UNL1       -0.2269
      4 C          -2.7134  -18.4536   20.6299 C.ar    1  UNL1        0.1407
      5 N          -2.0550  -17.3269   21.3696 N.ar    1  UNL1       -0.3374
      6 C          -2.7552  -16.6794   22.5273 C.ar    1  UNL1        0.0734
      7 C          -4.1138  -17.1585   22.9454 C.ar    1  UNL1        0.0171
      8 C          -4.7722  -18.2851   22.2057 C.ar    1  UNL1        0.0046
      9 C          -4.0720  -18.9327   21.0480 C.ar    1  UNL1        0.0386
     10 H          -1.1634  -17.0125   21.0952 H       1  UNL1        0.1674
     11 C          -4.8139  -16.5108   24.1032 C.ar    1  UNL1        0.0014
     12 C          -4.4344  -16.8748   25.5080 C.ar    1  UNL1       -0.0003
     13 C          -5.1346  -16.2271   26.6658 C.ar    1  UNL1       -0.0043
     14 C          -6.2143  -15.2156   26.4187 C.ar    1  UNL1       -0.0221
     15 C          -6.5938  -14.8517   25.0138 C.ar    1  UNL1       -0.0043
     16 C          -5.8936  -15.4993   23.8561 C.ar    1  UNL1       -0.0003
     17 C          -6.9144  -14.5680   27.5764 C.3     1  UNL1        0.0289
     18 C          -8.2904  -15.0187   27.9680 C.3     1  UNL1        0.0367
     19 C          -8.7529  -16.4032   27.6222 C.3     1  UNL1        0.1426
     20 O          -8.9211  -16.8008   26.1857 O.3     1  UNL1       -0.3511
     21 C          -9.6531  -18.0629   25.8377 C.3     1  UNL1        0.1741
     22 C          -5.7535  -20.8271   20.1944 C.2     1  UNL1        0.2015
     23 O          -5.8249  -22.2095   19.6169 O.2     1  UNL1       -0.2864
     24 C          -9.1073  -18.7551   20.6520 C.ar    1  UNL1        0.0920
     25 C          -9.3934  -18.9961   22.1046 C.ar    1  UNL1        0.0204
     26 C          -8.4662  -19.8474   22.9205 C.ar    1  UNL1        0.0312
     27 C          -7.2529  -20.4577   22.2838 C.ar    1  UNL1        0.1454
     28 F          -6.3258  -21.3090   23.0997 F       1  UNL1       -0.2040
     29 C          -6.9668  -20.2168   20.8312 C.ar    1  UNL1        0.0951
     30 C          -7.8940  -19.3655   20.0153 C.ar    1  UNL1        0.1598
     31 F          -7.6078  -19.1246   18.5627 F       1  UNL1       -0.2026
     32 N         -10.0344  -17.9038   19.8361 N.pl3   1  UNL1       -0.2166
     33 H          -9.9479  -17.8819   18.8556 H       1  UNL1        0.1734
     34 S         -11.0935  -17.0860   20.5140 S.O2    1  UNL1        0.0540
     35 O         -10.0583  -16.0766   20.9134 O.2     1  UNL1       -0.1545
     36 O         -12.1286  -18.0955   20.1147 O.2     1  UNL1       -0.1545
     37 C         -12.1525  -16.2683   21.1919 C.3     1  UNL1        0.1724
     38 C         -13.0098  -17.5403   23.2889 C.3     1  UNL1        0.0019
     39 C         -12.3272  -16.3519   22.6794 C.3     1  UNL1        0.0273
@<TRIPOS>BOND
     1    38    39    1
     2    39    37    1
     3    37    34    1
     4    34    35    2
     5    34    36    2
     6    34    32    1
     7    32    24    1
     8    24    25   ar
     9    25    26   ar
    10    26    27   ar
    11    27    28    1
    12    27    29   ar
    13    29    22    1
    14    22    23    2
    15    22     1    1
    16     1     2   ar
    17     2     3   ar
    18     3     4   ar
    19     4     5   ar
    20     5     6   ar
    21     6     7   ar
    22     7    11    1
    23    11    12   ar
    24    12    13   ar
    25    13    14   ar
    26    14    17    1
    27    17    18    1
    28    18    19    1
    29    19    20    1
    30    20    21    1
    31    14    15   ar
    32    15    16   ar
    33     7     8   ar
    34     8     9   ar
    35    29    30   ar
    36    30    31    1
    37    30    24   ar
    38     9     1   ar
    39     9     4    1
    40    16    11   ar
    41    32    33    1
    42     5    10    1
@<TRIPOS>MOLECULE
*****
 39 42 0 0 0
SMALL
GASTEIGER

@<TRIPOS>ATOM
      1 C           5.0211   -3.3644   22.5569 C.ar    1  UNL1        0.0611
      2 C           6.0728   -3.9867   23.4268 C.ar    1  UNL1        0.1037
      3 N           6.0777   -3.2607   24.7394 N.ar    1  UNL1       -0.2269
      4 C           5.0292   -2.1896   24.6806 C.ar    1  UNL1        0.1407
      5 N           4.5847   -1.1642   25.6811 N.ar    1  UNL1       -0.3374
      6 C           3.4872   -0.2030   25.3327 C.ar    1  UNL1        0.0734
      7 C           2.8342   -0.2671   23.9838 C.ar    1  UNL1        0.0171
      8 C           3.2787   -1.2925   22.9834 C.ar    1  UNL1        0.0046
      9 C           4.3762   -2.2537   23.3318 C.ar    1  UNL1        0.0386
     10 H           5.0133   -1.1221   26.5664 H       1  UNL1        0.1674
     11 C           1.7366    0.6942   23.6355 C.ar    1  UNL1        0.0014
     12 C           0.9746    1.3892   24.7246 C.ar    1  UNL1       -0.0003
     13 C          -0.1230    2.3505   24.3762 C.ar    1  UNL1       -0.0043
     14 C          -0.4585    2.6167   22.9387 C.ar    1  UNL1       -0.0221
     15 C           0.3036    1.9217   21.8495 C.ar    1  UNL1       -0.0043
     16 C           1.4011    0.9605   22.1979 C.ar    1  UNL1       -0.0003
     17 C          -1.5560    3.5780   22.5903 C.3     1  UNL1        0.0289
     18 C          -1.8906    3.8452   21.1527 C.3     1  UNL1        0.0367
     19 C          -3.1039    3.2151   20.5354 C.3     1  UNL1        0.1426
     20 O          -4.2424    2.7702   21.4048 O.3     1  UNL1       -0.3511
     21 C          -5.4366    3.6588   21.5896 C.3     1  UNL1        0.1741
     22 C           4.6752   -3.7798   21.1577 C.2     1  UNL1        0.2015
     23 O           3.9542   -5.0727   20.9157 O.2     1  UNL1       -0.2864
     24 C           4.3925   -1.1448   18.2035 C.ar    1  UNL1        0.0920
     25 C           5.8003   -1.1473   17.6858 C.ar    1  UNL1        0.0204
     26 C           6.8331   -2.0272   18.3254 C.ar    1  UNL1        0.0312
     27 C           6.4581   -2.9047   19.4826 C.ar    1  UNL1        0.1454
     28 F           7.4909   -3.7847   20.1222 F       1  UNL1       -0.2040
     29 C           5.0503   -2.9023   20.0003 C.ar    1  UNL1        0.0951
     30 C           4.0175   -2.0223   19.3608 C.ar    1  UNL1        0.1598
     31 F           2.6096   -2.0200   19.8786 F       1  UNL1       -0.2026
     32 N           3.3597   -0.2649   17.5639 N.pl3   1  UNL1       -0.2166
     33 H           2.9611   -0.5208   16.7009 H       1  UNL1        0.1734
     34 S           2.9342    1.0050   18.2394 S.O2    1  UNL1        0.0540
     35 O           1.5435    0.4619   18.3843 O.2     1  UNL1       -0.1545
     36 O           4.3248    1.5481   18.0944 O.2     1  UNL1       -0.1545
     37 C           2.5087    2.2750   18.9147 C.3     1  UNL1        0.1724
     38 C           0.9990    4.3892   18.9476 C.3     1  UNL1        0.0019
     39 C           1.2981    3.0145   18.4274 C.3     1  UNL1        0.0273
@<TRIPOS>BOND
     1    38    39    1
     2    39    37    1
     3    37    34    1
     4    34    35    2
     5    34    36    2
     6    34    32    1
     7    32    24    1
     8    24    25   ar
     9    25    26   ar
    10    26    27   ar
    11    27    28    1
    12    27    29   ar
    13    29    22    1
    14    22    23    2
    15    22     1    1
    16     1     2   ar
    17     2     3   ar
    18     3     4   ar
    19     4     5   ar
    20     5     6   ar
    21     6     7   ar
    22     7    11    1
    23    11    12   ar
    24    12    13   ar
    25    13    14   ar
    26    14    17    1
    27    17    18    1
    28    18    19    1
    29    19    20    1
    30    20    21    1
    31    14    15   ar
    32    15    16   ar
    33     7     8   ar
    34     8     9   ar
    35    29    30   ar
    36    30    31    1
    37    30    24   ar
    38     9     1   ar
    39     9     4    1
    40    16    11   ar
    41    32    33    1
    42     5    10    1
@<TRIPOS>MOLECULE
*****
 39 42 0 0 0
SMALL
GASTEIGER

@<TRIPOS>ATOM
      1 C          -2.8144  -18.0371   21.5976 C.ar    1  UNL1        0.0611
      2 C          -1.5417  -18.7161   21.1864 C.ar    1  UNL1        0.1037
      3 N          -1.9017  -20.0074   20.5135 N.ar    1  UNL1       -0.2269
      4 C          -3.3970  -20.1265   20.5087 C.ar    1  UNL1        0.1407
      5 N          -4.3177  -21.1864   19.9809 N.ar    1  UNL1       -0.3374
      6 C          -5.8026  -21.0286   20.1230 C.ar    1  UNL1        0.0734
      7 C          -6.3667  -19.8109   20.7931 C.ar    1  UNL1        0.0171
      8 C          -5.4459  -18.7510   21.3209 C.ar    1  UNL1        0.0046
      9 C          -3.9611  -18.9088   21.1788 C.ar    1  UNL1        0.0386
     10 H          -3.9475  -21.9857   19.5411 H       1  UNL1        0.1674
     11 C          -7.8516  -19.6532   20.9352 C.ar    1  UNL1        0.0014
     12 C          -8.6845  -19.2872   19.7426 C.ar    1  UNL1       -0.0003
     13 C         -10.1695  -19.1295   19.8848 C.ar    1  UNL1       -0.0043
     14 C         -10.8214  -19.3376   21.2196 C.ar    1  UNL1       -0.0221
     15 C          -9.9884  -19.7036   22.4122 C.ar    1  UNL1       -0.0043
     16 C          -8.5036  -19.8613   22.2700 C.ar    1  UNL1       -0.0003
     17 C         -12.3063  -19.1799   21.3618 C.3     1  UNL1        0.0289
     18 C         -12.8686  -17.9887   22.0791 C.3     1  UNL1        0.0367
     19 C         -12.5409  -16.6039   21.6048 C.3     1  UNL1        0.1426
     20 O         -12.6745  -16.2577   20.1514 O.3     1  UNL1       -0.3511
     21 C         -11.5045  -15.6879   19.4055 C.3     1  UNL1        0.1741
     22 C          -2.9217  -16.7180   22.3036 C.2     1  UNL1        0.2015
     23 O          -2.2655  -15.5008   21.7227 O.2     1  UNL1       -0.2864
     24 C          -5.6166  -15.5787   24.9851 C.ar    1  UNL1        0.0920
     25 C          -5.2127  -16.4125   26.1648 C.ar    1  UNL1        0.0204
     26 C          -4.0452  -17.3481   26.0574 C.ar    1  UNL1        0.0312
     27 C          -3.2815  -17.4500   24.7704 C.ar    1  UNL1        0.1454
     28 F          -2.1140  -18.3857   24.6631 F       1  UNL1       -0.2040
     29 C          -3.6854  -16.6162   23.5908 C.ar    1  UNL1        0.0951
     30 C          -4.8529  -15.6806   23.6981 C.ar    1  UNL1        0.1598
     31 F          -5.2567  -14.8468   22.5184 F       1  UNL1       -0.2026
     32 N          -6.7840  -14.6431   25.0925 N.pl3   1  UNL1       -0.2166
     33 H          -6.6340  -13.6880   25.2787 H       1  UNL1        0.1734
     34 S          -8.1801  -15.1625   24.9160 S.O2    1  UNL1        0.0540
     35 O          -8.3672  -15.1652   26.4043 O.2     1  UNL1       -0.1545
     36 O          -7.9930  -15.1598   23.4277 O.2     1  UNL1       -0.1545
     37 C          -9.5761  -15.6819   24.7394 C.3     1  UNL1        0.1724
     38 C          -9.6625  -18.1616   25.5101 C.3     1  UNL1        0.0019
     39 C          -9.8033  -17.1317   24.4287 C.3     1  UNL1        0.0273
@<TRIPOS>BOND
     1    38    39    1
     2    39    37    1
     3    37    34    1
     4    34    35    2
     5    34    36    2
     6    34    32    1
     7    32    24    1
     8    24    25   ar
     9    25    26   ar
    10    26    27   ar
    11    27    28    1
    12    27    29   ar
    13    29    22    1
    14    22    23    2
    15    22     1    1
    16     1     2   ar
    17     2     3   ar
    18     3     4   ar
    19     4     5   ar
    20     5     6   ar
    21     6     7   ar
    22     7    11    1
    23    11    12   ar
    24    12    13   ar
    25    13    14   ar
    26    14    17    1
    27    17    18    1
    28    18    19    1
    29    19    20    1
    30    20    21    1
    31    14    15   ar
    32    15    16   ar
    33     7     8   ar
    34     8     9   ar
    35    29    30   ar
    36    30    31    1
    37    30    24   ar
    38     9     1   ar
    39     9     4    1
    40    16    11   ar
    41    32    33    1
    42     5    10    1
@<TRIPOS>MOLECULE
*****
 39 42 0 0 0
SMALL
GASTEIGER

@<TRIPOS>ATOM
      1 C           6.5506   -3.1609   29.6834 C.ar    1  UNL1        0.0611
      2 C           6.6263   -4.0571   30.8839 C.ar    1  UNL1        0.1037
      3 N           6.8134   -5.4646   30.4004 N.ar    1  UNL1       -0.2269
      4 C           6.8533   -5.4384   28.9011 C.ar    1  UNL1        0.1407
      5 N           7.0166   -6.5270   27.8822 N.ar    1  UNL1       -0.3374
      6 C           7.0174   -6.1918   26.4202 C.ar    1  UNL1        0.0734
      7 C           6.8550   -4.7680   25.9771 C.ar    1  UNL1        0.0171
      8 C           6.6917   -3.6794   26.9960 C.ar    1  UNL1        0.0046
      9 C           6.6909   -4.0146   28.4580 C.ar    1  UNL1        0.0386
     10 H           7.1232   -7.4615   28.1731 H       1  UNL1        0.1674
     11 C           6.8558   -4.4328   24.5149 C.ar    1  UNL1        0.0014
     12 C           5.7548   -3.5937   23.9372 C.ar    1  UNL1       -0.0003
     13 C           5.7556   -3.2585   22.4751 C.ar    1  UNL1       -0.0043
     14 C           6.8574   -3.7625   21.5908 C.ar    1  UNL1       -0.0221
     15 C           7.9584   -4.6016   22.1686 C.ar    1  UNL1       -0.0043
     16 C           7.9576   -4.9367   23.6306 C.ar    1  UNL1       -0.0003
     17 C           6.8583   -3.4273   20.1287 C.3     1  UNL1        0.0289
     18 C           5.5990   -3.5686   19.3262 C.3     1  UNL1        0.0367
     19 C           5.3573   -2.6747   18.1461 C.3     1  UNL1        0.1426
     20 O           6.5150   -2.0241   17.4486 O.3     1  UNL1       -0.3511
     21 C           6.8306   -0.5805   17.7061 C.3     1  UNL1        0.1741
     22 C           6.3668   -1.6724   29.7046 C.2     1  UNL1        0.2015
     23 O           7.5333   -0.7687   29.4354 O.2     1  UNL1       -0.2864
     24 C           2.6002   -0.5159   29.2298 C.ar    1  UNL1        0.0920
     25 C           2.3155    0.0824   30.5756 C.ar    1  UNL1        0.0204
     26 C           3.3813    0.0957   31.6310 C.ar    1  UNL1        0.0312
     27 C           4.7317   -0.4892   31.3407 C.ar    1  UNL1        0.1454
     28 F           5.7975   -0.4758   32.3961 F       1  UNL1       -0.2040
     29 C           5.0163   -1.0874   29.9950 C.ar    1  UNL1        0.0951
     30 C           3.9505   -1.1008   28.9395 C.ar    1  UNL1        0.1598
     31 F           4.2352   -1.6990   27.5938 F       1  UNL1       -0.2026
     32 N           1.5344   -0.5292   28.1744 N.pl3   1  UNL1       -0.2166
     33 H           1.4868   -1.2739   27.5322 H       1  UNL1        0.1734
     34 S           0.5410    0.5921   28.0974 S.O2    1  UNL1        0.0540
     35 O           1.5946    1.4853   27.5125 O.2     1  UNL1       -0.1545
     36 O          -0.5125   -0.3011   28.6824 O.2     1  UNL1       -0.1545
     37 C          -0.4524    1.7133   28.0205 C.3     1  UNL1        0.1724
     38 C          -1.9880    3.2530   26.5987 C.3     1  UNL1        0.0019
     39 C          -0.8774    2.2484   26.6852 C.3     1  UNL1        0.0273
@<TRIPOS>BOND
     1    38    39    1
     2    39    37    1
     3    37    34    1
     4    34    35    2
     5    34    36    2
     6    34    32    1
     7    32    24    1
     8    24    25   ar
     9    25    26   ar
    10    26    27   ar
    11    27    28    1
    12    27    29   ar
    13    29    22    1
    14    22    23    2
    15    22     1    1
    16     1     2   ar
    17     2     3   ar
    18     3     4   ar
    19     4     5   ar
    20     5     6   ar
    21     6     7   ar
    22     7    11    1
    23    11    12   ar
    24    12    13   ar
    25    13    14   ar
    26    14    17    1
    27    17    18    1
    28    18    19    1
    29    19    20    1
    30    20    21    1
    31    14    15   ar
    32    15    16   ar
    33     7     8   ar
    34     8     9   ar
    35    29    30   ar
    36    30    31    1
    37    30    24   ar
    38     9     1   ar
    39     9     4    1
    40    16    11   ar
    41    32    33    1
    42     5    10    1
@<TRIPOS>MOLECULE
*****
 39 42 0 0 0
SMALL
GASTEIGER

@<TRIPOS>ATOM
      1 C           1.2017    0.8698   22.5624 C.ar    1  UNL1        0.0611
      2 C           0.3647    1.8388   23.3437 C.ar    1  UNL1        0.1037
      3 N           0.7891    1.7642   24.7805 N.ar    1  UNL1       -0.2269
      4 C           1.8883    0.7492   24.8872 C.ar    1  UNL1        0.1407
      5 N           2.6900    0.2568   26.0554 N.ar    1  UNL1       -0.3374
      6 C           3.7466   -0.7883   25.8528 C.ar    1  UNL1        0.0734
      7 C           4.0016   -1.3411   24.4819 C.ar    1  UNL1        0.0171
      8 C           3.2000   -0.8488   23.3137 C.ar    1  UNL1        0.0046
      9 C           2.1433    0.1963   23.5163 C.ar    1  UNL1        0.0386
     10 H           2.5226    0.6197   26.9552 H       1  UNL1        0.1674
     11 C           5.0584   -2.3863   24.2794 C.ar    1  UNL1        0.0014
     12 C           5.0418   -3.2405   23.0465 C.ar    1  UNL1       -0.0003
     13 C           6.0985   -4.2857   22.8439 C.ar    1  UNL1       -0.0043
     14 C           7.1718   -4.4766   23.8743 C.ar    1  UNL1       -0.0221
     15 C           7.1884   -3.6223   25.1072 C.ar    1  UNL1       -0.0043
     16 C           6.1317   -2.5772   25.3097 C.ar    1  UNL1       -0.0003
     17 C           8.2285   -5.5217   23.6717 C.3     1  UNL1        0.0289
     18 C           8.0202   -6.9107   24.1983 C.3     1  UNL1        0.0367
     19 C           9.0771   -7.5591   25.0426 C.3     1  UNL1        0.1426
     20 O           8.8570   -7.7345   26.5159 O.3     1  UNL1       -0.3511
     21 C           7.9788   -6.7747   27.2625 C.3     1  UNL1        0.1741
     22 C           1.1127    0.6183   21.0863 C.2     1  UNL1        0.2015
     23 O          -0.1899    0.1953   20.4747 O.2     1  UNL1       -0.2864
     24 C           4.1584   -0.2301   18.6875 C.ar    1  UNL1        0.0920
     25 C           4.7540    1.1327   18.4927 C.ar    1  UNL1        0.0204
     26 C           4.1358    2.3241   19.1624 C.ar    1  UNL1        0.0312
     27 C           2.9221    2.1527   20.0269 C.ar    1  UNL1        0.1454
     28 F           2.3039    3.3440   20.6967 F       1  UNL1       -0.2040
     29 C           2.3265    0.7898   20.2217 C.ar    1  UNL1        0.0951
     30 C           2.9447   -0.4015   19.5520 C.ar    1  UNL1        0.1598
     31 F           2.3491   -1.7644   19.7468 F       1  UNL1       -0.2026
     32 N           4.7766   -1.4215   18.0177 N.pl3   1  UNL1       -0.2166
     33 H           4.2724   -1.9181   17.3334 H       1  UNL1        0.1734
     34 S           6.1630   -1.8560   18.3907 S.O2    1  UNL1        0.0540
     35 O           6.6978   -1.2225   17.1407 O.2     1  UNL1       -0.1545
     36 O           5.6281   -2.4896   19.6407 O.2     1  UNL1       -0.1545
     37 C           7.5493   -2.2906   18.7637 C.3     1  UNL1        0.1724
     38 C           9.1100   -3.3967   20.5219 C.3     1  UNL1        0.0019
     39 C           7.8763   -2.6096   20.1925 C.3     1  UNL1        0.0273
@<TRIPOS>BOND
     1    38    39    1
     2    39    37    1
     3    37    34    1
     4    34    35    2
     5    34    36    2
     6    34    32    1
     7    32    24    1
     8    24    25   ar
     9    25    26   ar
    10    26    27   ar
    11    27    28    1
    12    27    29   ar
    13    29    22    1
    14    22    23    2
    15    22     1    1
    16     1     2   ar
    17     2     3   ar
    18     3     4   ar
    19     4     5   ar
    20     5     6   ar
    21     6     7   ar
    22     7    11    1
    23    11    12   ar
    24    12    13   ar
    25    13    14   ar
    26    14    17    1
    27    17    18    1
    28    18    19    1
    29    19    20    1
    30    20    21    1
    31    14    15   ar
    32    15    16   ar
    33     7     8   ar
    34     8     9   ar
    35    29    30   ar
    36    30    31    1
    37    30    24   ar
    38     9     1   ar
    39     9     4    1
    40    16    11   ar
    41    32    33    1
    42     5    10    1
@<TRIPOS>MOLECULE
*****
 39 42 0 0 0
SMALL
GASTEIGER

@<TRIPOS>ATOM
      1 C           3.8456   -1.8131   19.0418 C.ar    1  UNL1        0.0611
      2 C           3.6763   -1.2474   17.6630 C.ar    1  UNL1        0.1037
      3 N           3.0479    0.1085   17.7923 N.ar    1  UNL1       -0.2269
      4 C           2.8288    0.3807   19.2510 C.ar    1  UNL1        0.1407
      5 N           2.2442    1.5566   19.9758 N.ar    1  UNL1       -0.3374
      6 C           2.1525    1.5448   21.4730 C.ar    1  UNL1        0.0734
      7 C           2.6455    0.3572   22.2452 C.ar    1  UNL1        0.0171
      8 C           3.2302   -0.8187   21.5204 C.ar    1  UNL1        0.0046
      9 C           3.3219   -0.8069   20.0233 C.ar    1  UNL1        0.0386
     10 H           1.9206    2.3361   19.4690 H       1  UNL1        0.1674
     11 C           2.5539    0.3454   23.7424 C.ar    1  UNL1        0.0014
     12 C           3.5139   -0.4805   24.5462 C.ar    1  UNL1       -0.0003
     13 C           3.4223   -0.4922   26.0434 C.ar    1  UNL1       -0.0043
     14 C           2.3705    0.3220   26.7368 C.ar    1  UNL1       -0.0221
     15 C           1.4104    1.1480   25.9329 C.ar    1  UNL1       -0.0043
     16 C           1.5021    1.1597   24.4358 C.ar    1  UNL1       -0.0003
     17 C           2.2788    0.3103   28.2339 C.3     1  UNL1        0.0289
     18 C           1.7104    1.4936   28.9597 C.3     1  UNL1        0.0367
     19 C           0.3188    1.4345   29.5164 C.3     1  UNL1        0.1426
     20 O          -0.3303    0.1069   29.7736 O.3     1  UNL1       -0.3511
     21 C          -1.3188   -0.4475   28.7910 C.3     1  UNL1        0.1741
     22 C           4.4352   -3.1503   19.3799 C.2     1  UNL1        0.2015
     23 O           3.7239   -4.4075   18.9757 O.2     1  UNL1       -0.2864
     24 C           7.0597   -3.7756   22.2905 C.ar    1  UNL1        0.0920
     25 C           8.3381   -3.3904   21.6070 C.ar    1  UNL1        0.0204
     26 C           8.3156   -2.9252   20.1811 C.ar    1  UNL1        0.0312
     27 C           7.0147   -2.8452   19.4388 C.ar    1  UNL1        0.1454
     28 F           6.9921   -2.3799   18.0129 F       1  UNL1       -0.2040
     29 C           5.7362   -3.2303   20.1223 C.ar    1  UNL1        0.0951
     30 C           5.7588   -3.6956   21.5481 C.ar    1  UNL1        0.1598
     31 F           4.4802   -4.0807   22.2316 F       1  UNL1       -0.2026
     32 N           7.0822   -4.2408   23.7164 N.pl3   1  UNL1       -0.2166
     33 H           6.4151   -3.9009   24.3557 H       1  UNL1        0.1734
     34 S           8.1211   -5.2239   24.1682 S.O2    1  UNL1        0.0540
     35 O           8.5267   -4.2893   25.2691 O.2     1  UNL1       -0.1545
     36 O           7.7155   -6.1584   23.0672 O.2     1  UNL1       -0.1545
     37 C           9.1600   -6.2070   24.6199 C.3     1  UNL1        0.1724
     38 C           7.7150   -7.8492   26.0219 C.3     1  UNL1        0.0019
     39 C           8.7618   -7.6090   24.9748 C.3     1  UNL1        0.0273
@<TRIPOS>BOND
     1    38    39    1
     2    39    37    1
     3    37    34    1
     4    34    35    2
     5    34    36    2
     6    34    32    1
     7    32    24    1
     8    24    25   ar
     9    25    26   ar
    10    26    27   ar
    11    27    28    1
    12    27    29   ar
    13    29    22    1
    14    22    23    2
    15    22     1    1
    16     1     2   ar
    17     2     3   ar
    18     3     4   ar
    19     4     5   ar
    20     5     6   ar
    21     6     7   ar
    22     7    11    1
    23    11    12   ar
    24    12    13   ar
    25    13    14   ar
    26    14    17    1
    27    17    18    1
    28    18    19    1
    29    19    20    1
    30    20    21    1
    31    14    15   ar
    32    15    16   ar
    33     7     8   ar
    34     8     9   ar
    35    29    30   ar
    36    30    31    1
    37    30    24   ar
    38     9     1   ar
    39     9     4    1
    40    16    11   ar
    41    32    33    1
    42     5    10    1
@<TRIPOS>MOLECULE
*****
 39 42 0 0 0
SMALL
GASTEIGER

@<TRIPOS>ATOM
      1 C           1.1278    1.4716   20.4043 C.ar    1  UNL1        0.0611
      2 C          -0.0119    2.3937   20.7217 C.ar    1  UNL1        0.1037
      3 N          -0.2006    2.4021   22.2098 N.ar    1  UNL1       -0.2269
      4 C           0.8224    1.4852   22.8120 C.ar    1  UNL1        0.1407
      5 N           1.1124    1.0996   24.2323 N.ar    1  UNL1       -0.3374
      6 C           2.2234    0.1390   24.5367 C.ar    1  UNL1        0.0734
      7 C           3.0445   -0.4361   23.4208 C.ar    1  UNL1        0.0171
      8 C           2.7545   -0.0505   22.0006 C.ar    1  UNL1        0.0046
      9 C           1.6434    0.9101   21.6962 C.ar    1  UNL1        0.0386
     10 H           0.5735    1.4771   24.9647 H       1  UNL1        0.1674
     11 C           4.1556   -1.3968   23.7253 C.ar    1  UNL1        0.0014
     12 C           4.3003   -2.6551   22.9218 C.ar    1  UNL1       -0.0003
     13 C           5.4114   -3.6158   23.2262 C.ar    1  UNL1       -0.0043
     14 C           6.3777   -3.3181   24.3343 C.ar    1  UNL1       -0.0221
     15 C           6.2329   -2.0597   25.1378 C.ar    1  UNL1       -0.0043
     16 C           5.1219   -1.0991   24.8333 C.ar    1  UNL1       -0.0003
     17 C           7.4888   -4.2787   24.6387 C.3     1  UNL1        0.0289
     18 C           7.1726   -5.6555   25.1431 C.3     1  UNL1        0.0367
     19 C           6.7732   -5.8564   26.5749 C.3     1  UNL1        0.1426
     20 O           7.3202   -4.9529   27.6400 O.3     1  UNL1       -0.3511
     21 C           6.4207   -3.9623   28.3179 C.3     1  UNL1        0.1741
     22 C           1.6587    1.1648   19.0354 C.2     1  UNL1        0.2015
     23 O           0.7289    0.6861   17.9602 O.2     1  UNL1       -0.2864
     24 C           5.4509    0.3045   18.2416 C.ar    1  UNL1        0.0920
     25 C           6.0414    1.6806   18.1541 C.ar    1  UNL1        0.0204
     26 C           5.1711    2.8847   18.3603 C.ar    1  UNL1        0.0312
     27 C           3.7102    2.7129   18.6541 C.ar    1  UNL1        0.1454
     28 F           2.8399    3.9170   18.8603 F       1  UNL1       -0.2040
     29 C           3.1197    1.3368   18.7416 C.ar    1  UNL1        0.0951
     30 C           3.9900    0.1326   18.5354 C.ar    1  UNL1        0.1598
     31 F           3.3994   -1.2435   18.6229 F       1  UNL1       -0.2026
     32 N           6.3212   -0.8997   18.0354 N.pl3   1  UNL1       -0.2166
     33 H           7.0780   -0.8583   17.4071 H       1  UNL1        0.1734
     34 S           6.0384   -2.1670   18.7864 S.O2    1  UNL1        0.0540
     35 O           5.6672   -2.8457   17.5013 O.2     1  UNL1       -0.1545
     36 O           6.4095   -1.4882   20.0715 O.2     1  UNL1       -0.1545
     37 C           5.7556   -3.4342   19.5375 C.3     1  UNL1        0.1724
     38 C           3.5651   -4.8302   19.5958 C.3     1  UNL1        0.0019
     39 C           4.8654   -4.4804   18.9349 C.3     1  UNL1        0.0273
@<TRIPOS>BOND
     1    38    39    1
     2    39    37    1
     3    37    34    1
     4    34    35    2
     5    34    36    2
     6    34    32    1
     7    32    24    1
     8    24    25   ar
     9    25    26   ar
    10    26    27   ar
    11    27    28    1
    12    27    29   ar
    13    29    22    1
    14    22    23    2
    15    22     1    1
    16     1     2   ar
    17     2     3   ar
    18     3     4   ar
    19     4     5   ar
    20     5     6   ar
    21     6     7   ar
    22     7    11    1
    23    11    12   ar
    24    12    13   ar
    25    13    14   ar
    26    14    17    1
    27    17    18    1
    28    18    19    1
    29    19    20    1
    30    20    21    1
    31    14    15   ar
    32    15    16   ar
    33     7     8   ar
    34     8     9   ar
    35    29    30   ar
    36    30    31    1
    37    30    24   ar
    38     9     1   ar
    39     9     4    1
    40    16    11   ar
    41    32    33    1
    42     5    10    1
@<TRIPOS>MOLECULE
*****
 39 42 0 0 0
SMALL
GASTEIGER

@<TRIPOS>ATOM
      1 C           6.2373   -3.1640   24.3507 C.ar    1  UNL1        0.0611
      2 C           6.4997   -3.3696   25.8132 C.ar    1  UNL1        0.1037
      3 N           5.5305   -2.5211   26.5817 N.ar    1  UNL1       -0.2269
      4 C           4.6691   -1.7911   25.5942 C.ar    1  UNL1        0.1407
      5 N           3.5435   -0.8159   25.7725 N.ar    1  UNL1       -0.3374
      6 C           2.8547   -0.2379   24.5719 C.ar    1  UNL1        0.0734
      7 C           3.2916   -0.6352   23.1930 C.ar    1  UNL1        0.0171
      8 C           4.4172   -1.6104   23.0148 C.ar    1  UNL1        0.0046
      9 C           5.1060   -2.1884   24.2154 C.ar    1  UNL1        0.0386
     10 H           3.2567   -0.5551   26.6775 H       1  UNL1        0.1674
     11 C           2.6027   -0.0573   21.9924 C.ar    1  UNL1        0.0014
     12 C           2.1770   -0.9541   20.8679 C.ar    1  UNL1       -0.0003
     13 C           1.4882   -0.3761   19.6672 C.ar    1  UNL1       -0.0043
     14 C           1.2250    1.0987   19.5911 C.ar    1  UNL1       -0.0221
     15 C           1.6507    1.9955   20.7157 C.ar    1  UNL1       -0.0043
     16 C           2.3395    1.4175   21.9163 C.ar    1  UNL1       -0.0003
     17 C           0.5362    1.6767   18.3906 C.3     1  UNL1        0.0289
     18 C           0.3330    3.1590   18.2838 C.3     1  UNL1        0.0367
     19 C          -0.9564    3.7742   18.7409 C.3     1  UNL1        0.1426
     20 O          -1.8891    4.3909   17.7411 O.3     1  UNL1       -0.3511
     21 C          -1.6917    4.1381   16.2759 C.3     1  UNL1        0.1741
     22 C           6.9765   -3.8189   23.2217 C.2     1  UNL1        0.2015
     23 O           7.2717   -5.2887   23.2711 O.2     1  UNL1       -0.2864
     24 C           7.1750   -2.3459   19.5418 C.ar    1  UNL1        0.0920
     25 C           8.3085   -1.3742   19.6862 C.ar    1  UNL1        0.0204
     26 C           8.9980   -1.2173   21.0091 C.ar    1  UNL1        0.0312
     27 C           8.5541   -2.0322   22.1876 C.ar    1  UNL1        0.1454
     28 F           9.2436   -1.8754   23.5104 F       1  UNL1       -0.2040
     29 C           7.4206   -3.0039   22.0432 C.ar    1  UNL1        0.0951
     30 C           6.7311   -3.1608   20.7203 C.ar    1  UNL1        0.1598
     31 F           5.5975   -4.1326   20.5760 F       1  UNL1       -0.2026
     32 N           6.4855   -2.5027   18.2190 N.pl3   1  UNL1       -0.2166
     33 H           6.6455   -3.3059   17.6726 H       1  UNL1        0.1734
     34 S           5.5522   -1.4358   17.7285 S.O2    1  UNL1        0.0540
     35 O           6.6921   -0.7633   17.0225 O.2     1  UNL1       -0.1545
     36 O           4.4124   -2.1082   18.4345 O.2     1  UNL1       -0.1545
     37 C           4.6189   -0.3688   17.2381 C.3     1  UNL1        0.1724
     38 C           5.0976    1.0545   19.3584 C.3     1  UNL1        0.0019
     39 C           4.4925    0.9216   17.9923 C.3     1  UNL1        0.0273
@<TRIPOS>BOND
     1    38    39    1
     2    39    37    1
     3    37    34    1
     4    34    35    2
     5    34    36    2
     6    34    32    1
     7    32    24    1
     8    24    25   ar
     9    25    26   ar
    10    26    27   ar
    11    27    28    1
    12    27    29   ar
    13    29    22    1
    14    22    23    2
    15    22     1    1
    16     1     2   ar
    17     2     3   ar
    18     3     4   ar
    19     4     5   ar
    20     5     6   ar
    21     6     7   ar
    22     7    11    1
    23    11    12   ar
    24    12    13   ar
    25    13    14   ar
    26    14    17    1
    27    17    18    1
    28    18    19    1
    29    19    20    1
    30    20    21    1
    31    14    15   ar
    32    15    16   ar
    33     7     8   ar
    34     8     9   ar
    35    29    30   ar
    36    30    31    1
    37    30    24   ar
    38     9     1   ar
    39     9     4    1
    40    16    11   ar
    41    32    33    1
    42     5    10    1
@<TRIPOS>MOLECULE
*****
 39 42 0 0 0
SMALL
GASTEIGER

@<TRIPOS>ATOM
      1 C           2.3624    1.7059   24.2079 C.ar    1  UNL1        0.0611
      2 C           3.3731    0.9283   24.9977 C.ar    1  UNL1        0.1037
      3 N           2.7885    0.6484   26.3504 N.ar    1  UNL1       -0.2269
      4 C           1.4165    1.2531   26.3967 C.ar    1  UNL1        0.1407
      5 N           0.3731    1.2929   27.4734 N.ar    1  UNL1       -0.3374
      6 C          -0.9338    1.9864   27.2260 C.ar    1  UNL1        0.0734
      7 C          -1.1971    2.6399   25.9019 C.ar    1  UNL1        0.0171
      8 C          -0.1536    2.6001   24.8251 C.ar    1  UNL1        0.0046
      9 C           1.1532    1.9066   25.0725 C.ar    1  UNL1        0.0386
     10 H           0.5459    0.8639   28.3426 H       1  UNL1        0.1674
     11 C          -2.5041    3.3334   25.6545 C.ar    1  UNL1        0.0014
     12 C          -3.3617    3.7521   26.8116 C.ar    1  UNL1       -0.0003
     13 C          -4.6687    4.4456   26.5642 C.ar    1  UNL1       -0.0043
     14 C          -5.1178    4.7203   25.1597 C.ar    1  UNL1       -0.0221
     15 C          -4.2601    4.3016   24.0025 C.ar    1  UNL1       -0.0043
     16 C          -2.9532    3.6081   24.2499 C.ar    1  UNL1       -0.0003
     17 C          -6.4247    5.4138   24.9123 C.3     1  UNL1        0.0289
     18 C          -6.4900    6.5749   23.9650 C.3     1  UNL1        0.0367
     19 C          -7.4722    6.5637   22.8313 C.3     1  UNL1        0.1426
     20 O          -7.7483    5.2888   22.0907 O.3     1  UNL1       -0.3511
     21 C          -6.7172    4.7245   21.1589 C.3     1  UNL1        0.1741
     22 C           2.5313    2.1967   22.8005 C.2     1  UNL1        0.2015
     23 O           2.7652    3.6548   22.5377 O.2     1  UNL1       -0.2864
     24 C           3.6478   -0.0906   19.7556 C.ar    1  UNL1        0.0920
     25 C           2.3359   -0.7054   19.3669 C.ar    1  UNL1        0.0204
     26 C           1.0892   -0.3529   20.1228 C.ar    1  UNL1        0.0312
     27 C           1.1543    0.6145   21.2673 C.ar    1  UNL1        0.1454
     28 F          -0.0925    0.9670   22.0232 F       1  UNL1       -0.2040
     29 C           2.4661    1.2293   21.6559 C.ar    1  UNL1        0.0951
     30 C           3.7128    0.8767   20.9001 C.ar    1  UNL1        0.1598
     31 F           5.0247    1.4916   21.2888 F       1  UNL1       -0.2026
     32 N           4.8945   -0.4432   18.9997 N.pl3   1  UNL1       -0.2166
     33 H           5.5060    0.2677   18.6998 H       1  UNL1        0.1734
     34 S           5.2095   -1.8789   18.7006 S.O2    1  UNL1        0.0540
     35 O           4.8571   -1.6561   17.2598 O.2     1  UNL1       -0.1545
     36 O           5.5620   -2.1017   20.1415 O.2     1  UNL1       -0.1545
     37 C           5.5245   -3.3146   18.4017 C.3     1  UNL1        0.1724
     38 C           3.2413   -4.3548   19.0765 C.3     1  UNL1        0.0019
     39 C           4.7403   -4.4083   19.0643 C.3     1  UNL1        0.0273
@<TRIPOS>BOND
     1    38    39    1
     2    39    37    1
     3    37    34    1
     4    34    35    2
     5    34    36    2
     6    34    32    1
     7    32    24    1
     8    24    25   ar
     9    25    26   ar
    10    26    27   ar
    11    27    28    1
    12    27    29   ar
    13    29    22    1
    14    22    23    2
    15    22     1    1
    16     1     2   ar
    17     2     3   ar
    18     3     4   ar
    19     4     5   ar
    20     5     6   ar
    21     6     7   ar
    22     7    11    1
    23    11    12   ar
    24    12    13   ar
    25    13    14   ar
    26    14    17    1
    27    17    18    1
    28    18    19    1
    29    19    20    1
    30    20    21    1
    31    14    15   ar
    32    15    16   ar
    33     7     8   ar
    34     8     9   ar
    35    29    30   ar
    36    30    31    1
    37    30    24   ar
    38     9     1   ar
    39     9     4    1
    40    16    11   ar
    41    32    33    1
    42     5    10    1
