@<TRIPOS>MOLECULE
*****
 20 22 0 0 0
SMALL
GASTEIGER

@<TRIPOS>ATOM
      1 C          -5.4649  -15.5359   24.4266 C.3     1  UNL1        0.0899
      2 N          -5.5882  -16.7127   23.5046 N.3     1  UNL1       -0.2671
      3 C          -4.3557  -17.3647   22.9518 C.3     1  UNL1        0.1001
      4 C          -4.4791  -18.5415   22.0298 C.ar    1  UNL1        0.0032
      5 C          -3.2465  -19.1935   21.4769 C.ar    1  UNL1        0.0385
      6 N          -1.8906  -18.6688   21.8459 N.pl3   1  UNL1       -0.3572
      7 C          -3.3699  -20.3703   20.5550 C.ar    1  UNL1        0.0138
      8 C          -4.7258  -20.8950   20.1860 C.ar    1  UNL1        0.0009
      9 C          -5.9583  -20.2430   20.7388 C.ar    1  UNL1       -0.0041
     10 C          -5.8350  -19.0663   21.6608 C.ar    1  UNL1       -0.0185
     11 C          -7.0675  -18.4142   22.2137 C.3     1  UNL1        0.0603
     12 C          -6.9441  -17.2374   23.1356 C.3     1  UNL1        0.0811
     13 H          -1.8097  -17.8964   22.4510 H       1  UNL1        0.1423
     14 H          -1.0817  -19.0968   21.4831 H       1  UNL1        0.1423
     15 C          -8.4234  -18.9389   21.8447 C.ar    1  UNL1       -0.0171
     16 C          -8.8833  -18.8909   20.4176 C.ar    1  UNL1       -0.0039
     17 C         -10.2392  -19.4156   20.0486 C.ar    1  UNL1       -0.0003
     18 C         -11.1352  -19.9884   21.1066 C.ar    1  UNL1       -0.0000
     19 C         -10.6753  -20.0364   22.5335 C.ar    1  UNL1       -0.0003
     20 C          -9.3194  -19.5116   22.9025 C.ar    1  UNL1       -0.0039
@<TRIPOS>BOND
     1     1     2    1
     2     2     3    1
     3     3     4    1
     4     4     5   ar
     5     5     6    1
     6     5     7   ar
     7     7     8   ar
     8     8     9   ar
     9     9    10   ar
    10    10    11    1
    11    11    15    1
    12    15    16   ar
    13    16    17   ar
    14    17    18   ar
    15    18    19   ar
    16    19    20   ar
    17    11    12    1
    18    12     2    1
    19    10     4   ar
    20    20    15   ar
    21     6    13    1
    22     6    14    1
@<TRIPOS>MOLECULE
*****
 20 22 0 0 0
SMALL
GASTEIGER

@<TRIPOS>ATOM
      1 C          -6.9214  -20.0453   20.4628 C.3     1  UNL1        0.0899
      2 N          -7.4246  -19.0643   21.4799 N.3     1  UNL1       -0.2671
      3 C          -6.4720  -18.1097   22.1365 C.3     1  UNL1        0.1001
      4 C          -6.9752  -17.1286   23.1536 C.ar    1  UNL1        0.0032
      5 C          -6.0226  -16.1740   23.8102 C.ar    1  UNL1        0.0385
      6 N          -4.5668  -16.2004   23.4498 N.pl3   1  UNL1       -0.3572
      7 C          -6.5258  -15.1930   24.8272 C.ar    1  UNL1        0.0138
      8 C          -7.9817  -15.1666   25.1876 C.ar    1  UNL1        0.0009
      9 C          -8.9343  -16.1212   24.5310 C.ar    1  UNL1       -0.0041
     10 C          -8.4310  -17.1022   23.5140 C.ar    1  UNL1       -0.0185
     11 C          -9.3837  -18.0569   22.8573 C.3     1  UNL1        0.0603
     12 C          -8.8805  -19.0379   21.8403 C.3     1  UNL1        0.0811
     13 H          -4.2365  -16.8442   22.7823 H       1  UNL1        0.1423
     14 H          -3.9415  -15.5738   23.8808 H       1  UNL1        0.1423
     15 C         -10.8395  -18.0305   23.2177 C.ar    1  UNL1       -0.0171
     16 C         -11.8006  -17.2218   22.3976 C.ar    1  UNL1       -0.0039
     17 C         -13.2564  -17.1954   22.7579 C.ar    1  UNL1       -0.0003
     18 C         -13.7511  -17.9777   23.9384 C.ar    1  UNL1       -0.0000
     19 C         -12.7901  -18.7862   24.7584 C.ar    1  UNL1       -0.0003
     20 C         -11.3342  -18.8126   24.3980 C.ar    1  UNL1       -0.0039
@<TRIPOS>BOND
     1     1     2    1
     2     2     3    1
     3     3     4    1
     4     4     5   ar
     5     5     6    1
     6     5     7   ar
     7     7     8   ar
     8     8     9   ar
     9     9    10   ar
    10    10    11    1
    11    11    15    1
    12    15    16   ar
    13    16    17   ar
    14    17    18   ar
    15    18    19   ar
    16    19    20   ar
    17    11    12    1
    18    12     2    1
    19    10     4   ar
    20    20    15   ar
    21     6    13    1
    22     6    14    1
@<TRIPOS>MOLECULE
*****
 20 22 0 0 0
SMALL
GASTEIGER

@<TRIPOS>ATOM
      1 C         -12.6267  -16.3239   22.2708 C.3     1  UNL1        0.0899
      2 N         -11.2036  -16.7920   22.3475 N.3     1  UNL1       -0.2671
      3 C         -10.6747  -17.7547   21.3261 C.3     1  UNL1        0.1001
      4 C          -9.2516  -18.2228   21.4028 C.ar    1  UNL1        0.0032
      5 C          -8.7226  -19.1855   20.3814 C.ar    1  UNL1        0.0385
      6 N          -9.6167  -19.6802   19.2832 N.pl3   1  UNL1       -0.3572
      7 C          -7.2996  -19.6536   20.4582 C.ar    1  UNL1        0.0138
      8 C          -6.4056  -19.1589   21.5563 C.ar    1  UNL1        0.0009
      9 C          -6.9345  -18.1962   22.5778 C.ar    1  UNL1       -0.0041
     10 C          -8.3576  -17.7282   22.5010 C.ar    1  UNL1       -0.0185
     11 C          -8.8866  -16.7654   23.5225 C.3     1  UNL1        0.0603
     12 C         -10.3096  -16.2974   23.4457 C.3     1  UNL1        0.0811
     13 H         -10.5506  -19.3730   19.2328 H       1  UNL1        0.1423
     14 H          -9.2695  -20.3120   18.6128 H       1  UNL1        0.1423
     15 C          -7.9925  -16.2708   24.6206 C.ar    1  UNL1       -0.0171
     16 C          -8.4180  -16.4067   26.0527 C.ar    1  UNL1       -0.0039
     17 C          -7.5240  -15.9121   27.1508 C.ar    1  UNL1       -0.0003
     18 C          -6.2045  -15.2815   26.8170 C.ar    1  UNL1       -0.0000
     19 C          -5.7791  -15.1455   25.3851 C.ar    1  UNL1       -0.0003
     20 C          -6.6731  -15.6402   24.2869 C.ar    1  UNL1       -0.0039
@<TRIPOS>BOND
     1     1     2    1
     2     2     3    1
     3     3     4    1
     4     4     5   ar
     5     5     6    1
     6     5     7   ar
     7     7     8   ar
     8     8     9   ar
     9     9    10   ar
    10    10    11    1
    11    11    15    1
    12    15    16   ar
    13    16    17   ar
    14    17    18   ar
    15    18    19   ar
    16    19    20   ar
    17    11    12    1
    18    12     2    1
    19    10     4   ar
    20    20    15   ar
    21     6    13    1
    22     6    14    1
@<TRIPOS>MOLECULE
*****
 20 22 0 0 0
SMALL
GASTEIGER

@<TRIPOS>ATOM
      1 C          -5.9735  -15.1574   25.4207 C.3     1  UNL1        0.0899
      2 N          -6.6180  -16.0996   24.4475 N.3     1  UNL1       -0.2671
      3 C          -5.7696  -16.8976   23.5022 C.3     1  UNL1        0.1001
      4 C          -6.4141  -17.8397   22.5290 C.ar    1  UNL1        0.0032
      5 C          -5.5658  -18.6378   21.5838 C.ar    1  UNL1        0.0385
      6 N          -4.0730  -18.4937   21.6117 N.pl3   1  UNL1       -0.3572
      7 C          -6.2103  -19.5799   20.6107 C.ar    1  UNL1        0.0138
      8 C          -7.7031  -19.7239   20.5827 C.ar    1  UNL1        0.0009
      9 C          -8.5514  -18.9259   21.5279 C.ar    1  UNL1       -0.0041
     10 C          -7.9069  -17.9838   22.5011 C.ar    1  UNL1       -0.0185
     11 C          -8.7553  -17.1858   23.4464 C.3     1  UNL1        0.0603
     12 C          -8.1108  -16.2437   24.4195 C.3     1  UNL1        0.0811
     13 H          -3.6500  -17.8753   22.2505 H       1  UNL1        0.1423
     14 H          -3.5162  -19.0175   20.9914 H       1  UNL1        0.1423
     15 C         -10.2481  -17.3298   23.4184 C.ar    1  UNL1       -0.0171
     16 C         -11.0732  -16.4214   22.5558 C.ar    1  UNL1       -0.0039
     17 C         -12.5660  -16.5655   22.5279 C.ar    1  UNL1       -0.0003
     18 C         -13.2337  -17.6180   23.3626 C.ar    1  UNL1       -0.0000
     19 C         -12.4085  -18.5263   24.2251 C.ar    1  UNL1       -0.0003
     20 C         -10.9157  -18.3823   24.2530 C.ar    1  UNL1       -0.0039
@<TRIPOS>BOND
     1     1     2    1
     2     2     3    1
     3     3     4    1
     4     4     5   ar
     5     5     6    1
     6     5     7   ar
     7     7     8   ar
     8     8     9   ar
     9     9    10   ar
    10    10    11    1
    11    11    15    1
    12    15    16   ar
    13    16    17   ar
    14    17    18   ar
    15    18    19   ar
    16    19    20   ar
    17    11    12    1
    18    12     2    1
    19    10     4   ar
    20    20    15   ar
    21     6    13    1
    22     6    14    1
@<TRIPOS>MOLECULE
*****
 20 22 0 0 0
SMALL
GASTEIGER

@<TRIPOS>ATOM
      1 C          -8.6313  -15.9242   24.5100 C.3     1  UNL1        0.0899
      2 N          -8.4702  -16.8480   23.3392 N.3     1  UNL1       -0.2671
      3 C          -9.6630  -17.2243   22.5111 C.3     1  UNL1        0.1001
      4 C          -9.5019  -18.1481   21.3403 C.ar    1  UNL1        0.0032
      5 C         -10.6946  -18.5244   20.5123 C.ar    1  UNL1        0.0385
      6 N         -12.0485  -17.9770   20.8549 N.pl3   1  UNL1       -0.3572
      7 C         -10.5335  -19.4482   19.3415 C.ar    1  UNL1        0.0138
      8 C          -9.1797  -19.9957   18.9989 C.ar    1  UNL1        0.0009
      9 C          -7.9870  -19.6194   19.8270 C.ar    1  UNL1       -0.0041
     10 C          -8.1481  -18.6956   20.9977 C.ar    1  UNL1       -0.0185
     11 C          -6.9553  -18.3193   21.8258 C.3     1  UNL1        0.0603
     12 C          -7.1164  -17.3955   22.9965 C.3     1  UNL1        0.0811
     13 H         -12.1542  -17.3706   21.6233 H       1  UNL1        0.1423
     14 H         -12.8313  -18.2240   20.3114 H       1  UNL1        0.1423
     15 C          -5.6015  -18.8667   21.4832 C.ar    1  UNL1       -0.0171
     16 C          -5.2766  -19.2306   20.0646 C.ar    1  UNL1       -0.0039
     17 C          -3.9228  -19.7780   19.7220 C.ar    1  UNL1       -0.0003
     18 C          -2.8938  -19.9617   20.7979 C.ar    1  UNL1       -0.0000
     19 C          -3.2187  -19.5979   22.2164 C.ar    1  UNL1       -0.0003
     20 C          -4.5725  -19.0504   22.5590 C.ar    1  UNL1       -0.0039
@<TRIPOS>BOND
     1     1     2    1
     2     2     3    1
     3     3     4    1
     4     4     5   ar
     5     5     6    1
     6     5     7   ar
     7     7     8   ar
     8     8     9   ar
     9     9    10   ar
    10    10    11    1
    11    11    15    1
    12    15    16   ar
    13    16    17   ar
    14    17    18   ar
    15    18    19   ar
    16    19    20   ar
    17    11    12    1
    18    12     2    1
    19    10     4   ar
    20    20    15   ar
    21     6    13    1
    22     6    14    1
@<TRIPOS>MOLECULE
*****
 20 22 0 0 0
SMALL
GASTEIGER

@<TRIPOS>ATOM
      1 C          -9.2377  -13.9725   19.7278 C.3     1  UNL1        0.0899
      2 N          -9.3655  -14.8997   20.9001 N.3     1  UNL1       -0.2671
      3 C         -10.5255  -15.8468   20.9843 C.3     1  UNL1        0.1001
      4 C         -10.6533  -16.7740   22.1566 C.ar    1  UNL1        0.0032
      5 C         -11.8133  -17.7211   22.2407 C.ar    1  UNL1        0.0385
      6 N         -12.8457  -17.7412   21.1527 N.pl3   1  UNL1       -0.3572
      7 C         -11.9410  -18.6482   23.4130 C.ar    1  UNL1        0.0138
      8 C         -10.9087  -18.6281   24.5010 C.ar    1  UNL1        0.0009
      9 C          -9.7486  -17.6810   24.4168 C.ar    1  UNL1       -0.0041
     10 C          -9.6209  -16.7539   23.2446 C.ar    1  UNL1       -0.0185
     11 C          -8.4608  -15.8067   23.1604 C.3     1  UNL1        0.0603
     12 C          -8.3331  -14.8796   21.9882 C.3     1  UNL1        0.0811
     13 H         -12.7618  -17.1327   20.3833 H       1  UNL1        0.1423
     14 H         -13.6071  -18.3629   21.2080 H       1  UNL1        0.1423
     15 C          -7.4285  -15.7866   24.2484 C.ar    1  UNL1       -0.0171
     16 C          -5.9879  -16.0457   23.9203 C.ar    1  UNL1       -0.0039
     17 C          -4.9555  -16.0256   25.0084 C.ar    1  UNL1       -0.0003
     18 C          -5.3638  -15.7464   26.4245 C.ar    1  UNL1       -0.0000
     19 C          -6.8043  -15.4873   26.7526 C.ar    1  UNL1       -0.0003
     20 C          -7.8367  -15.5074   25.6645 C.ar    1  UNL1       -0.0039
@<TRIPOS>BOND
     1     1     2    1
     2     2     3    1
     3     3     4    1
     4     4     5   ar
     5     5     6    1
     6     5     7   ar
     7     7     8   ar
     8     8     9   ar
     9     9    10   ar
    10    10    11    1
    11    11    15    1
    12    15    16   ar
    13    16    17   ar
    14    17    18   ar
    15    18    19   ar
    16    19    20   ar
    17    11    12    1
    18    12     2    1
    19    10     4   ar
    20    20    15   ar
    21     6    13    1
    22     6    14    1
@<TRIPOS>MOLECULE
*****
 20 22 0 0 0
SMALL
GASTEIGER

@<TRIPOS>ATOM
      1 C         -10.2596  -19.6680   19.3723 C.3     1  UNL1        0.0899
      2 N          -9.2909  -19.0057   20.3068 N.3     1  UNL1       -0.2671
      3 C          -9.7814  -18.0022   21.3080 C.3     1  UNL1        0.1001
      4 C          -8.8127  -17.3399   22.2424 C.ar    1  UNL1        0.0032
      5 C          -9.3032  -16.3365   23.2436 C.ar    1  UNL1        0.0385
      6 N         -10.7623  -15.9952   23.3104 N.pl3   1  UNL1       -0.3572
      7 C          -8.3345  -15.6742   24.1779 C.ar    1  UNL1        0.0138
      8 C          -6.8754  -16.0154   24.1111 C.ar    1  UNL1        0.0009
      9 C          -6.3849  -17.0189   23.1099 C.ar    1  UNL1       -0.0041
     10 C          -7.3536  -17.6811   22.1756 C.ar    1  UNL1       -0.0185
     11 C          -6.8631  -18.6847   21.1743 C.3     1  UNL1        0.0603
     12 C          -7.8317  -19.3469   20.2399 C.3     1  UNL1        0.0811
     13 H         -11.3981  -16.4299   22.6971 H       1  UNL1        0.1423
     14 H         -11.0843  -15.3366   23.9675 H       1  UNL1        0.1423
     15 C          -5.4039  -19.0259   21.1075 C.ar    1  UNL1       -0.0171
     16 C          -4.6569  -19.3738   22.3609 C.ar    1  UNL1       -0.0039
     17 C          -3.1978  -19.7150   22.2941 C.ar    1  UNL1       -0.0003
     18 C          -2.4857  -19.7083   20.9739 C.ar    1  UNL1       -0.0000
     19 C          -3.2327  -19.3604   19.7205 C.ar    1  UNL1       -0.0003
     20 C          -4.6918  -19.0192   19.7874 C.ar    1  UNL1       -0.0039
@<TRIPOS>BOND
     1     1     2    1
     2     2     3    1
     3     3     4    1
     4     4     5   ar
     5     5     6    1
     6     5     7   ar
     7     7     8   ar
     8     8     9   ar
     9     9    10   ar
    10    10    11    1
    11    11    15    1
    12    15    16   ar
    13    16    17   ar
    14    17    18   ar
    15    18    19   ar
    16    19    20   ar
    17    11    12    1
    18    12     2    1
    19    10     4   ar
    20    20    15   ar
    21     6    13    1
    22     6    14    1
@<TRIPOS>MOLECULE
*****
 20 22 0 0 0
SMALL
GASTEIGER

@<TRIPOS>ATOM
      1 C          -9.1332  -21.3902   17.3651 C.3     1  UNL1        0.0899
      2 N          -8.8085  -20.5879   18.5903 N.3     1  UNL1       -0.2671
      3 C          -7.3952  -20.5168   19.0875 C.3     1  UNL1        0.1001
      4 C          -7.0706  -19.7145   20.3127 C.ar    1  UNL1        0.0032
      5 C          -5.6572  -19.6435   20.8100 C.ar    1  UNL1        0.0385
      6 N          -4.5684  -20.3747   20.0821 N.pl3   1  UNL1       -0.3572
      7 C          -5.3326  -18.8412   22.0351 C.ar    1  UNL1        0.0138
      8 C          -6.4214  -18.1099   22.7629 C.ar    1  UNL1        0.0009
      9 C          -7.8348  -18.1810   22.2657 C.ar    1  UNL1       -0.0041
     10 C          -8.1594  -18.9833   21.0406 C.ar    1  UNL1       -0.0185
     11 C          -9.5728  -19.0543   20.5432 C.3     1  UNL1        0.0603
     12 C          -9.8974  -19.8566   19.3181 C.3     1  UNL1        0.0811
     13 H          -4.7814  -20.9013   19.2780 H       1  UNL1        0.1423
     14 H          -3.6407  -20.3281   20.4085 H       1  UNL1        0.1423
     15 C         -10.6616  -18.3231   21.2711 C.ar    1  UNL1       -0.0171
     16 C         -11.3153  -18.9487   22.4675 C.ar    1  UNL1       -0.0039
     17 C         -12.4041  -18.2175   23.1953 C.ar    1  UNL1       -0.0003
     18 C         -12.8392  -16.8606   22.7268 C.ar    1  UNL1       -0.0000
     19 C         -12.1855  -16.2350   21.5304 C.ar    1  UNL1       -0.0003
     20 C         -11.0967  -16.9662   20.8026 C.ar    1  UNL1       -0.0039
@<TRIPOS>BOND
     1     1     2    1
     2     2     3    1
     3     3     4    1
     4     4     5   ar
     5     5     6    1
     6     5     7   ar
     7     7     8   ar
     8     8     9   ar
     9     9    10   ar
    10    10    11    1
    11    11    15    1
    12    15    16   ar
    13    16    17   ar
    14    17    18   ar
    15    18    19   ar
    16    19    20   ar
    17    11    12    1
    18    12     2    1
    19    10     4   ar
    20    20    15   ar
    21     6    13    1
    22     6    14    1
@<TRIPOS>MOLECULE
*****
 20 22 0 0 0
SMALL
GASTEIGER

@<TRIPOS>ATOM
      1 C         -11.7973  -15.8365   19.3090 C.3     1  UNL1        0.0899
      2 N         -11.2690  -16.7297   20.3922 N.3     1  UNL1       -0.2671
      3 C         -12.1282  -17.0619   21.5759 C.3     1  UNL1        0.1001
      4 C         -11.5999  -17.9551   22.6591 C.ar    1  UNL1        0.0032
      5 C         -12.4591  -18.2873   23.8428 C.ar    1  UNL1        0.0385
      6 N         -13.8466  -17.7264   23.9435 N.pl3   1  UNL1       -0.3572
      7 C         -11.9307  -19.1805   24.9259 C.ar    1  UNL1        0.0138
      8 C         -10.5432  -19.7414   24.8252 C.ar    1  UNL1        0.0009
      9 C          -9.6840  -19.4091   23.6415 C.ar    1  UNL1       -0.0041
     10 C         -10.2123  -18.5160   22.5584 C.ar    1  UNL1       -0.0185
     11 C          -9.3531  -18.1837   21.3746 C.3     1  UNL1        0.0603
     12 C          -9.8815  -17.2906   20.2915 C.3     1  UNL1        0.0811
     13 H         -14.1934  -17.1402   23.2326 H       1  UNL1        0.1423
     14 H         -14.4105  -17.9445   24.7205 H       1  UNL1        0.1423
     15 C          -7.9656  -18.7446   21.2739 C.ar    1  UNL1       -0.0171
     16 C          -6.8956  -18.2720   22.2130 C.ar    1  UNL1       -0.0039
     17 C          -5.5081  -18.8329   22.1123 C.ar    1  UNL1       -0.0003
     18 C          -5.1905  -19.8664   21.0725 C.ar    1  UNL1       -0.0000
     19 C          -6.2605  -20.3389   20.1335 C.ar    1  UNL1       -0.0003
     20 C          -7.6480  -19.7780   20.2341 C.ar    1  UNL1       -0.0039
@<TRIPOS>BOND
     1     1     2    1
     2     2     3    1
     3     3     4    1
     4     4     5   ar
     5     5     6    1
     6     5     7   ar
     7     7     8   ar
     8     8     9   ar
     9     9    10   ar
    10    10    11    1
    11    11    15    1
    12    15    16   ar
    13    16    17   ar
    14    17    18   ar
    15    18    19   ar
    16    19    20   ar
    17    11    12    1
    18    12     2    1
    19    10     4   ar
    20    20    15   ar
    21     6    13    1
    22     6    14    1
