@<TRIPOS>MOLECULE
*****
 25 27 0 0 0
SMALL
GASTEIGER

@<TRIPOS>ATOM
      1 C          -6.5788  -20.3623   20.9981 C.3     1  UNL1        0.2506
      2 C          -7.9550  -19.8452   21.2964 C.2     1  UNL1        0.1013
      3 N          -8.4320  -19.7581   22.7158 N.2     1  UNL1       -0.2501
      4 C          -9.8082  -19.2411   23.0142 C.2     1  UNL1        0.0661
      5 C         -10.2852  -19.1539   24.4336 C.3     1  UNL1        0.0718
      6 C         -11.6613  -18.6369   24.7319 C.2     1  UNL1       -0.0198
      7 C         -12.5604  -18.2070   23.6108 C.2     1  UNL1       -0.0040
      8 C         -12.0833  -18.2941   22.1914 C.2     1  UNL1        0.0040
      9 C         -10.7072  -18.8112   21.8931 C.2     1  UNL1        0.0525
     10 C         -10.2301  -18.8983   20.4736 C.2     1  UNL1        0.1940
     11 O         -11.1292  -18.4684   19.3525 O.2     1  UNL1       -0.2868
     12 C          -8.8540  -19.4153   20.1753 C.2     1  UNL1        0.0342
     13 C          -8.3769  -19.5025   18.7558 C.3     1  UNL1        0.0358
     14 O          -5.5548  -20.4433   22.0911 O.3     1  UNL1       -0.4689
     15 C          -4.0714  -16.8810   23.0183 C.ar    1  UNL1        0.1416
     16 C          -2.6233  -17.0806   22.6817 C.ar    1  UNL1        0.0371
     17 C          -2.1524  -18.4011   22.1482 C.ar    1  UNL1        0.0062
     18 C          -3.1297  -19.5220   21.9513 C.ar    1  UNL1        0.0371
     19 C          -4.5777  -19.3224   22.2880 C.ar    1  UNL1        0.1422
     20 C          -5.0485  -18.0019   22.8215 C.ar    1  UNL1        0.0738
     21 O          -4.5423  -15.5606   23.5518 O.3     1  UNL1       -0.4754
     22 C          -5.6831  -15.5084   24.5245 C.3     1  UNL1        0.2054
     23 C          -5.4110  -15.3606   25.9922 C.3     1  UNL1        0.0473
     24 C          -7.9457  -15.6159   26.5023 C.3     1  UNL1        0.0001
     25 C          -6.5277  -15.5169   26.9814 C.3     1  UNL1        0.0038
@<TRIPOS>BOND
     1    24    25    1
     2    25    23    1
     3    23    22    1
     4    22    21    1
     5    21    15    1
     6    15    16   ar
     7    16    17   ar
     8    17    18   ar
     9    18    19   ar
    10    19    14    1
    11    14     1    1
    12     1     2    1
    13     2     3    1
    14     3     4    2
    15     4     5    1
    16     5     6    1
    17     6     7    2
    18     7     8    1
    19     8     9    2
    20     9    10    1
    21    10    11    2
    22    10    12    1
    23    12    13    1
    24    19    20   ar
    25    20    15   ar
    26    12     2    2
    27     9     4    1
@<TRIPOS>MOLECULE
*****
 25 27 0 0 0
SMALL
GASTEIGER

@<TRIPOS>ATOM
      1 C          -7.6029  -19.6266   19.6863 C.3     1  UNL1        0.2506
      2 C          -6.1912  -19.3585   20.1170 C.2     1  UNL1        0.1013
      3 N          -5.2205  -18.7342   19.1590 N.2     1  UNL1       -0.2501
      4 C          -3.8088  -18.4661   19.5897 C.2     1  UNL1        0.0661
      5 C          -2.8381  -17.8418   18.6317 C.3     1  UNL1        0.0718
      6 C          -1.4266  -17.5737   19.0624 C.2     1  UNL1       -0.0198
      7 C          -0.9857  -17.9301   20.4512 C.2     1  UNL1       -0.0040
      8 C          -1.9564  -18.5544   21.4092 C.2     1  UNL1        0.0040
      9 C          -3.3680  -18.8224   20.9785 C.2     1  UNL1        0.0525
     10 C          -4.3388  -19.4468   21.9366 C.2     1  UNL1        0.1940
     11 O          -3.8979  -19.8031   23.3253 O.2     1  UNL1       -0.2868
     12 C          -5.7503  -19.7148   21.5058 C.2     1  UNL1        0.0342
     13 C          -6.7211  -20.3392   22.4639 C.3     1  UNL1        0.0358
     14 O          -8.6599  -18.5817   19.8885 O.3     1  UNL1       -0.4689
     15 C          -9.9092  -17.1890   23.3884 C.ar    1  UNL1        0.1416
     16 C         -10.8193  -18.2981   23.8263 C.ar    1  UNL1        0.0371
     17 C         -11.0096  -19.5017   22.9516 C.ar    1  UNL1        0.0062
     18 C         -10.2897  -19.5962   21.6389 C.ar    1  UNL1        0.0371
     19 C          -9.3797  -18.4871   21.2011 C.ar    1  UNL1        0.1422
     20 C          -9.1894  -17.2836   22.0758 C.ar    1  UNL1        0.0738
     21 O          -9.7189  -15.9854   24.2631 O.3     1  UNL1       -0.4754
     22 C          -8.4007  -15.7506   24.9394 C.3     1  UNL1        0.2054
     23 C          -8.2662  -15.9705   26.4171 C.3     1  UNL1        0.0473
     24 C          -5.7472  -15.3437   26.3093 C.3     1  UNL1        0.0001
     25 C          -6.9816  -15.6294   27.1122 C.3     1  UNL1        0.0038
@<TRIPOS>BOND
     1    24    25    1
     2    25    23    1
     3    23    22    1
     4    22    21    1
     5    21    15    1
     6    15    16   ar
     7    16    17   ar
     8    17    18   ar
     9    18    19   ar
    10    19    14    1
    11    14     1    1
    12     1     2    1
    13     2     3    1
    14     3     4    2
    15     4     5    1
    16     5     6    1
    17     6     7    2
    18     7     8    1
    19     8     9    2
    20     9    10    1
    21    10    11    2
    22    10    12    1
    23    12    13    1
    24    19    20   ar
    25    20    15   ar
    26    12     2    2
    27     9     4    1
@<TRIPOS>MOLECULE
*****
 25 27 0 0 0
SMALL
GASTEIGER

@<TRIPOS>ATOM
      1 C         -10.0860  -16.5926   24.4488 C.3     1  UNL1        0.2506
      2 C         -10.0006  -17.2539   23.1051 C.2     1  UNL1        0.1013
      3 N          -8.8391  -18.1458   22.7806 N.2     1  UNL1       -0.2501
      4 C          -8.7537  -18.8072   21.4370 C.2     1  UNL1        0.0661
      5 C          -7.5922  -19.6990   21.1124 C.3     1  UNL1        0.0718
      6 C          -7.5069  -20.3604   19.7688 C.2     1  UNL1       -0.0198
      7 C          -8.5831  -20.1298   18.7497 C.2     1  UNL1       -0.0040
      8 C          -9.7447  -19.2380   19.0743 C.2     1  UNL1        0.0040
      9 C          -9.8300  -18.5766   20.4179 C.2     1  UNL1        0.0525
     10 C         -10.9916  -17.6847   20.7424 C.2     1  UNL1        0.1940
     11 O         -12.0678  -17.4542   19.7233 O.2     1  UNL1       -0.2868
     12 C         -11.0769  -17.0234   22.0861 C.2     1  UNL1        0.0342
     13 C         -12.2385  -16.1315   22.4106 C.3     1  UNL1        0.0358
     14 O          -9.2685  -15.3679   24.7352 O.3     1  UNL1       -0.4689
     15 C          -5.3478  -15.8130   24.3114 C.ar    1  UNL1        0.1416
     16 C          -4.9005  -15.7633   25.7424 C.ar    1  UNL1        0.0371
     17 C          -5.9093  -15.5818   26.8376 C.ar    1  UNL1        0.0062
     18 C          -7.3653  -15.4500   26.5018 C.ar    1  UNL1        0.0371
     19 C          -7.8125  -15.4997   25.0709 C.ar    1  UNL1        0.1422
     20 C          -6.8038  -15.6812   23.9757 C.ar    1  UNL1        0.0738
     21 O          -4.3390  -15.9945   23.2162 O.3     1  UNL1       -0.4754
     22 C          -3.5643  -17.2750   23.1148 C.3     1  UNL1        0.2054
     23 C          -4.2475  -18.5311   22.6615 C.3     1  UNL1        0.0473
     24 C          -3.8585  -19.5286   20.2944 C.3     1  UNL1        0.0001
     25 C          -3.5312  -19.4902   21.7577 C.3     1  UNL1        0.0038
@<TRIPOS>BOND
     1    24    25    1
     2    25    23    1
     3    23    22    1
     4    22    21    1
     5    21    15    1
     6    15    16   ar
     7    16    17   ar
     8    17    18   ar
     9    18    19   ar
    10    19    14    1
    11    14     1    1
    12     1     2    1
    13     2     3    1
    14     3     4    2
    15     4     5    1
    16     5     6    1
    17     6     7    2
    18     7     8    1
    19     8     9    2
    20     9    10    1
    21    10    11    2
    22    10    12    1
    23    12    13    1
    24    19    20   ar
    25    20    15   ar
    26    12     2    2
    27     9     4    1
@<TRIPOS>MOLECULE
*****
 25 27 0 0 0
SMALL
GASTEIGER

@<TRIPOS>ATOM
      1 C          -7.5458  -20.3403   22.3963 C.3     1  UNL1        0.2506
      2 C          -8.8088  -19.5332   22.3357 C.2     1  UNL1        0.1013
      3 N          -9.0643  -18.6269   21.1681 N.2     1  UNL1       -0.2501
      4 C         -10.3273  -17.8198   21.1074 C.2     1  UNL1        0.0661
      5 C         -10.5828  -16.9135   19.9398 C.3     1  UNL1        0.0718
      6 C         -11.8457  -16.1065   19.8792 C.2     1  UNL1       -0.0198
      7 C         -12.8531  -16.2058   20.9861 C.2     1  UNL1       -0.0040
      8 C         -12.5976  -17.1121   22.1537 C.2     1  UNL1        0.0040
      9 C         -11.3347  -17.9191   22.2144 C.2     1  UNL1        0.0525
     10 C         -11.0791  -18.8255   23.3820 C.2     1  UNL1        0.1940
     11 O         -12.0865  -18.9248   24.4889 O.2     1  UNL1       -0.2868
     12 C          -9.8162  -19.6325   23.4426 C.2     1  UNL1        0.0342
     13 C          -9.5606  -20.5389   24.6102 C.3     1  UNL1        0.0358
     14 O          -6.4279  -20.0570   21.4371 O.3     1  UNL1       -0.4689
     15 C          -4.1622  -17.3790   23.2930 C.ar    1  UNL1        0.1416
     16 C          -2.7979  -17.7852   22.8197 C.ar    1  UNL1        0.0371
     17 C          -2.6437  -18.9486   21.8856 C.ar    1  UNL1        0.0062
     18 C          -3.8538  -19.7059   21.4247 C.ar    1  UNL1        0.0371
     19 C          -5.2180  -19.2997   21.8980 C.ar    1  UNL1        0.1422
     20 C          -5.3722  -18.1363   22.8321 C.ar    1  UNL1        0.0738
     21 O          -4.3164  -16.2156   24.2271 O.3     1  UNL1       -0.4754
     22 C          -5.6791  -15.8193   24.7130 C.3     1  UNL1        0.2054
     23 C          -5.8289  -15.0960   26.0185 C.3     1  UNL1        0.0473
     24 C          -8.1468  -15.5703   27.0919 C.3     1  UNL1        0.0001
     25 C          -6.6524  -15.6970   27.1187 C.3     1  UNL1        0.0038
@<TRIPOS>BOND
     1    24    25    1
     2    25    23    1
     3    23    22    1
     4    22    21    1
     5    21    15    1
     6    15    16   ar
     7    16    17   ar
     8    17    18   ar
     9    18    19   ar
    10    19    14    1
    11    14     1    1
    12     1     2    1
    13     2     3    1
    14     3     4    2
    15     4     5    1
    16     5     6    1
    17     6     7    2
    18     7     8    1
    19     8     9    2
    20     9    10    1
    21    10    11    2
    22    10    12    1
    23    12    13    1
    24    19    20   ar
    25    20    15   ar
    26    12     2    2
    27     9     4    1
@<TRIPOS>MOLECULE
*****
 25 27 0 0 0
SMALL
GASTEIGER

@<TRIPOS>ATOM
      1 C          -7.1844  -19.9529   22.4211 C.3     1  UNL1        0.2506
      2 C          -5.8744  -19.5056   21.8432 C.2     1  UNL1        0.1013
      3 N          -5.1655  -18.3176   22.4228 N.2     1  UNL1       -0.2501
      4 C          -3.8554  -17.8704   21.8450 C.2     1  UNL1        0.0661
      5 C          -3.1466  -16.6824   22.4246 C.3     1  UNL1        0.0718
      6 C          -1.8366  -16.2352   21.8468 C.2     1  UNL1       -0.0198
      7 C          -1.2355  -16.9761   20.6893 C.2     1  UNL1       -0.0040
      8 C          -1.9443  -18.1641   20.1097 C.2     1  UNL1        0.0040
      9 C          -3.2543  -18.6113   20.6875 C.2     1  UNL1        0.0525
     10 C          -3.9633  -19.7994   20.1079 C.2     1  UNL1        0.1940
     11 O          -3.3622  -20.5402   18.9504 O.2     1  UNL1       -0.2868
     12 C          -5.2733  -20.2465   20.6857 C.2     1  UNL1        0.0342
     13 C          -5.9822  -21.4346   20.1061 C.3     1  UNL1        0.0358
     14 O          -8.4688  -19.5926   21.7350 O.3     1  UNL1       -0.4689
     15 C          -9.6087  -16.4429   23.8634 C.ar    1  UNL1        0.1416
     16 C         -10.9675  -16.1851   23.2827 C.ar    1  UNL1        0.0371
     17 C         -11.4934  -17.0631   22.1861 C.ar    1  UNL1        0.0062
     18 C         -10.6604  -18.1990   21.6702 C.ar    1  UNL1        0.0371
     19 C          -9.3017  -18.4568   22.2509 C.ar    1  UNL1        0.1422
     20 C          -8.7758  -17.5787   23.3475 C.ar    1  UNL1        0.0738
     21 O          -9.0828  -15.5649   24.9600 O.3     1  UNL1       -0.4754
     22 C          -8.4019  -16.1761   26.1487 C.3     1  UNL1        0.2054
     23 C          -7.3699  -15.3941   26.9060 C.3     1  UNL1        0.0473
     24 C          -5.6384  -15.4966   24.9717 C.3     1  UNL1        0.0001
     25 C          -5.9458  -15.3788   26.4352 C.3     1  UNL1        0.0038
@<TRIPOS>BOND
     1    24    25    1
     2    25    23    1
     3    23    22    1
     4    22    21    1
     5    21    15    1
     6    15    16   ar
     7    16    17   ar
     8    17    18   ar
     9    18    19   ar
    10    19    14    1
    11    14     1    1
    12     1     2    1
    13     2     3    1
    14     3     4    2
    15     4     5    1
    16     5     6    1
    17     6     7    2
    18     7     8    1
    19     8     9    2
    20     9    10    1
    21    10    11    2
    22    10    12    1
    23    12    13    1
    24    19    20   ar
    25    20    15   ar
    26    12     2    2
    27     9     4    1
@<TRIPOS>MOLECULE
*****
 25 27 0 0 0
SMALL
GASTEIGER

@<TRIPOS>ATOM
      1 C          -3.9018  -15.8930   23.5551 C.3     1  UNL1        0.2506
      2 C          -3.8975  -17.0466   22.5962 C.2     1  UNL1        0.1013
      3 N          -5.0373  -18.0216   22.5908 N.2     1  UNL1       -0.2501
      4 C          -5.0331  -19.1751   21.6319 C.2     1  UNL1        0.0661
      5 C          -6.1729  -20.1502   21.6266 C.3     1  UNL1        0.0718
      6 C          -6.1686  -21.3037   20.6677 C.2     1  UNL1       -0.0198
      7 C          -5.0245  -21.4820   19.7142 C.2     1  UNL1       -0.0040
      8 C          -3.8847  -20.5070   19.7195 C.2     1  UNL1        0.0040
      9 C          -3.8890  -19.3535   20.6784 C.2     1  UNL1        0.0525
     10 C          -2.7492  -18.3784   20.6838 C.2     1  UNL1        0.1940
     11 O          -1.6051  -18.5568   19.7302 O.2     1  UNL1       -0.2868
     12 C          -2.7535  -17.2249   21.6426 C.2     1  UNL1        0.0342
     13 C          -1.6136  -16.2498   21.6480 C.3     1  UNL1        0.0358
     14 O          -5.1189  -15.0251   23.6789 O.3     1  UNL1       -0.4689
     15 C          -8.6117  -16.3245   25.0433 C.ar    1  UNL1        0.1416
     16 C          -8.4156  -16.1650   26.5219 C.ar    1  UNL1        0.0371
     17 C          -7.1205  -15.6255   27.0527 C.ar    1  UNL1        0.0062
     18 C          -6.0216  -15.2456   26.1050 C.ar    1  UNL1        0.0371
     19 C          -6.2178  -15.4051   24.6265 C.ar    1  UNL1        0.1422
     20 C          -7.5129  -15.9445   24.0956 C.ar    1  UNL1        0.0738
     21 O          -9.9068  -16.8640   24.5124 O.3     1  UNL1       -0.4754
     22 C         -10.2311  -16.7352   23.0535 C.3     1  UNL1        0.2054
     23 C         -11.3402  -17.5501   22.4570 C.3     1  UNL1        0.0473
     24 C         -13.4681  -17.9959   23.8793 C.3     1  UNL1        0.0001
     25 C         -12.7674  -17.2345   22.7934 C.3     1  UNL1        0.0038
@<TRIPOS>BOND
     1    24    25    1
     2    25    23    1
     3    23    22    1
     4    22    21    1
     5    21    15    1
     6    15    16   ar
     7    16    17   ar
     8    17    18   ar
     9    18    19   ar
    10    19    14    1
    11    14     1    1
    12     1     2    1
    13     2     3    1
    14     3     4    2
    15     4     5    1
    16     5     6    1
    17     6     7    2
    18     7     8    1
    19     8     9    2
    20     9    10    1
    21    10    11    2
    22    10    12    1
    23    12    13    1
    24    19    20   ar
    25    20    15   ar
    26    12     2    2
    27     9     4    1
@<TRIPOS>MOLECULE
*****
 25 27 0 0 0
SMALL
GASTEIGER

@<TRIPOS>ATOM
      1 C          -8.2793  -19.5153   19.7061 C.3     1  UNL1        0.2506
      2 C          -7.3855  -18.8981   20.7407 C.2     1  UNL1        0.1013
      3 N          -7.7978  -17.6300   21.4278 N.2     1  UNL1       -0.2501
      4 C          -6.9040  -17.0128   22.4624 C.2     1  UNL1        0.0661
      5 C          -7.3162  -15.7448   23.1494 C.3     1  UNL1        0.0718
      6 C          -6.4225  -15.1276   24.1840 C.2     1  UNL1       -0.0198
      7 C          -5.1166  -15.7786   24.5315 C.2     1  UNL1       -0.0040
      8 C          -4.7043  -17.0466   23.8445 C.2     1  UNL1        0.0040
      9 C          -5.5981  -17.6637   22.8099 C.2     1  UNL1        0.0525
     10 C          -5.1859  -18.9319   22.1228 C.2     1  UNL1        0.1940
     11 O          -3.8799  -19.5828   22.4704 O.2     1  UNL1       -0.2868
     12 C          -6.0796  -19.5490   21.0883 C.2     1  UNL1        0.0342
     13 C          -5.6674  -20.8171   20.4012 C.3     1  UNL1        0.0358
     14 O          -9.6046  -18.8882   19.3896 O.3     1  UNL1       -0.4689
     15 C         -11.4264  -18.9020   22.9153 C.ar    1  UNL1        0.1416
     16 C         -12.4360  -17.8104   22.7170 C.ar    1  UNL1        0.0371
     17 C         -12.5017  -17.0781   21.4095 C.ar    1  UNL1        0.0062
     18 C         -11.5579  -17.4374   20.3004 C.ar    1  UNL1        0.0371
     19 C         -10.5484  -18.5290   20.4987 C.ar    1  UNL1        0.1422
     20 C         -10.4827  -19.2613   21.8061 C.ar    1  UNL1        0.0738
     21 O         -11.3607  -19.6344   24.2227 O.3     1  UNL1       -0.4754
     22 C         -10.2912  -19.2963   25.2187 C.3     1  UNL1        0.2054
     23 C          -9.5709  -17.9837   25.1292 C.3     1  UNL1        0.0473
     24 C          -8.7284  -15.9936   26.5714 C.3     1  UNL1        0.0001
     25 C          -8.8010  -17.4687   26.3091 C.3     1  UNL1        0.0038
@<TRIPOS>BOND
     1    24    25    1
     2    25    23    1
     3    23    22    1
     4    22    21    1
     5    21    15    1
     6    15    16   ar
     7    16    17   ar
     8    17    18   ar
     9    18    19   ar
    10    19    14    1
    11    14     1    1
    12     1     2    1
    13     2     3    1
    14     3     4    2
    15     4     5    1
    16     5     6    1
    17     6     7    2
    18     7     8    1
    19     8     9    2
    20     9    10    1
    21    10    11    2
    22    10    12    1
    23    12    13    1
    24    19    20   ar
    25    20    15   ar
    26    12     2    2
    27     9     4    1
@<TRIPOS>MOLECULE
*****
 25 27 0 0 0
SMALL
GASTEIGER

@<TRIPOS>ATOM
      1 C          -8.6210  -19.6745   20.6597 C.3     1  UNL1        0.2506
      2 C          -7.2556  -19.2562   21.1190 C.2     1  UNL1        0.1013
      3 N          -6.0385  -19.9472   20.5795 N.2     1  UNL1       -0.2501
      4 C          -4.6731  -19.5290   21.0388 C.2     1  UNL1        0.0661
      5 C          -3.4560  -20.2200   20.4993 C.3     1  UNL1        0.0718
      6 C          -2.0907  -19.8017   20.9586 C.2     1  UNL1       -0.0198
      7 C          -1.9426  -18.6924   21.9574 C.2     1  UNL1       -0.0040
      8 C          -3.1597  -18.0014   22.4969 C.2     1  UNL1        0.0040
      9 C          -4.5250  -18.4197   22.0376 C.2     1  UNL1        0.0525
     10 C          -5.7422  -17.7287   22.5771 C.2     1  UNL1        0.1940
     11 O          -5.5940  -16.6194   23.5758 O.2     1  UNL1       -0.2868
     12 C          -7.1075  -18.1469   22.1178 C.2     1  UNL1        0.0342
     13 C          -8.3247  -17.4559   22.6573 C.3     1  UNL1        0.0358
     14 O          -9.3948  -18.8022   19.7161 O.3     1  UNL1       -0.4689
     15 C         -12.5650  -17.7587   21.8632 C.ar    1  UNL1        0.1416
     16 C         -12.9373  -16.4620   21.2074 C.ar    1  UNL1        0.0371
     17 C         -12.1287  -15.9454   20.0544 C.ar    1  UNL1        0.0062
     18 C         -10.9478  -16.7255   19.5573 C.ar    1  UNL1        0.0371
     19 C         -10.5756  -18.0221   20.2132 C.ar    1  UNL1        0.1422
     20 C         -11.3842  -18.5387   21.3661 C.ar    1  UNL1        0.0738
     21 O         -13.3737  -18.2753   23.0161 O.3     1  UNL1       -0.4754
     22 C         -12.7232  -18.4943   24.3500 C.3     1  UNL1        0.2054
     23 C         -11.2275  -18.5267   24.4587 C.3     1  UNL1        0.0473
     24 C          -9.5291  -20.4692   24.1554 C.3     1  UNL1        0.0001
     25 C         -10.5408  -19.7475   24.9954 C.3     1  UNL1        0.0038
@<TRIPOS>BOND
     1    24    25    1
     2    25    23    1
     3    23    22    1
     4    22    21    1
     5    21    15    1
     6    15    16   ar
     7    16    17   ar
     8    17    18   ar
     9    18    19   ar
    10    19    14    1
    11    14     1    1
    12     1     2    1
    13     2     3    1
    14     3     4    2
    15     4     5    1
    16     5     6    1
    17     6     7    2
    18     7     8    1
    19     8     9    2
    20     9    10    1
    21    10    11    2
    22    10    12    1
    23    12    13    1
    24    19    20   ar
    25    20    15   ar
    26    12     2    2
    27     9     4    1
@<TRIPOS>MOLECULE
*****
 25 27 0 0 0
SMALL
GASTEIGER

@<TRIPOS>ATOM
      1 C          -8.6083  -19.7374   20.5748 C.3     1  UNL1        0.2506
      2 C          -7.1700  -19.5251   20.9442 C.2     1  UNL1        0.1013
      3 N          -6.7948  -18.4329   21.9015 N.2     1  UNL1       -0.2501
      4 C          -5.3566  -18.2207   22.2709 C.2     1  UNL1        0.0661
      5 C          -4.9814  -17.1285   23.2281 C.3     1  UNL1        0.0718
      6 C          -3.5432  -16.9163   23.5975 C.2     1  UNL1       -0.0198
      7 C          -2.4801  -17.7963   23.0096 C.2     1  UNL1       -0.0040
      8 C          -2.8553  -18.8885   22.0524 C.2     1  UNL1        0.0040
      9 C          -4.2935  -19.1007   21.6830 C.2     1  UNL1        0.0525
     10 C          -4.6688  -20.1929   20.7257 C.2     1  UNL1        0.1940
     11 O          -3.6057  -21.0729   20.1378 O.2     1  UNL1       -0.2868
     12 C          -6.1070  -20.4051   20.3564 C.2     1  UNL1        0.0342
     13 C          -6.4822  -21.4973   19.3991 C.3     1  UNL1        0.0358
     14 O          -9.3237  -18.7233   19.7323 O.3     1  UNL1       -0.4689
     15 C         -12.4309  -17.8129   22.0272 C.ar    1  UNL1        0.1416
     16 C         -12.8912  -16.5364   21.3878 C.ar    1  UNL1        0.0371
     17 C         -12.1623  -15.9889   20.1966 C.ar    1  UNL1        0.0062
     18 C         -10.9731  -16.7179   19.6448 C.ar    1  UNL1        0.0371
     19 C         -10.5129  -17.9944   20.2841 C.ar    1  UNL1        0.1422
     20 C         -11.2417  -18.5418   21.4754 C.ar    1  UNL1        0.0738
     21 O         -13.1597  -18.3604   23.2184 O.3     1  UNL1       -0.4754
     22 C         -12.4461  -18.5141   24.5289 C.3     1  UNL1        0.2054
     23 C         -10.9488  -18.5972   24.5622 C.3     1  UNL1        0.0473
     24 C          -9.3352  -20.5509   23.9881 C.3     1  UNL1        0.0001
     25 C         -10.2773  -19.8827   24.9452 C.3     1  UNL1        0.0038
@<TRIPOS>BOND
     1    24    25    1
     2    25    23    1
     3    23    22    1
     4    22    21    1
     5    21    15    1
     6    15    16   ar
     7    16    17   ar
     8    17    18   ar
     9    18    19   ar
    10    19    14    1
    11    14     1    1
    12     1     2    1
    13     2     3    1
    14     3     4    2
    15     4     5    1
    16     5     6    1
    17     6     7    2
    18     7     8    1
    19     8     9    2
    20     9    10    1
    21    10    11    2
    22    10    12    1
    23    12    13    1
    24    19    20   ar
    25    20    15   ar
    26    12     2    2
    27     9     4    1
