@<TRIPOS>MOLECULE
*****
 12 13 0 0 0
SMALL
GASTEIGER

@<TRIPOS>ATOM
      1 C         -10.2854  -19.8980   24.4979 C.3     1  UNL1        0.0899
      2 N         -11.3477  -19.0729   23.8340 N.3     1  UNL1       -0.2691
      3 C         -12.6058  -18.5712   24.4787 C.3     1  UNL1        0.0724
      4 C         -13.3741  -17.7928   23.4521 C.3     1  UNL1        0.0191
      5 C         -12.5908  -17.8134   22.1730 C.3     1  UNL1        0.0220
      6 C         -11.3384  -18.6045   22.4091 C.3     1  UNL1        0.0817
      7 C         -10.2652  -18.8791   21.3977 C.ar    1  UNL1        0.0114
      8 C         -10.5755  -19.6943   20.1774 C.ar    1  UNL1        0.0002
      9 C          -9.5023  -19.9688   19.1661 C.ar    1  UNL1        0.0204
     10 C          -8.1188  -19.4281   19.3750 C.ar    1  UNL1        0.0989
     11 N          -7.8085  -18.6129   20.5953 N.ar    1  UNL1       -0.2426
     12 C          -8.8817  -18.3384   21.6066 C.ar    1  UNL1        0.0959
@<TRIPOS>BOND
     1     1     2    1
     2     2     3    1
     3     3     4    1
     4     4     5    1
     5     5     6    1
     6     6     7    1
     7     7     8   ar
     8     8     9   ar
     9     9    10   ar
    10    10    11   ar
    11    11    12   ar
    12     6     2    1
    13    12     7   ar
@<TRIPOS>MOLECULE
*****
 12 13 0 0 0
SMALL
GASTEIGER

@<TRIPOS>ATOM
      1 C         -10.3352  -19.2087   24.9673 C.3     1  UNL1        0.0899
      2 N         -11.0154  -18.2192   24.0683 N.3     1  UNL1       -0.2691
      3 C         -12.4306  -18.3011   23.5779 C.3     1  UNL1        0.0724
      4 C         -12.6898  -17.1066   22.7083 C.3     1  UNL1        0.0191
      5 C         -11.4348  -16.2865   22.6614 C.3     1  UNL1        0.0220
      6 C         -10.4000  -16.9741   23.5018 C.3     1  UNL1        0.0817
      7 C          -8.9961  -16.4998   23.7350 C.ar    1  UNL1        0.0114
      8 C          -8.6810  -15.6469   24.9279 C.ar    1  UNL1        0.0002
      9 C          -7.2771  -15.1726   25.1610 C.ar    1  UNL1        0.0204
     10 C          -6.1885  -15.5513   24.2011 C.ar    1  UNL1        0.0989
     11 N          -6.5036  -16.4042   23.0081 N.ar    1  UNL1       -0.2426
     12 C          -7.9074  -16.8784   22.7750 C.ar    1  UNL1        0.0959
@<TRIPOS>BOND
     1     1     2    1
     2     2     3    1
     3     3     4    1
     4     4     5    1
     5     5     6    1
     6     6     7    1
     7     7     8   ar
     8     8     9   ar
     9     9    10   ar
    10    10    11   ar
    11    11    12   ar
    12     6     2    1
    13    12     7   ar
@<TRIPOS>MOLECULE
*****
 12 13 0 0 0
SMALL
GASTEIGER

@<TRIPOS>ATOM
      1 C         -10.8030  -15.8987   20.9395 C.3     1  UNL1        0.0899
      2 N         -11.2435  -16.8184   22.0396 N.3     1  UNL1       -0.2691
      3 C         -12.5654  -17.5222   22.1239 C.3     1  UNL1        0.0724
      4 C         -12.5783  -18.3346   23.3849 C.3     1  UNL1        0.0191
      5 C         -11.2644  -18.1328   24.0798 C.3     1  UNL1        0.0220
      6 C         -10.4394  -17.1957   23.2483 C.3     1  UNL1        0.0817
      7 C          -9.0537  -16.7196   23.5693 C.ar    1  UNL1        0.0114
      8 C          -8.8319  -15.7710   24.7099 C.ar    1  UNL1        0.0002
      9 C          -7.4462  -15.2949   25.0309 C.ar    1  UNL1        0.0204
     10 C          -6.2822  -15.7674   24.2112 C.ar    1  UNL1        0.0989
     11 N          -6.5039  -16.7159   23.0706 N.ar    1  UNL1       -0.2426
     12 C          -7.8896  -17.1920   22.7496 C.ar    1  UNL1        0.0959
@<TRIPOS>BOND
     1     1     2    1
     2     2     3    1
     3     3     4    1
     4     4     5    1
     5     5     6    1
     6     6     7    1
     7     7     8   ar
     8     8     9   ar
     9     9    10   ar
    10    10    11   ar
    11    11    12   ar
    12     6     2    1
    13    12     7   ar
@<TRIPOS>MOLECULE
*****
 12 13 0 0 0
SMALL
GASTEIGER

@<TRIPOS>ATOM
      1 C          -6.7009  -15.8302   23.5183 C.3     1  UNL1        0.0899
      2 N          -7.0636  -15.8355   24.9738 N.3     1  UNL1       -0.2691
      3 C          -6.2430  -15.2583   26.0889 C.3     1  UNL1        0.0724
      4 C          -6.9827  -15.4849   27.3740 C.3     1  UNL1        0.0191
      5 C          -8.2604  -16.2021   27.0531 C.3     1  UNL1        0.0220
      6 C          -8.3104  -16.4188   25.5697 C.3     1  UNL1        0.0817
      7 C          -9.4136  -17.0993   24.8147 C.ar    1  UNL1        0.0114
      8 C          -9.8453  -18.4825   25.2022 C.ar    1  UNL1        0.0002
      9 C         -10.9485  -19.1630   24.4473 C.ar    1  UNL1        0.0204
     10 C         -11.6199  -18.4602   23.3048 C.ar    1  UNL1        0.0989
     11 N         -11.1882  -17.0769   22.9173 N.ar    1  UNL1       -0.2426
     12 C         -10.0851  -16.3965   23.6723 C.ar    1  UNL1        0.0959
@<TRIPOS>BOND
     1     1     2    1
     2     2     3    1
     3     3     4    1
     4     4     5    1
     5     5     6    1
     6     6     7    1
     7     7     8   ar
     8     8     9   ar
     9     9    10   ar
    10    10    11   ar
    11    11    12   ar
    12     6     2    1
    13    12     7   ar
@<TRIPOS>MOLECULE
*****
 12 13 0 0 0
SMALL
GASTEIGER

@<TRIPOS>ATOM
      1 C          -7.5542  -17.9456   22.0024 C.3     1  UNL1        0.0899
      2 N          -8.2224  -18.6788   20.8774 N.3     1  UNL1       -0.2691
      3 C          -7.5302  -19.4582   19.7988 C.3     1  UNL1        0.0724
      4 C          -8.5801  -20.0226   18.8881 C.3     1  UNL1        0.0191
      5 C          -9.9212  -19.5920   19.4040 C.3     1  UNL1        0.0220
      6 C          -9.7001  -18.7615   20.6334 C.3     1  UNL1        0.0817
      7 C         -10.7692  -18.1254   21.4716 C.ar    1  UNL1        0.0114
      8 C         -11.4212  -18.9056   22.5743 C.ar    1  UNL1        0.0002
      9 C         -12.4902  -18.2695   23.4125 C.ar    1  UNL1        0.0204
     10 C         -12.9071  -16.8531   23.1480 C.ar    1  UNL1        0.0989
     11 N         -12.2550  -16.0728   22.0453 N.ar    1  UNL1       -0.2426
     12 C         -11.1860  -16.7089   21.2072 C.ar    1  UNL1        0.0959
@<TRIPOS>BOND
     1     1     2    1
     2     2     3    1
     3     3     4    1
     4     4     5    1
     5     5     6    1
     6     6     7    1
     7     7     8   ar
     8     8     9   ar
     9     9    10   ar
    10    10    11   ar
    11    11    12   ar
    12     6     2    1
    13    12     7   ar
@<TRIPOS>MOLECULE
*****
 12 13 0 0 0
SMALL
GASTEIGER

@<TRIPOS>ATOM
      1 C         -10.1073  -19.2241   25.0925 C.3     1  UNL1        0.0899
      2 N          -9.5403  -17.8437   25.2445 N.3     1  UNL1       -0.2691
      3 C          -8.8232  -17.3130   26.4503 C.3     1  UNL1        0.0724
      4 C          -8.4305  -15.8930   26.1685 C.3     1  UNL1        0.0191
      5 C          -8.9050  -15.5461   24.7884 C.3     1  UNL1        0.0220
      6 C          -9.5909  -16.7518   24.2174 C.3     1  UNL1        0.0817
      7 C         -10.2173  -16.8484   22.8578 C.ar    1  UNL1        0.0114
      8 C         -11.5977  -16.3083   22.6280 C.ar    1  UNL1        0.0002
      9 C         -12.2241  -16.4049   21.2685 C.ar    1  UNL1        0.0204
     10 C         -11.4701  -17.0417   20.1388 C.ar    1  UNL1        0.0989
     11 N         -10.0897  -17.5817   20.3687 N.ar    1  UNL1       -0.2426
     12 C          -9.4634  -17.4851   21.7282 C.ar    1  UNL1        0.0959
@<TRIPOS>BOND
     1     1     2    1
     2     2     3    1
     3     3     4    1
     4     4     5    1
     5     5     6    1
     6     6     7    1
     7     7     8   ar
     8     8     9   ar
     9     9    10   ar
    10    10    11   ar
    11    11    12   ar
    12     6     2    1
    13    12     7   ar
@<TRIPOS>MOLECULE
*****
 12 13 0 0 0
SMALL
GASTEIGER

@<TRIPOS>ATOM
      1 C          -4.8140  -17.5724   23.0768 C.3     1  UNL1        0.0899
      2 N          -5.3448  -18.6196   22.1432 N.3     1  UNL1       -0.2691
      3 C          -6.6760  -19.3027   22.2498 C.3     1  UNL1        0.0724
      4 C          -6.7917  -20.2728   21.1116 C.3     1  UNL1        0.0191
      5 C          -5.5320  -20.1893   20.3015 C.3     1  UNL1        0.0220
      6 C          -4.6378  -19.1675   20.9391 C.3     1  UNL1        0.0817
      7 C          -3.2757  -18.7644   20.4571 C.ar    1  UNL1        0.0114
      8 C          -3.1177  -18.1093   19.1170 C.ar    1  UNL1        0.0002
      9 C          -1.7557  -17.7063   18.6351 C.ar    1  UNL1        0.0204
     10 C          -0.5515  -17.9584   19.4933 C.ar    1  UNL1        0.0989
     11 N          -0.7094  -18.6135   20.8334 N.ar    1  UNL1       -0.2426
     12 C          -2.0715  -19.0165   21.3153 C.ar    1  UNL1        0.0959
@<TRIPOS>BOND
     1     1     2    1
     2     2     3    1
     3     3     4    1
     4     4     5    1
     5     5     6    1
     6     6     7    1
     7     7     8   ar
     8     8     9   ar
     9     9    10   ar
    10    10    11   ar
    11    11    12   ar
    12     6     2    1
    13    12     7   ar
@<TRIPOS>MOLECULE
*****
 12 13 0 0 0
SMALL
GASTEIGER

@<TRIPOS>ATOM
      1 C           4.2564  -10.6574   26.7628 C.3     1  UNL1        0.0899
      2 N           5.1618  -11.5151   27.5963 N.3     1  UNL1       -0.2691
      3 C           6.6335  -11.3075   27.7980 C.3     1  UNL1        0.0724
      4 C           7.1357  -12.3951   28.7008 C.3     1  UNL1        0.0191
      5 C           5.9742  -13.2749   29.0570 C.3     1  UNL1        0.0220
      6 C           4.7542  -12.7310   28.3744 C.3     1  UNL1        0.0817
      7 C           3.3698  -13.3027   28.4557 C.ar    1  UNL1        0.0114
      8 C           2.3662  -12.7063   29.3974 C.ar    1  UNL1        0.0002
      9 C           0.9818  -13.2780   29.4787 C.ar    1  UNL1        0.0204
     10 C           0.6011  -14.4462   28.6182 C.ar    1  UNL1        0.0989
     11 N           1.6047  -15.0426   27.6764 N.ar    1  UNL1       -0.2426
     12 C           2.9891  -14.4709   27.5952 C.ar    1  UNL1        0.0959
@<TRIPOS>BOND
     1     1     2    1
     2     2     3    1
     3     3     4    1
     4     4     5    1
     5     5     6    1
     6     6     7    1
     7     7     8   ar
     8     8     9   ar
     9     9    10   ar
    10    10    11   ar
    11    11    12   ar
    12     6     2    1
    13    12     7   ar
@<TRIPOS>MOLECULE
*****
 12 13 0 0 0
SMALL
GASTEIGER

@<TRIPOS>ATOM
      1 C         -11.4251  -16.0916   20.8654 C.3     1  UNL1        0.0899
      2 N         -10.5738  -17.3189   20.7272 N.3     1  UNL1       -0.2691
      3 C         -10.7258  -18.3842   19.6823 C.3     1  UNL1        0.0724
      4 C          -9.6669  -19.4201   19.9190 C.3     1  UNL1        0.0191
      5 C          -8.8606  -18.9949   21.1102 C.3     1  UNL1        0.0220
      6 C          -9.4211  -17.6962   21.6098 C.3     1  UNL1        0.0817
      7 C          -8.9173  -16.9126   22.7854 C.ar    1  UNL1        0.0114
      8 C          -9.3564  -17.2761   24.1728 C.ar    1  UNL1        0.0002
      9 C          -8.8526  -16.4925   25.3484 C.ar    1  UNL1        0.0204
     10 C          -7.9096  -15.3453   25.1366 C.ar    1  UNL1        0.0989
     11 N          -7.4705  -14.9818   23.7492 N.ar    1  UNL1       -0.2426
     12 C          -7.9743  -15.7654   22.5736 C.ar    1  UNL1        0.0959
@<TRIPOS>BOND
     1     1     2    1
     2     2     3    1
     3     3     4    1
     4     4     5    1
     5     5     6    1
     6     6     7    1
     7     7     8   ar
     8     8     9   ar
     9     9    10   ar
    10    10    11   ar
    11    11    12   ar
    12     6     2    1
    13    12     7   ar
