@<TRIPOS>MOLECULE
*****
 30 32 0 0 0
SMALL
GASTEIGER

@<TRIPOS>ATOM
      1 C          -9.0722  -18.9942   20.6887 C.ar    1  UNL1        0.1598
      2 C         -10.0996  -19.1830   19.6122 C.ar    1  UNL1        0.0397
      3 C          -9.8854  -20.2133   18.5434 C.ar    1  UNL1        0.0146
      4 C          -8.6437  -21.0548   18.5509 C.ar    1  UNL1        0.0591
      5 CL         -8.4295  -22.0851   17.4820 Cl      1  UNL1       -0.0822
      6 C          -7.6163  -20.8661   19.6273 C.ar    1  UNL1        0.0303
      7 C          -7.8305  -19.8358   20.6963 C.ar    1  UNL1        0.1000
      8 N          -6.8031  -19.6470   21.7727 N.pl3   1  UNL1       -0.2120
      9 H          -7.0524  -19.7665   22.7176 H       1  UNL1        0.1738
     10 S          -5.3957  -19.2762   21.4095 S.O2    1  UNL1        0.0737
     11 O          -4.8906  -20.0135   22.6142 O.2     1  UNL1       -0.1499
     12 O          -5.9009  -18.5390   20.2048 O.2     1  UNL1       -0.1499
     13 C          -3.9884  -18.9054   21.0464 C.ar    1  UNL1        0.1261
     14 C          -2.9175  -18.9074   22.0966 C.ar    1  UNL1        0.0211
     15 C          -1.5101  -18.5366   21.7334 C.ar    1  UNL1        0.0136
     16 C          -1.1737  -18.1638   20.3200 C.ar    1  UNL1        0.0683
     17 CL          0.2336  -17.7930   19.9569 Cl      1  UNL1       -0.0814
     18 C          -2.2447  -18.1618   19.2697 C.ar    1  UNL1        0.0695
     19 CL         -1.9082  -17.7890   17.8563 Cl      1  UNL1       -0.0813
     20 C          -3.6520  -18.5326   19.6328 C.ar    1  UNL1        0.0324
     21 O          -9.2864  -17.9639   21.7576 O.3     1  UNL1       -0.4522
     22 C         -11.6262  -16.8405   21.8734 C.ar    1  UNL1        0.0485
     23 C         -12.9706  -16.7035   22.5243 C.ar    1  UNL1        0.0042
     24 C         -13.3196  -17.5527   23.7104 C.ar    1  UNL1        0.0002
     25 C         -12.3243  -18.5390   24.2456 C.ar    1  UNL1        0.0031
     26 C         -10.9799  -18.6761   23.5947 C.ar    1  UNL1        0.0375
     27 C         -10.6309  -17.8268   22.4086 C.ar    1  UNL1        0.1464
     28 O         -12.2139  -15.9141   19.5183 O.co2   1  UNL1       -0.5445
     29 C         -11.2771  -15.9912   20.6872 C.2     1  UNL1        0.0758
     30 O          -9.9913  -15.2191   20.6700 O.co2   1  UNL1       -0.5445
@<TRIPOS>UNITY_ATOM_ATTR
28 1
charge -1
@<TRIPOS>BOND
     1    28    29   ar
     2    29    30   ar
     3    29    22    1
     4    22    23   ar
     5    23    24   ar
     6    24    25   ar
     7    25    26   ar
     8    26    27   ar
     9    27    21    1
    10    21     1    1
    11     1     2   ar
    12     2     3   ar
    13     3     4   ar
    14     4     5    1
    15     4     6   ar
    16     6     7   ar
    17     7     8    1
    18     8    10    1
    19    10    11    2
    20    10    12    2
    21    10    13    1
    22    13    14   ar
    23    14    15   ar
    24    15    16   ar
    25    16    17    1
    26    16    18   ar
    27    18    19    1
    28    18    20   ar
    29    27    22   ar
    30     7     1   ar
    31    20    13   ar
    32     8     9    1
@<TRIPOS>MOLECULE
*****
 30 32 0 0 0
SMALL
GASTEIGER

@<TRIPOS>ATOM
      1 C          -9.4278  -18.8430   20.7876 C.ar    1  UNL1        0.1598
      2 C         -10.4537  -18.9531   19.6988 C.ar    1  UNL1        0.0397
      3 C         -10.2095  -19.8569   18.5269 C.ar    1  UNL1        0.0146
      4 C          -8.9395  -20.6508   18.4438 C.ar    1  UNL1        0.0591
      5 CL         -8.6953  -21.5546   17.2719 Cl      1  UNL1       -0.0822
      6 C          -7.9136  -20.5408   19.5326 C.ar    1  UNL1        0.0303
      7 C          -8.1578  -19.6369   20.7046 C.ar    1  UNL1        0.1000
      8 N          -7.1320  -19.5269   21.7934 N.pl3   1  UNL1       -0.2120
      9 H          -7.3937  -19.6662   22.7321 H       1  UNL1        0.1738
     10 S          -5.7074  -19.2046   21.4518 S.O2    1  UNL1        0.0737
     11 O          -6.1756  -18.3138   20.3395 O.2     1  UNL1       -0.1499
     12 O          -5.2392  -20.0953   22.5642 O.2     1  UNL1       -0.1499
     13 C          -4.2828  -18.8822   21.1103 C.ar    1  UNL1        0.1261
     14 C          -3.2295  -18.9163   22.1777 C.ar    1  UNL1        0.0211
     15 C          -1.8049  -18.5940   21.8362 C.ar    1  UNL1        0.0136
     16 C          -1.4336  -18.2376   20.4273 C.ar    1  UNL1        0.0683
     17 CL         -0.0090  -17.9153   20.0858 Cl      1  UNL1       -0.0814
     18 C          -2.4869  -18.2035   19.3598 C.ar    1  UNL1        0.0695
     19 CL         -2.1156  -17.8471   17.9509 Cl      1  UNL1       -0.0813
     20 C          -3.9115  -18.5258   19.7013 C.ar    1  UNL1        0.0324
     21 O          -9.6720  -17.9392   21.9595 O.3     1  UNL1       -0.4522
     22 C         -11.1275  -18.6645   23.9858 C.ar    1  UNL1        0.0485
     23 C         -12.4511  -18.6916   24.6909 C.ar    1  UNL1        0.0042
     24 C         -13.6429  -18.0207   24.0749 C.ar    1  UNL1        0.0002
     25 C         -13.5111  -17.3226   22.7538 C.ar    1  UNL1        0.0031
     26 C         -12.1875  -17.2955   22.0488 C.ar    1  UNL1        0.0375
     27 C         -10.9957  -17.9664   22.6647 C.ar    1  UNL1        0.1464
     28 O          -9.3625  -18.8146   25.8863 O.co2   1  UNL1       -0.5445
     29 C          -9.9357  -19.3354   24.6017 C.2     1  UNL1        0.0758
     30 O          -9.3170  -20.5271   23.9331 O.co2   1  UNL1       -0.5445
@<TRIPOS>UNITY_ATOM_ATTR
28 1
charge -1
@<TRIPOS>BOND
     1    28    29   ar
     2    29    30   ar
     3    29    22    1
     4    22    23   ar
     5    23    24   ar
     6    24    25   ar
     7    25    26   ar
     8    26    27   ar
     9    27    21    1
    10    21     1    1
    11     1     2   ar
    12     2     3   ar
    13     3     4   ar
    14     4     5    1
    15     4     6   ar
    16     6     7   ar
    17     7     8    1
    18     8    10    1
    19    10    11    2
    20    10    12    2
    21    10    13    1
    22    13    14   ar
    23    14    15   ar
    24    15    16   ar
    25    16    17    1
    26    16    18   ar
    27    18    19    1
    28    18    20   ar
    29    27    22   ar
    30     7     1   ar
    31    20    13   ar
    32     8     9    1
@<TRIPOS>MOLECULE
*****
 30 32 0 0 0
SMALL
GASTEIGER

@<TRIPOS>ATOM
      1 C          -9.5172  -17.4553   22.9466 C.ar    1  UNL1        0.1598
      2 C         -10.4041  -16.2821   23.2419 C.ar    1  UNL1        0.0397
      3 C         -11.4765  -15.8890   22.2696 C.ar    1  UNL1        0.0146
      4 C         -11.6621  -16.6691   21.0019 C.ar    1  UNL1        0.0591
      5 CL        -12.7344  -16.2760   20.0296 Cl      1  UNL1       -0.0822
      6 C         -10.7753  -17.8422   20.7065 C.ar    1  UNL1        0.0303
      7 C          -9.7028  -18.2354   21.6789 C.ar    1  UNL1        0.1000
      8 N          -8.8161  -19.4085   21.3835 N.pl3   1  UNL1       -0.2120
      9 H          -9.2123  -20.2893   21.1925 H       1  UNL1        0.1738
     10 S          -7.3256  -19.2397   21.3790 S.O2    1  UNL1        0.0737
     11 O          -7.4595  -18.0823   20.4344 O.2     1  UNL1       -0.1499
     12 O          -7.1917  -20.3972   22.3237 O.2     1  UNL1       -0.1499
     13 C          -5.8351  -19.0709   21.3746 C.ar    1  UNL1        0.1261
     14 C          -5.0946  -18.9110   22.6692 C.ar    1  UNL1        0.0211
     15 C          -3.6041  -18.7422   22.6647 C.ar    1  UNL1        0.0136
     16 C          -2.8542  -18.7333   21.3657 C.ar    1  UNL1        0.0683
     17 CL         -1.3637  -18.5645   21.3612 Cl      1  UNL1       -0.0814
     18 C          -3.5947  -18.8933   20.0710 C.ar    1  UNL1        0.0695
     19 CL         -2.8448  -18.8844   18.7720 Cl      1  UNL1       -0.0813
     20 C          -5.0852  -19.0621   20.0755 C.ar    1  UNL1        0.0324
     21 O          -8.4449  -17.8484   23.9189 O.3     1  UNL1       -0.4522
     22 C          -7.1642  -15.8350   24.9466 C.ar    1  UNL1        0.0485
     23 C          -6.8567  -14.9537   26.1208 C.ar    1  UNL1        0.0042
     24 C          -7.5224  -15.2044   27.4414 C.ar    1  UNL1        0.0002
     25 C          -8.4956  -16.3364   27.5879 C.ar    1  UNL1        0.0031
     26 C          -8.8031  -17.2177   26.4137 C.ar    1  UNL1        0.0375
     27 C          -8.1373  -16.9670   25.0931 C.ar    1  UNL1        0.1464
     28 O          -5.0070  -15.6893   23.5061 O.co2   1  UNL1       -0.5445
     29 C          -6.4984  -15.5844   23.6260 C.2     1  UNL1        0.0758
     30 O          -7.3242  -15.2289   22.4254 O.co2   1  UNL1       -0.5445
@<TRIPOS>UNITY_ATOM_ATTR
28 1
charge -1
@<TRIPOS>BOND
     1    28    29   ar
     2    29    30   ar
     3    29    22    1
     4    22    23   ar
     5    23    24   ar
     6    24    25   ar
     7    25    26   ar
     8    26    27   ar
     9    27    21    1
    10    21     1    1
    11     1     2   ar
    12     2     3   ar
    13     3     4   ar
    14     4     5    1
    15     4     6   ar
    16     6     7   ar
    17     7     8    1
    18     8    10    1
    19    10    11    2
    20    10    12    2
    21    10    13    1
    22    13    14   ar
    23    14    15   ar
    24    15    16   ar
    25    16    17    1
    26    16    18   ar
    27    18    19    1
    28    18    20   ar
    29    27    22   ar
    30     7     1   ar
    31    20    13   ar
    32     8     9    1
@<TRIPOS>MOLECULE
*****
 30 32 0 0 0
SMALL
GASTEIGER

@<TRIPOS>ATOM
      1 C          -9.0492  -19.0989   19.8686 C.ar    1  UNL1        0.1598
      2 C          -8.6787  -20.4473   19.3258 C.ar    1  UNL1        0.0397
      3 C          -7.2828  -20.9680   19.4995 C.ar    1  UNL1        0.0146
      4 C          -6.2573  -20.1404   20.2160 C.ar    1  UNL1        0.0591
      5 CL         -4.8614  -20.6611   20.3896 Cl      1  UNL1       -0.0822
      6 C          -6.6277  -18.7920   20.7588 C.ar    1  UNL1        0.0303
      7 C          -8.0237  -18.2713   20.5851 C.ar    1  UNL1        0.1000
      8 N          -8.3941  -16.9229   21.1279 N.pl3   1  UNL1       -0.2120
      9 H          -8.8421  -16.2651   20.5484 H       1  UNL1        0.1738
     10 S          -8.0820  -16.5768   22.5537 S.O2    1  UNL1        0.0737
     11 O          -7.5081  -15.2640   22.1093 O.2     1  UNL1       -0.1499
     12 O          -8.6558  -17.8895   22.9980 O.2     1  UNL1       -0.1499
     13 C          -7.7698  -16.2306   23.9794 C.ar    1  UNL1        0.1261
     14 C          -8.8104  -16.4218   25.0427 C.ar    1  UNL1        0.0211
     15 C          -8.4983  -16.0757   26.4684 C.ar    1  UNL1        0.0136
     16 C          -7.1456  -15.5384   26.8309 C.ar    1  UNL1        0.0683
     17 CL         -6.8334  -15.1922   28.2567 Cl      1  UNL1       -0.0814
     18 C          -6.1049  -15.3472   25.7676 C.ar    1  UNL1        0.0695
     19 CL         -4.7522  -14.8098   26.1301 Cl      1  UNL1       -0.0813
     20 C          -6.4170  -15.6933   24.3419 C.ar    1  UNL1        0.0324
     21 O         -10.4451  -18.5782   19.6950 O.3     1  UNL1       -0.4522
     22 C         -11.7858  -16.7758   21.0004 C.ar    1  UNL1        0.0485
     23 C         -12.5896  -16.3700   22.2001 C.ar    1  UNL1        0.0042
     24 C         -12.8565  -17.3609   23.2941 C.ar    1  UNL1        0.0002
     25 C         -12.3197  -18.7576   23.1884 C.ar    1  UNL1        0.0031
     26 C         -11.5159  -19.1633   21.9887 C.ar    1  UNL1        0.0375
     27 C         -11.2490  -18.1724   20.8947 C.ar    1  UNL1        0.1464
     28 O         -10.2050  -15.0631   19.8523 O.co2   1  UNL1       -0.5445
     29 C         -11.5188  -15.7849   19.9064 C.2     1  UNL1        0.0758
     30 O         -12.5657  -15.5157   18.8664 O.co2   1  UNL1       -0.5445
@<TRIPOS>UNITY_ATOM_ATTR
28 1
charge -1
@<TRIPOS>BOND
     1    28    29   ar
     2    29    30   ar
     3    29    22    1
     4    22    23   ar
     5    23    24   ar
     6    24    25   ar
     7    25    26   ar
     8    26    27   ar
     9    27    21    1
    10    21     1    1
    11     1     2   ar
    12     2     3   ar
    13     3     4   ar
    14     4     5    1
    15     4     6   ar
    16     6     7   ar
    17     7     8    1
    18     8    10    1
    19    10    11    2
    20    10    12    2
    21    10    13    1
    22    13    14   ar
    23    14    15   ar
    24    15    16   ar
    25    16    17    1
    26    16    18   ar
    27    18    19    1
    28    18    20   ar
    29    27    22   ar
    30     7     1   ar
    31    20    13   ar
    32     8     9    1
@<TRIPOS>MOLECULE
*****
 30 32 0 0 0
SMALL
GASTEIGER

@<TRIPOS>ATOM
      1 C          -4.4438  -17.8711   23.6763 C.ar    1  UNL1        0.1598
      2 C          -3.5677  -17.5587   24.8532 C.ar    1  UNL1        0.0397
      3 C          -3.9616  -16.4775   25.8153 C.ar    1  UNL1        0.0146
      4 C          -5.2314  -15.7085   25.6005 C.ar    1  UNL1        0.0591
      5 CL         -5.6253  -14.6272   26.5626 Cl      1  UNL1       -0.0822
      6 C          -6.1075  -16.0208   24.4237 C.ar    1  UNL1        0.0303
      7 C          -5.7136  -17.1022   23.4615 C.ar    1  UNL1        0.1000
      8 N          -6.5897  -17.4145   22.2847 N.pl3   1  UNL1       -0.2120
      9 H          -6.1904  -17.5417   21.3938 H       1  UNL1        0.1738
     10 S          -8.0740  -17.5331   22.4652 S.O2    1  UNL1        0.0737
     11 O          -7.8879  -18.8715   23.1164 O.2     1  UNL1       -0.1499
     12 O          -8.2602  -16.1947   21.8140 O.2     1  UNL1       -0.1499
     13 C          -9.5584  -17.6518   22.6457 C.ar    1  UNL1        0.1261
     14 C         -10.1136  -18.4066   23.8170 C.ar    1  UNL1        0.0211
     15 C         -11.5979  -18.5252   23.9975 C.ar    1  UNL1        0.0136
     16 C         -12.5271  -17.8890   23.0067 C.ar    1  UNL1        0.0683
     17 CL        -14.0115  -18.0076   23.1872 Cl      1  UNL1       -0.0814
     18 C         -11.9720  -17.1342   21.8353 C.ar    1  UNL1        0.0695
     19 CL        -12.9012  -16.4980   20.8444 Cl      1  UNL1       -0.0813
     20 C         -10.4876  -17.0155   21.6548 C.ar    1  UNL1        0.0324
     21 O          -4.0499  -18.9524   22.7142 O.3     1  UNL1       -0.4522
     22 C          -3.7753  -18.9133   20.1309 C.ar    1  UNL1        0.0485
     23 C          -2.9627  -18.5766   18.9160 C.ar    1  UNL1        0.0042
     24 C          -1.6120  -17.9424   19.0691 C.ar    1  UNL1        0.0002
     25 C          -1.0740  -17.6449   20.4373 C.ar    1  UNL1        0.0031
     26 C          -1.8866  -17.9816   21.6523 C.ar    1  UNL1        0.0375
     27 C          -3.2373  -18.6157   21.4991 C.ar    1  UNL1        0.1464
     28 O          -6.3324  -18.6917   19.7281 O.co2   1  UNL1       -0.5445
     29 C          -5.1260  -19.5474   19.9778 C.2     1  UNL1        0.0758
     30 O          -5.2703  -21.0373   20.0742 O.co2   1  UNL1       -0.5445
@<TRIPOS>UNITY_ATOM_ATTR
28 1
charge -1
@<TRIPOS>BOND
     1    28    29   ar
     2    29    30   ar
     3    29    22    1
     4    22    23   ar
     5    23    24   ar
     6    24    25   ar
     7    25    26   ar
     8    26    27   ar
     9    27    21    1
    10    21     1    1
    11     1     2   ar
    12     2     3   ar
    13     3     4   ar
    14     4     5    1
    15     4     6   ar
    16     6     7   ar
    17     7     8    1
    18     8    10    1
    19    10    11    2
    20    10    12    2
    21    10    13    1
    22    13    14   ar
    23    14    15   ar
    24    15    16   ar
    25    16    17    1
    26    16    18   ar
    27    18    19    1
    28    18    20   ar
    29    27    22   ar
    30     7     1   ar
    31    20    13   ar
    32     8     9    1
@<TRIPOS>MOLECULE
*****
 30 32 0 0 0
SMALL
GASTEIGER

@<TRIPOS>ATOM
      1 C          -8.4133  -17.3718   23.3304 C.ar    1  UNL1        0.1598
      2 C          -8.8984  -16.2486   24.1983 C.ar    1  UNL1        0.0397
      3 C          -7.9117  -15.3584   24.8940 C.ar    1  UNL1        0.0146
      4 C          -6.4399  -15.5914   24.7219 C.ar    1  UNL1        0.0591
      5 CL         -5.4532  -14.7012   25.4175 Cl      1  UNL1       -0.0822
      6 C          -5.9549  -16.7145   23.8540 C.ar    1  UNL1        0.0303
      7 C          -6.9416  -17.6048   23.1583 C.ar    1  UNL1        0.1000
      8 N          -6.4565  -18.7279   22.2904 N.pl3   1  UNL1       -0.2120
      9 H          -7.0434  -19.4966   22.1065 H       1  UNL1        0.1738
     10 S          -5.0772  -18.6799   21.7029 S.O2    1  UNL1        0.0737
     11 O          -4.4983  -19.0732   23.0296 O.2     1  UNL1       -0.1499
     12 O          -5.6561  -18.2865   20.3762 O.2     1  UNL1       -0.1499
     13 C          -3.6979  -18.6318   21.1153 C.ar    1  UNL1        0.1261
     14 C          -2.5153  -19.0382   21.9436 C.ar    1  UNL1        0.0211
     15 C          -1.1360  -18.9901   21.3561 C.ar    1  UNL1        0.0136
     16 C          -0.9393  -18.5357   19.9402 C.ar    1  UNL1        0.0683
     17 CL          0.4400  -18.4876   19.3526 Cl      1  UNL1       -0.0814
     18 C          -2.1220  -18.1293   19.1118 C.ar    1  UNL1        0.0695
     19 CL         -1.9253  -17.6748   17.6959 Cl      1  UNL1       -0.0813
     20 C          -3.5013  -18.1773   19.6993 C.ar    1  UNL1        0.0324
     21 O          -9.4000  -18.2619   22.6348 O.3     1  UNL1       -0.4522
     22 C         -11.8205  -17.5155   22.0566 C.ar    1  UNL1        0.0485
     23 C         -13.2764  -17.4416   22.4098 C.ar    1  UNL1        0.0042
     24 C         -13.7678  -18.0401   23.6945 C.ar    1  UNL1        0.0002
     25 C         -12.8033  -18.7125   24.6259 C.ar    1  UNL1        0.0031
     26 C         -11.3474  -18.7865   24.2726 C.ar    1  UNL1        0.0375
     27 C         -10.8560  -18.1880   22.9880 C.ar    1  UNL1        0.1464
     28 O         -10.3472  -15.7834   20.8000 O.co2   1  UNL1       -0.5445
     29 C         -11.3291  -16.9170   20.7720 C.2     1  UNL1        0.0758
     30 O         -11.8195  -17.4521   19.4593 O.co2   1  UNL1       -0.5445
@<TRIPOS>UNITY_ATOM_ATTR
28 1
charge -1
@<TRIPOS>BOND
     1    28    29   ar
     2    29    30   ar
     3    29    22    1
     4    22    23   ar
     5    23    24   ar
     6    24    25   ar
     7    25    26   ar
     8    26    27   ar
     9    27    21    1
    10    21     1    1
    11     1     2   ar
    12     2     3   ar
    13     3     4   ar
    14     4     5    1
    15     4     6   ar
    16     6     7   ar
    17     7     8    1
    18     8    10    1
    19    10    11    2
    20    10    12    2
    21    10    13    1
    22    13    14   ar
    23    14    15   ar
    24    15    16   ar
    25    16    17    1
    26    16    18   ar
    27    18    19    1
    28    18    20   ar
    29    27    22   ar
    30     7     1   ar
    31    20    13   ar
    32     8     9    1
@<TRIPOS>MOLECULE
*****
 30 32 0 0 0
SMALL
GASTEIGER

@<TRIPOS>ATOM
      1 C          -4.9648  -16.5892   23.7807 C.ar    1  UNL1        0.1598
      2 C          -4.2233  -16.8275   25.0627 C.ar    1  UNL1        0.0397
      3 C          -4.7978  -16.3460   26.3619 C.ar    1  UNL1        0.0146
      4 C          -6.1137  -15.6262   26.3792 C.ar    1  UNL1        0.0591
      5 CL         -6.6881  -15.1446   27.6785 Cl      1  UNL1       -0.0822
      6 C          -6.8551  -15.3879   25.0973 C.ar    1  UNL1        0.0303
      7 C          -6.2807  -15.8694   23.7979 C.ar    1  UNL1        0.1000
      8 N          -7.0221  -15.6312   22.5160 N.pl3   1  UNL1       -0.2120
      9 H          -6.5847  -15.1505   21.7764 H       1  UNL1        0.1738
     10 S          -8.4299  -16.1252   22.3608 S.O2    1  UNL1        0.0737
     11 O          -8.6469  -15.1541   21.2383 O.2     1  UNL1       -0.1499
     12 O          -8.2129  -17.0962   23.4833 O.2     1  UNL1       -0.1499
     13 C          -9.8377  -16.6192   22.2056 C.ar    1  UNL1        0.1261
     14 C         -10.5587  -16.4328   20.9036 C.ar    1  UNL1        0.0211
     15 C         -11.9665  -16.9268   20.7484 C.ar    1  UNL1        0.0136
     16 C         -12.6533  -17.6072   21.8953 C.ar    1  UNL1        0.0683
     17 CL        -14.0610  -18.1012   21.7401 Cl      1  UNL1       -0.0814
     18 C         -11.9322  -17.7936   23.1974 C.ar    1  UNL1        0.0695
     19 CL        -12.6190  -18.4740   24.3443 Cl      1  UNL1       -0.0813
     20 C         -10.5245  -17.2996   23.3526 C.ar    1  UNL1        0.0324
     21 O          -4.3903  -17.0708   22.4814 O.3     1  UNL1       -0.4522
     22 C          -4.0076  -19.0518   20.8446 C.ar    1  UNL1        0.0485
     23 C          -4.4455  -20.3676   20.2729 C.ar    1  UNL1        0.0042
     24 C          -5.7038  -21.0183   20.7662 C.ar    1  UNL1        0.0002
     25 C          -6.5243  -20.3531   21.8312 C.ar    1  UNL1        0.0031
     26 C          -6.0864  -19.0373   22.4029 C.ar    1  UNL1        0.0375
     27 C          -4.8281  -18.3867   21.9096 C.ar    1  UNL1        0.1464
     28 O          -2.8266  -17.1738   19.4926 O.co2   1  UNL1       -0.5445
     29 C          -2.7493  -18.4012   20.3513 C.2     1  UNL1        0.0758
     30 O          -1.4138  -18.9780   20.7167 O.co2   1  UNL1       -0.5445
@<TRIPOS>UNITY_ATOM_ATTR
28 1
charge -1
@<TRIPOS>BOND
     1    28    29   ar
     2    29    30   ar
     3    29    22    1
     4    22    23   ar
     5    23    24   ar
     6    24    25   ar
     7    25    26   ar
     8    26    27   ar
     9    27    21    1
    10    21     1    1
    11     1     2   ar
    12     2     3   ar
    13     3     4   ar
    14     4     5    1
    15     4     6   ar
    16     6     7   ar
    17     7     8    1
    18     8    10    1
    19    10    11    2
    20    10    12    2
    21    10    13    1
    22    13    14   ar
    23    14    15   ar
    24    15    16   ar
    25    16    17    1
    26    16    18   ar
    27    18    19    1
    28    18    20   ar
    29    27    22   ar
    30     7     1   ar
    31    20    13   ar
    32     8     9    1
@<TRIPOS>MOLECULE
*****
 30 32 0 0 0
SMALL
GASTEIGER

@<TRIPOS>ATOM
      1 C         -10.2114  -19.1876   22.2246 C.ar    1  UNL1        0.1598
      2 C         -11.2933  -19.3060   21.1923 C.ar    1  UNL1        0.0397
      3 C         -10.9382  -19.5894   19.7629 C.ar    1  UNL1        0.0146
      4 C          -9.5012  -19.7546   19.3656 C.ar    1  UNL1        0.0591
      5 CL         -9.1461  -20.0380   17.9361 Cl      1  UNL1       -0.0822
      6 C          -8.4194  -19.6362   20.3978 C.ar    1  UNL1        0.0303
      7 C          -8.7744  -19.3527   21.8273 C.ar    1  UNL1        0.1000
      8 N          -7.6925  -19.2343   22.8595 N.pl3   1  UNL1       -0.2120
      9 H          -7.9066  -19.3540   23.8130 H       1  UNL1        0.1738
     10 S          -6.2844  -18.9336   22.4391 S.O2    1  UNL1        0.0737
     11 O          -6.5607  -17.4646   22.5645 O.2     1  UNL1       -0.1499
     12 O          -6.0082  -20.4026   22.3136 O.2     1  UNL1       -0.1499
     13 C          -4.8763  -18.6328   22.0186 C.ar    1  UNL1        0.1261
     14 C          -3.9107  -18.0394   23.0011 C.ar    1  UNL1        0.0211
     15 C          -2.5026  -17.7386   22.5807 C.ar    1  UNL1        0.0136
     16 C          -2.0601  -18.0313   21.1777 C.ar    1  UNL1        0.0683
     17 CL         -0.6520  -17.7306   20.7572 Cl      1  UNL1       -0.0814
     18 C          -3.0257  -18.6248   20.1950 C.ar    1  UNL1        0.0695
     19 CL         -2.5832  -18.9175   18.7920 Cl      1  UNL1       -0.0813
     20 C          -4.4338  -18.9255   20.6155 C.ar    1  UNL1        0.0324
     21 O         -10.5665  -18.9041   23.6541 O.3     1  UNL1       -0.4522
     22 C          -9.7788  -16.4320   23.7902 C.ar    1  UNL1        0.0485
     23 C          -9.0826  -15.3295   24.5315 C.ar    1  UNL1        0.0042
     24 C          -8.4778  -15.5963   25.8780 C.ar    1  UNL1        0.0002
     25 C          -8.5693  -16.9657   26.4832 C.ar    1  UNL1        0.0031
     26 C          -9.2655  -18.0683   25.7419 C.ar    1  UNL1        0.0375
     27 C          -9.8702  -17.8014   24.3954 C.ar    1  UNL1        0.1464
     28 O         -11.8716  -16.0420   22.3010 O.co2   1  UNL1       -0.5445
     29 C         -10.3835  -16.1652   22.4437 C.2     1  UNL1        0.0758
     30 O          -9.5002  -16.0216   21.2400 O.co2   1  UNL1       -0.5445
@<TRIPOS>UNITY_ATOM_ATTR
28 1
charge -1
@<TRIPOS>BOND
     1    28    29   ar
     2    29    30   ar
     3    29    22    1
     4    22    23   ar
     5    23    24   ar
     6    24    25   ar
     7    25    26   ar
     8    26    27   ar
     9    27    21    1
    10    21     1    1
    11     1     2   ar
    12     2     3   ar
    13     3     4   ar
    14     4     5    1
    15     4     6   ar
    16     6     7   ar
    17     7     8    1
    18     8    10    1
    19    10    11    2
    20    10    12    2
    21    10    13    1
    22    13    14   ar
    23    14    15   ar
    24    15    16   ar
    25    16    17    1
    26    16    18   ar
    27    18    19    1
    28    18    20   ar
    29    27    22   ar
    30     7     1   ar
    31    20    13   ar
    32     8     9    1
@<TRIPOS>MOLECULE
*****
 30 32 0 0 0
SMALL
GASTEIGER

@<TRIPOS>ATOM
      1 C          -5.2260  -16.0217   23.6861 C.ar    1  UNL1        0.1598
      2 C          -4.4402  -16.2574   24.9420 C.ar    1  UNL1        0.0397
      3 C          -5.0696  -16.0026   26.2795 C.ar    1  UNL1        0.0146
      4 C          -6.4848  -15.5121   26.3612 C.ar    1  UNL1        0.0591
      5 CL         -7.1142  -15.2573   27.6987 Cl      1  UNL1       -0.0822
      6 C          -7.2706  -15.2764   25.1054 C.ar    1  UNL1        0.0303
      7 C          -6.6412  -15.5312   23.7679 C.ar    1  UNL1        0.1000
      8 N          -7.4270  -15.2955   22.5121 N.pl3   1  UNL1       -0.2120
      9 H          -7.0496  -14.7400   21.7922 H       1  UNL1        0.1738
     10 S          -8.7878  -15.9061   22.3532 S.O2    1  UNL1        0.0737
     11 O          -8.4897  -16.8614   23.4706 O.2     1  UNL1       -0.1499
     12 O          -9.0859  -14.9509   21.2357 O.2     1  UNL1       -0.1499
     13 C         -10.1487  -16.5168   22.1942 C.ar    1  UNL1        0.1261
     14 C         -10.8347  -16.4831   20.8608 C.ar    1  UNL1        0.0211
     15 C         -12.1955  -17.0938   20.7018 C.ar    1  UNL1        0.0136
     16 C         -12.8703  -17.7380   21.8763 C.ar    1  UNL1        0.0683
     17 CL        -14.2312  -18.3487   21.7174 Cl      1  UNL1       -0.0814
     18 C         -12.1843  -17.7717   23.2099 C.ar    1  UNL1        0.0695
     19 CL        -12.8591  -18.4160   24.3844 Cl      1  UNL1       -0.0813
     20 C         -10.8235  -17.1611   23.3688 C.ar    1  UNL1        0.0324
     21 O          -4.5966  -16.2765   22.3487 O.3     1  UNL1       -0.4522
     22 C          -4.5686  -18.8080   21.7650 C.ar    1  UNL1        0.0485
     23 C          -3.8063  -20.0773   21.5244 C.ar    1  UNL1        0.0042
     24 C          -2.3098  -20.0843   21.6268 C.ar    1  UNL1        0.0002
     25 C          -1.5756  -18.8221   21.9699 C.ar    1  UNL1        0.0031
     26 C          -2.3379  -17.5528   22.2105 C.ar    1  UNL1        0.0375
     27 C          -3.8344  -17.5458   22.1080 C.ar    1  UNL1        0.1464
     28 O          -6.7418  -17.9565   20.6239 O.co2   1  UNL1       -0.5445
     29 C          -6.0651  -18.8010   21.6626 C.2     1  UNL1        0.0758
     30 O          -6.8848  -19.6385   22.5988 O.co2   1  UNL1       -0.5445
@<TRIPOS>UNITY_ATOM_ATTR
28 1
charge -1
@<TRIPOS>BOND
     1    28    29   ar
     2    29    30   ar
     3    29    22    1
     4    22    23   ar
     5    23    24   ar
     6    24    25   ar
     7    25    26   ar
     8    26    27   ar
     9    27    21    1
    10    21     1    1
    11     1     2   ar
    12     2     3   ar
    13     3     4   ar
    14     4     5    1
    15     4     6   ar
    16     6     7   ar
    17     7     8    1
    18     8    10    1
    19    10    11    2
    20    10    12    2
    21    10    13    1
    22    13    14   ar
    23    14    15   ar
    24    15    16   ar
    25    16    17    1
    26    16    18   ar
    27    18    19    1
    28    18    20   ar
    29    27    22   ar
    30     7     1   ar
    31    20    13   ar
    32     8     9    1
