@<TRIPOS>MOLECULE
*****
 31 34 0 0 0
SMALL
GASTEIGER

@<TRIPOS>ATOM
      1 N          -8.2344  -17.8976   22.9176 N.3     1  UNL1       -0.2641
      2 C          -9.7170  -17.9821   23.1292 C.3     1  UNL1        0.0981
      3 C         -10.2637  -18.6902   24.3332 C.3     1  UNL1        0.0224
      4 C         -11.7463  -18.7747   24.5447 C.3     1  UNL1        0.0065
      5 C         -12.6822  -18.1511   23.5523 C.3     1  UNL1        0.0277
      6 C         -12.1356  -17.4429   22.3483 C.ar    1  UNL1       -0.0073
      7 C         -13.0716  -16.8192   21.3558 C.ar    1  UNL1       -0.0015
      8 C         -12.5249  -16.1110   20.1518 C.ar    1  UNL1        0.0203
      9 C         -11.0423  -16.0265   19.9402 C.ar    1  UNL1        0.0985
     10 N         -10.1064  -16.6502   20.9327 N.ar    1  UNL1       -0.2471
     11 C         -10.6530  -17.3584   22.1367 C.ar    1  UNL1        0.0695
     12 C          -7.5239  -16.5895   23.1018 C.3     1  UNL1        0.0986
     13 C          -5.6076  -15.0545   26.2198 C.3     1  UNL1        0.0275
     14 C          -5.8816  -15.5712   24.8385 C.2     1  UNL1       -0.0314
     15 C          -7.2499  -16.0728   24.4832 C.2     1  UNL1       -0.0159
     16 C          -4.7874  -15.5862   23.8126 C.3     1  UNL1        0.0877
     17 N          -4.6689  -14.4627   22.8260 N.3     1  UNL1       -0.3177
     18 H          -5.4812  -14.4648   22.2091 H       1  UNL1        0.1191
     19 H          -3.8211  -14.5846   22.2721 H       1  UNL1        0.1191
     20 C          -7.4624  -19.1212   22.5219 C.3     1  UNL1        0.0888
     21 C          -6.2229  -18.9886   21.6875 C.3     1  UNL1        0.0748
     22 C          -4.8857  -18.8356   22.3497 C.3     1  UNL1        0.0432
     23 C          -3.6463  -18.7031   21.5153 C.ar    1  UNL1       -0.0234
     24 C          -2.3091  -18.5501   22.1775 C.ar    1  UNL1       -0.0045
     25 C          -1.0697  -18.4176   21.3431 C.ar    1  UNL1       -0.0003
     26 C          -1.1675  -18.4381   19.8464 C.ar    1  UNL1       -0.0003
     27 C          -2.5046  -18.5911   19.1842 C.ar    1  UNL1       -0.0032
     28 C          -3.7440  -18.7236   20.0186 C.ar    1  UNL1       -0.0103
     29 C          -5.0812  -18.8766   19.3564 C.3     1  UNL1        0.0953
     30 N          -6.3206  -19.0091   20.1908 N.3     1  UNL1       -0.2934
     31 H          -6.7535  -19.8969   19.9361 H       1  UNL1        0.1236
@<TRIPOS>BOND
     1    13    14    1
     2    14    15    2
     3    15    12    1
     4    12     1    1
     5     1    20    1
     6    21    20    1
     7    21    22    1
     8    22    23    1
     9    23    24   ar
    10    24    25   ar
    11    25    26   ar
    12    26    27   ar
    13    27    28   ar
    14    28    29    1
    15    29    30    1
    16     2     1    1
    17     2     3    1
    18     3     4    1
    19     4     5    1
    20     5     6    1
    21     6     7   ar
    22     7     8   ar
    23     8     9   ar
    24     9    10   ar
    25    10    11   ar
    26    14    16    1
    27    16    17    1
    28    30    21    1
    29    11     2    1
    30    28    23   ar
    31    11     6   ar
    32    30    31    1
    33    17    18    1
    34    17    19    1
@<TRIPOS>MOLECULE
*****
 31 34 0 0 0
SMALL
GASTEIGER

@<TRIPOS>ATOM
      1 N          -8.2265  -19.4159   21.6136 N.3     1  UNL1       -0.2641
      2 C          -8.7060  -19.0047   22.9741 C.3     1  UNL1        0.0981
      3 C          -9.5144  -19.9574   23.8041 C.3     1  UNL1        0.0224
      4 C          -9.9939  -19.5462   25.1646 C.3     1  UNL1        0.0065
      5 C          -9.6650  -18.1823   25.6952 C.3     1  UNL1        0.0277
      6 C          -8.8566  -17.2296   24.8653 C.ar    1  UNL1       -0.0073
      7 C          -8.5276  -15.8656   25.3959 C.ar    1  UNL1       -0.0015
      8 C          -7.7192  -14.9129   24.5660 C.ar    1  UNL1        0.0203
      9 C          -7.2397  -15.3241   23.2054 C.ar    1  UNL1        0.0985
     10 N          -7.5686  -16.6880   22.6748 N.ar    1  UNL1       -0.2471
     11 C          -8.3771  -17.6408   23.5048 C.ar    1  UNL1        0.0695
     12 C          -9.0421  -19.0846   20.3992 C.3     1  UNL1        0.0986
     13 C         -12.7476  -17.7362   20.8479 C.3     1  UNL1        0.0275
     14 C         -11.2504  -17.7644   20.7610 C.2     1  UNL1       -0.0314
     15 C         -10.5394  -19.0563   20.4861 C.2     1  UNL1       -0.0159
     16 C         -10.4642  -16.5009   20.9490 C.3     1  UNL1        0.0877
     17 N         -10.7156  -15.6322   22.1457 N.3     1  UNL1       -0.3177
     18 H         -11.6561  -15.2414   22.0906 H       1  UNL1        0.1191
     19 H         -10.0331  -14.8744   22.1651 H       1  UNL1        0.1191
     20 C          -6.9314  -20.1583   21.4676 C.3     1  UNL1        0.0888
     21 C          -5.6325  -19.4079   21.4676 C.3     1  UNL1        0.0748
     22 C          -4.7843  -19.3769   20.2309 C.3     1  UNL1        0.0432
     23 C          -3.4854  -18.6264   20.2310 C.ar    1  UNL1       -0.0234
     24 C          -2.6371  -18.5954   18.9943 C.ar    1  UNL1       -0.0045
     25 C          -1.3384  -17.8450   18.9943 C.ar    1  UNL1       -0.0003
     26 C          -0.8878  -17.1257   20.2311 C.ar    1  UNL1       -0.0003
     27 C          -1.7361  -17.1567   21.4678 C.ar    1  UNL1       -0.0032
     28 C          -3.0349  -17.9071   21.4677 C.ar    1  UNL1       -0.0103
     29 C          -3.8832  -17.9382   22.7045 C.3     1  UNL1        0.0953
     30 N          -5.1820  -18.6886   22.7044 N.3     1  UNL1       -0.2934
     31 H          -5.9117  -18.0142   22.9351 H       1  UNL1        0.1236
@<TRIPOS>BOND
     1    13    14    1
     2    14    15    2
     3    15    12    1
     4    12     1    1
     5     1    20    1
     6    21    20    1
     7    21    22    1
     8    22    23    1
     9    23    24   ar
    10    24    25   ar
    11    25    26   ar
    12    26    27   ar
    13    27    28   ar
    14    28    29    1
    15    29    30    1
    16     2     1    1
    17     2     3    1
    18     3     4    1
    19     4     5    1
    20     5     6    1
    21     6     7   ar
    22     7     8   ar
    23     8     9   ar
    24     9    10   ar
    25    10    11   ar
    26    14    16    1
    27    16    17    1
    28    30    21    1
    29    11     2    1
    30    28    23   ar
    31    11     6   ar
    32    30    31    1
    33    17    18    1
    34    17    19    1
@<TRIPOS>MOLECULE
*****
 31 34 0 0 0
SMALL
GASTEIGER

@<TRIPOS>ATOM
      1 N          -5.6038  -19.0519   21.1917 N.3     1  UNL1       -0.2641
      2 C          -5.1619  -18.2799   22.3995 C.3     1  UNL1        0.0981
      3 C          -3.8968  -18.6592   23.1105 C.3     1  UNL1        0.0224
      4 C          -3.4549  -17.8872   24.3182 C.3     1  UNL1        0.0065
      5 C          -4.2781  -16.7359   24.8150 C.3     1  UNL1        0.0277
      6 C          -5.5432  -16.3567   24.1040 C.ar    1  UNL1       -0.0073
      7 C          -6.3666  -15.2054   24.6008 C.ar    1  UNL1       -0.0015
      8 C          -7.6317  -14.8261   23.8899 C.ar    1  UNL1        0.0203
      9 C          -8.0736  -15.5981   22.6821 C.ar    1  UNL1        0.0985
     10 N          -7.2504  -16.7494   22.1853 N.ar    1  UNL1       -0.2471
     11 C          -5.9851  -17.1287   22.8963 C.ar    1  UNL1        0.0695
     12 C          -4.8884  -18.8748   19.8853 C.3     1  UNL1        0.0986
     13 C          -0.9324  -18.5984   19.7322 C.3     1  UNL1        0.0275
     14 C          -2.3765  -18.2119   19.8549 C.2     1  UNL1       -0.0314
     15 C          -3.4442  -19.2613   19.7626 C.2     1  UNL1       -0.0159
     16 C          -2.7529  -16.7759   20.0700 C.3     1  UNL1        0.0877
     17 N          -2.3984  -16.0923   21.3573 N.3     1  UNL1       -0.3177
     18 H          -2.9166  -16.5213   22.1240 H       1  UNL1        0.1191
     19 H          -2.6401  -15.1033   21.2949 H       1  UNL1        0.1191
     20 C          -6.7611  -20.0011   21.2904 C.3     1  UNL1        0.0888
     21 C          -8.1533  -19.4706   21.4649 C.3     1  UNL1        0.0748
     22 C          -8.8478  -19.6078   22.7874 C.3     1  UNL1        0.0432
     23 C         -10.2401  -19.0774   22.9620 C.ar    1  UNL1       -0.0234
     24 C         -10.9346  -19.2145   24.2844 C.ar    1  UNL1       -0.0045
     25 C         -12.3267  -18.6841   24.4589 C.ar    1  UNL1       -0.0003
     26 C         -13.0244  -18.0166   23.3110 C.ar    1  UNL1       -0.0003
     27 C         -12.3299  -17.8794   21.9886 C.ar    1  UNL1       -0.0032
     28 C         -10.9378  -18.4098   21.8141 C.ar    1  UNL1       -0.0103
     29 C         -10.2432  -18.2727   20.4916 C.3     1  UNL1        0.0953
     30 N          -8.8510  -18.8031   20.3171 N.3     1  UNL1       -0.2934
     31 H          -8.2683  -18.0142   20.0369 H       1  UNL1        0.1236
@<TRIPOS>BOND
     1    13    14    1
     2    14    15    2
     3    15    12    1
     4    12     1    1
     5     1    20    1
     6    21    20    1
     7    21    22    1
     8    22    23    1
     9    23    24   ar
    10    24    25   ar
    11    25    26   ar
    12    26    27   ar
    13    27    28   ar
    14    28    29    1
    15    29    30    1
    16     2     1    1
    17     2     3    1
    18     3     4    1
    19     4     5    1
    20     5     6    1
    21     6     7   ar
    22     7     8   ar
    23     8     9   ar
    24     9    10   ar
    25    10    11   ar
    26    14    16    1
    27    16    17    1
    28    30    21    1
    29    11     2    1
    30    28    23   ar
    31    11     6   ar
    32    30    31    1
    33    17    18    1
    34    17    19    1
@<TRIPOS>MOLECULE
*****
 31 34 0 0 0
SMALL
GASTEIGER

@<TRIPOS>ATOM
      1 N          -7.5149  -18.0679   22.1459 N.3     1  UNL1       -0.2641
      2 C          -8.7059  -18.4772   21.3310 C.3     1  UNL1        0.0981
      3 C          -8.5208  -19.3154   20.1010 C.3     1  UNL1        0.0224
      4 C          -9.7118  -19.7247   19.2860 C.3     1  UNL1        0.0065
      5 C         -11.0878  -19.2957   19.7012 C.3     1  UNL1        0.0277
      6 C         -11.2729  -18.4575   20.9312 C.ar    1  UNL1       -0.0073
      7 C         -12.6491  -18.0286   21.3465 C.ar    1  UNL1       -0.0015
      8 C         -12.8342  -17.1904   22.5765 C.ar    1  UNL1        0.0203
      9 C         -11.6432  -16.7811   23.3914 C.ar    1  UNL1        0.0985
     10 N         -10.2671  -17.2100   22.9763 N.ar    1  UNL1       -0.2471
     11 C         -10.0820  -18.0482   21.7462 C.ar    1  UNL1        0.0695
     12 C          -7.3806  -16.6506   22.6184 C.3     1  UNL1        0.0986
     13 C          -5.9135  -15.5098   26.1249 C.3     1  UNL1        0.0275
     14 C          -6.0106  -15.8052   24.6575 C.2     1  UNL1       -0.0314
     15 C          -7.2836  -16.3552   24.0858 C.2     1  UNL1       -0.0159
     16 C          -4.8346  -15.5506   23.7619 C.3     1  UNL1        0.0877
     17 N          -4.8481  -14.3835   22.8198 N.3     1  UNL1       -0.3177
     18 H          -5.5721  -14.5236   22.1152 H       1  UNL1        0.1191
     19 H          -3.9396  -14.3048   22.3628 H       1  UNL1        0.1191
     20 C          -6.4583  -19.0759   22.4884 C.3     1  UNL1        0.0888
     21 C          -5.0304  -18.8264   22.1022 C.3     1  UNL1        0.0748
     22 C          -4.6609  -18.6689   20.6570 C.3     1  UNL1        0.0432
     23 C          -3.2331  -18.4195   20.2707 C.ar    1  UNL1       -0.0234
     24 C          -2.8636  -18.2620   18.8255 C.ar    1  UNL1       -0.0045
     25 C          -1.4359  -18.0126   18.4394 C.ar    1  UNL1       -0.0003
     26 C          -0.3775  -17.9206   19.4984 C.ar    1  UNL1       -0.0003
     27 C          -0.7470  -18.0781   20.9436 C.ar    1  UNL1       -0.0032
     28 C          -2.1748  -18.3275   21.3298 C.ar    1  UNL1       -0.0103
     29 C          -2.5443  -18.4850   22.7750 C.3     1  UNL1        0.0953
     30 N          -3.9721  -18.7344   23.1612 N.3     1  UNL1       -0.2934
     31 H          -4.2453  -17.9753   23.7853 H       1  UNL1        0.1236
@<TRIPOS>BOND
     1    13    14    1
     2    14    15    2
     3    15    12    1
     4    12     1    1
     5     1    20    1
     6    21    20    1
     7    21    22    1
     8    22    23    1
     9    23    24   ar
    10    24    25   ar
    11    25    26   ar
    12    26    27   ar
    13    27    28   ar
    14    28    29    1
    15    29    30    1
    16     2     1    1
    17     2     3    1
    18     3     4    1
    19     4     5    1
    20     5     6    1
    21     6     7   ar
    22     7     8   ar
    23     8     9   ar
    24     9    10   ar
    25    10    11   ar
    26    14    16    1
    27    16    17    1
    28    30    21    1
    29    11     2    1
    30    28    23   ar
    31    11     6   ar
    32    30    31    1
    33    17    18    1
    34    17    19    1
@<TRIPOS>MOLECULE
*****
 31 34 0 0 0
SMALL
GASTEIGER

@<TRIPOS>ATOM
      1 N          -7.8835  -17.3451   23.1226 N.3     1  UNL1       -0.2641
      2 C          -9.1836  -17.7551   22.4967 C.3     1  UNL1        0.0981
      3 C         -10.4807  -17.3989   23.1604 C.3     1  UNL1        0.0224
      4 C         -11.7808  -17.8089   22.5346 C.3     1  UNL1        0.0065
      5 C         -11.7837  -18.5751   21.2450 C.3     1  UNL1        0.0277
      6 C         -10.4866  -18.9312   20.5814 C.ar    1  UNL1       -0.0073
      7 C         -10.4895  -19.6974   19.2918 C.ar    1  UNL1       -0.0015
      8 C          -9.1924  -20.0536   18.6281 C.ar    1  UNL1        0.0203
      9 C          -7.8923  -19.6436   19.2539 C.ar    1  UNL1        0.0985
     10 N          -7.8893  -18.8774   20.5434 N.ar    1  UNL1       -0.2471
     11 C          -9.1865  -18.5212   21.2072 C.ar    1  UNL1        0.0695
     12 C          -7.7372  -15.9770   23.7201 C.3     1  UNL1        0.0986
     13 C          -8.3045  -15.1368   27.5570 C.3     1  UNL1        0.0275
     14 C          -7.6182  -15.4682   26.2651 C.2     1  UNL1       -0.0314
     15 C          -8.4235  -15.6456   25.0121 C.2     1  UNL1       -0.0159
     16 C          -6.1267  -15.6224   26.2262 C.3     1  UNL1        0.0877
     17 N          -5.2712  -14.5095   25.6974 N.3     1  UNL1       -0.3177
     18 H          -5.4557  -14.3822   24.7023 H       1  UNL1        0.1191
     19 H          -4.2876  -14.7425   25.8338 H       1  UNL1        0.1191
     20 C          -6.7297  -18.3031   23.1509 C.3     1  UNL1        0.0888
     21 C          -5.3758  -17.8608   22.6804 C.3     1  UNL1        0.0748
     22 C          -4.6379  -18.6681   21.6539 C.3     1  UNL1        0.0432
     23 C          -3.2840  -18.2257   21.1833 C.ar    1  UNL1       -0.0234
     24 C          -2.5461  -19.0330   20.1568 C.ar    1  UNL1       -0.0045
     25 C          -1.1922  -18.5907   19.6862 C.ar    1  UNL1       -0.0003
     26 C          -0.5763  -17.3411   20.2422 C.ar    1  UNL1       -0.0003
     27 C          -1.3142  -16.5338   21.2687 C.ar    1  UNL1       -0.0032
     28 C          -2.6680  -16.9761   21.7393 C.ar    1  UNL1       -0.0103
     29 C          -3.4060  -16.1689   22.7658 C.3     1  UNL1        0.0953
     30 N          -4.7598  -16.6112   23.2364 N.3     1  UNL1       -0.2934
     31 H          -5.4060  -15.8487   23.0327 H       1  UNL1        0.1236
@<TRIPOS>BOND
     1    13    14    1
     2    14    15    2
     3    15    12    1
     4    12     1    1
     5     1    20    1
     6    21    20    1
     7    21    22    1
     8    22    23    1
     9    23    24   ar
    10    24    25   ar
    11    25    26   ar
    12    26    27   ar
    13    27    28   ar
    14    28    29    1
    15    29    30    1
    16     2     1    1
    17     2     3    1
    18     3     4    1
    19     4     5    1
    20     5     6    1
    21     6     7   ar
    22     7     8   ar
    23     8     9   ar
    24     9    10   ar
    25    10    11   ar
    26    14    16    1
    27    16    17    1
    28    30    21    1
    29    11     2    1
    30    28    23   ar
    31    11     6   ar
    32    30    31    1
    33    17    18    1
    34    17    19    1
@<TRIPOS>MOLECULE
*****
 31 34 0 0 0
SMALL
GASTEIGER

@<TRIPOS>ATOM
      1 N          -5.9521  -18.8204   22.2522 N.3     1  UNL1       -0.2641
      2 C          -4.8734  -19.1299   21.2569 C.3     1  UNL1        0.0981
      3 C          -5.0175  -20.3050   20.3357 C.3     1  UNL1        0.0224
      4 C          -3.9388  -20.6145   19.3404 C.3     1  UNL1        0.0065
      5 C          -2.7160  -19.7490   19.2662 C.3     1  UNL1        0.0277
      6 C          -2.5719  -18.5740   20.1873 C.ar    1  UNL1       -0.0073
      7 C          -1.3490  -17.7084   20.1132 C.ar    1  UNL1       -0.0015
      8 C          -1.2049  -16.5334   21.0343 C.ar    1  UNL1        0.0203
      9 C          -2.2835  -16.2238   22.0296 C.ar    1  UNL1        0.0985
     10 N          -3.5064  -17.0893   22.1038 N.ar    1  UNL1       -0.2471
     11 C          -3.6506  -18.2644   21.1827 C.ar    1  UNL1        0.0695
     12 C          -5.8804  -17.5648   23.0696 C.3     1  UNL1        0.0986
     13 C          -8.4121  -15.0915   24.8649 C.3     1  UNL1        0.0275
     14 C          -7.1587  -15.8513   24.5460 C.2     1  UNL1       -0.0314
     15 C          -7.1338  -16.8050   23.3886 C.2     1  UNL1       -0.0159
     16 C          -5.9303  -15.6574   25.3846 C.3     1  UNL1        0.0877
     17 N          -5.7133  -14.3618   26.1087 N.3     1  UNL1       -0.3177
     18 H          -5.5772  -13.6120   25.4307 H       1  UNL1        0.1191
     19 H          -4.8869  -14.4381   26.7018 H       1  UNL1        0.1191
     20 C          -7.1024  -19.7665   22.4300 C.3     1  UNL1        0.0888
     21 C          -8.5113  -19.2624   22.3251 C.3     1  UNL1        0.0748
     22 C          -9.4196  -19.3211   23.5173 C.3     1  UNL1        0.0432
     23 C         -10.8285  -18.8170   23.4123 C.ar    1  UNL1       -0.0234
     24 C         -11.7369  -18.8757   24.6045 C.ar    1  UNL1       -0.0045
     25 C         -13.1457  -18.3716   24.4995 C.ar    1  UNL1       -0.0003
     26 C         -13.6461  -17.8088   23.2023 C.ar    1  UNL1       -0.0003
     27 C         -12.7378  -17.7500   22.0101 C.ar    1  UNL1       -0.0032
     28 C         -11.3290  -18.2541   22.1151 C.ar    1  UNL1       -0.0103
     29 C         -10.4205  -18.1954   20.9228 C.3     1  UNL1        0.0953
     30 N          -9.0117  -18.6995   21.0279 N.3     1  UNL1       -0.2934
     31 H          -8.4008  -17.9178   20.7909 H       1  UNL1        0.1236
@<TRIPOS>BOND
     1    13    14    1
     2    14    15    2
     3    15    12    1
     4    12     1    1
     5     1    20    1
     6    21    20    1
     7    21    22    1
     8    22    23    1
     9    23    24   ar
    10    24    25   ar
    11    25    26   ar
    12    26    27   ar
    13    27    28   ar
    14    28    29    1
    15    29    30    1
    16     2     1    1
    17     2     3    1
    18     3     4    1
    19     4     5    1
    20     5     6    1
    21     6     7   ar
    22     7     8   ar
    23     8     9   ar
    24     9    10   ar
    25    10    11   ar
    26    14    16    1
    27    16    17    1
    28    30    21    1
    29    11     2    1
    30    28    23   ar
    31    11     6   ar
    32    30    31    1
    33    17    18    1
    34    17    19    1
@<TRIPOS>MOLECULE
*****
 31 34 0 0 0
SMALL
GASTEIGER

@<TRIPOS>ATOM
      1 N          -5.7940  -18.2288   22.4668 N.3     1  UNL1       -0.2641
      2 C          -4.8597  -18.8376   21.4637 C.3     1  UNL1        0.0981
      3 C          -5.2401  -20.1048   20.7570 C.3     1  UNL1        0.0224
      4 C          -4.3058  -20.7137   19.7538 C.3     1  UNL1        0.0065
      5 C          -2.9911  -20.0553   19.4573 C.3     1  UNL1        0.0277
      6 C          -2.6107  -18.7881   20.1639 C.ar    1  UNL1       -0.0073
      7 C          -1.2959  -18.1296   19.8674 C.ar    1  UNL1       -0.0015
      8 C          -0.9155  -16.8624   20.5741 C.ar    1  UNL1        0.0203
      9 C          -1.8498  -16.2536   21.5773 C.ar    1  UNL1        0.0985
     10 N          -3.1645  -16.9120   21.8738 N.ar    1  UNL1       -0.2471
     11 C          -3.5450  -18.1792   21.1671 C.ar    1  UNL1        0.0695
     12 C          -5.5849  -16.8161   22.9257 C.3     1  UNL1        0.0986
     13 C          -6.1105  -15.2701   26.5428 C.3     1  UNL1        0.0275
     14 C          -6.3059  -15.5639   25.0849 C.2     1  UNL1       -0.0314
     15 C          -5.3895  -16.5222   24.3836 C.2     1  UNL1       -0.0159
     16 C          -7.4177  -14.8995   24.3284 C.3     1  UNL1        0.0877
     17 N          -8.8426  -15.2816   24.5998 N.3     1  UNL1       -0.3177
     18 H          -8.9957  -16.2486   24.3139 H       1  UNL1        0.1191
     19 H          -9.4651  -14.6687   24.0733 H       1  UNL1        0.1191
     20 C          -6.9374  -19.0326   23.0112 C.3     1  UNL1        0.0888
     21 C          -8.3392  -18.5089   22.9068 C.3     1  UNL1        0.0748
     22 C          -8.8229  -17.9122   21.6185 C.3     1  UNL1        0.0432
     23 C         -10.2247  -17.3885   21.5141 C.ar    1  UNL1       -0.0234
     24 C         -10.7084  -16.7918   20.2258 C.ar    1  UNL1       -0.0045
     25 C         -12.1102  -16.2681   20.1215 C.ar    1  UNL1       -0.0003
     26 C         -13.0281  -16.3411   21.3056 C.ar    1  UNL1       -0.0003
     27 C         -12.5444  -16.9378   22.5939 C.ar    1  UNL1       -0.0032
     28 C         -11.1427  -17.4615   22.6982 C.ar    1  UNL1       -0.0103
     29 C         -10.6589  -18.0583   23.9866 C.3     1  UNL1        0.0953
     30 N          -9.2572  -18.5820   24.0909 N.3     1  UNL1       -0.2934
     31 H          -9.3290  -19.5665   24.3475 H       1  UNL1        0.1236
@<TRIPOS>BOND
     1    13    14    1
     2    14    15    2
     3    15    12    1
     4    12     1    1
     5     1    20    1
     6    21    20    1
     7    21    22    1
     8    22    23    1
     9    23    24   ar
    10    24    25   ar
    11    25    26   ar
    12    26    27   ar
    13    27    28   ar
    14    28    29    1
    15    29    30    1
    16     2     1    1
    17     2     3    1
    18     3     4    1
    19     4     5    1
    20     5     6    1
    21     6     7   ar
    22     7     8   ar
    23     8     9   ar
    24     9    10   ar
    25    10    11   ar
    26    14    16    1
    27    16    17    1
    28    30    21    1
    29    11     2    1
    30    28    23   ar
    31    11     6   ar
    32    30    31    1
    33    17    18    1
    34    17    19    1
@<TRIPOS>MOLECULE
*****
 31 34 0 0 0
SMALL
GASTEIGER

@<TRIPOS>ATOM
      1 N          -8.8347  -16.0907   24.1882 N.3     1  UNL1       -0.2641
      2 C          -9.7106  -17.2951   24.0090 C.3     1  UNL1        0.0981
      3 C          -9.5079  -18.5051   24.8720 C.3     1  UNL1        0.0224
      4 C         -10.3839  -19.7095   24.6927 C.3     1  UNL1        0.0065
      5 C         -11.4625  -19.7039   23.6505 C.3     1  UNL1        0.0277
      6 C         -11.6653  -18.4939   22.7875 C.ar    1  UNL1       -0.0073
      7 C         -12.7440  -18.4883   21.7451 C.ar    1  UNL1       -0.0015
      8 C         -12.9467  -17.2784   20.8821 C.ar    1  UNL1        0.0203
      9 C         -12.0708  -16.0740   21.0614 C.ar    1  UNL1        0.0985
     10 N         -10.9921  -16.0795   22.1036 N.ar    1  UNL1       -0.2471
     11 C         -10.7893  -17.2895   22.9667 C.ar    1  UNL1        0.0695
     12 C          -8.9913  -15.2234   25.4019 C.3     1  UNL1        0.0986
     13 C          -6.4512  -16.2331   28.2791 C.3     1  UNL1        0.0275
     14 C          -6.9811  -15.7715   26.9539 C.2     1  UNL1       -0.0314
     15 C          -8.4613  -15.6850   26.7271 C.2     1  UNL1       -0.0159
     16 C          -6.0308  -15.3966   25.8556 C.3     1  UNL1        0.0877
     17 N          -4.5847  -15.7833   25.9505 N.3     1  UNL1       -0.3177
     18 H          -4.1504  -15.2871   26.7287 H       1  UNL1        0.1191
     19 H          -4.1092  -15.5369   25.0824 H       1  UNL1        0.1191
     20 C          -7.8021  -15.7537   23.1538 C.3     1  UNL1        0.0888
     21 C          -7.0766  -16.8510   22.4329 C.3     1  UNL1        0.0748
     22 C          -5.6773  -17.2139   22.8330 C.3     1  UNL1        0.0432
     23 C          -4.9517  -18.3113   22.1121 C.ar    1  UNL1       -0.0234
     24 C          -3.5524  -18.6742   22.5123 C.ar    1  UNL1       -0.0045
     25 C          -2.8270  -19.7715   21.7914 C.ar    1  UNL1       -0.0003
     26 C          -3.5009  -20.5058   20.6704 C.ar    1  UNL1       -0.0003
     27 C          -4.9002  -20.1429   20.2703 C.ar    1  UNL1       -0.0032
     28 C          -5.6256  -19.0456   20.9911 C.ar    1  UNL1       -0.0103
     29 C          -7.0250  -18.6826   20.5910 C.3     1  UNL1        0.0953
     30 N          -7.7504  -17.5853   21.3119 N.3     1  UNL1       -0.2934
     31 H          -8.5993  -17.9980   21.6985 H       1  UNL1        0.1236
@<TRIPOS>BOND
     1    13    14    1
     2    14    15    2
     3    15    12    1
     4    12     1    1
     5     1    20    1
     6    21    20    1
     7    21    22    1
     8    22    23    1
     9    23    24   ar
    10    24    25   ar
    11    25    26   ar
    12    26    27   ar
    13    27    28   ar
    14    28    29    1
    15    29    30    1
    16     2     1    1
    17     2     3    1
    18     3     4    1
    19     4     5    1
    20     5     6    1
    21     6     7   ar
    22     7     8   ar
    23     8     9   ar
    24     9    10   ar
    25    10    11   ar
    26    14    16    1
    27    16    17    1
    28    30    21    1
    29    11     2    1
    30    28    23   ar
    31    11     6   ar
    32    30    31    1
    33    17    18    1
    34    17    19    1
@<TRIPOS>MOLECULE
*****
 31 34 0 0 0
SMALL
GASTEIGER

@<TRIPOS>ATOM
      1 N          -6.1196  -17.6462   22.7476 N.3     1  UNL1       -0.2641
      2 C          -4.6393  -17.8885   22.7411 C.3     1  UNL1        0.0981
      3 C          -3.8506  -17.7465   24.0090 C.3     1  UNL1        0.0224
      4 C          -2.3703  -17.9887   24.0025 C.3     1  UNL1        0.0065
      5 C          -1.6788  -18.3730   22.7281 C.3     1  UNL1        0.0277
      6 C          -2.4676  -18.5151   21.4603 C.ar    1  UNL1       -0.0073
      7 C          -1.7760  -18.8994   20.1858 C.ar    1  UNL1       -0.0015
      8 C          -2.5648  -19.0415   18.9179 C.ar    1  UNL1        0.0203
      9 C          -4.0451  -18.7992   18.9244 C.ar    1  UNL1        0.0985
     10 N          -4.7366  -18.4149   20.1988 N.ar    1  UNL1       -0.2471
     11 C          -3.9478  -18.2728   21.4667 C.ar    1  UNL1        0.0695
     12 C          -6.6649  -16.3480   23.2645 C.3     1  UNL1        0.0986
     13 C          -5.4595  -14.4271   26.5214 C.3     1  UNL1        0.0275
     14 C          -6.2862  -15.2738   25.5997 C.2     1  UNL1       -0.0314
     15 C          -5.8382  -15.5013   24.1863 C.2     1  UNL1       -0.0159
     16 C          -7.5608  -15.8931   26.0913 C.3     1  UNL1        0.0877
     17 N          -8.3842  -15.1906   27.1298 N.3     1  UNL1       -0.3177
     18 H          -7.8643  -15.1513   28.0065 H       1  UNL1        0.1191
     19 H          -9.2561  -15.6999   27.2741 H       1  UNL1        0.1191
     20 C          -7.0547  -18.7022   22.2371 C.3     1  UNL1        0.0888
     21 C          -8.5342  -18.4551   22.2322 C.3     1  UNL1        0.0748
     22 C          -9.3478  -18.7493   23.4575 C.3     1  UNL1        0.0432
     23 C         -10.8274  -18.5022   23.4526 C.ar    1  UNL1       -0.0234
     24 C         -11.6410  -18.7965   24.6779 C.ar    1  UNL1       -0.0045
     25 C         -13.1204  -18.5494   24.6730 C.ar    1  UNL1       -0.0003
     26 C         -13.7863  -18.0081   23.4427 C.ar    1  UNL1       -0.0003
     27 C         -12.9727  -17.7138   22.2174 C.ar    1  UNL1       -0.0032
     28 C         -11.4933  -17.9609   22.2224 C.ar    1  UNL1       -0.0103
     29 C         -10.6796  -17.6666   20.9970 C.3     1  UNL1        0.0953
     30 N          -9.2001  -17.9137   21.0020 N.3     1  UNL1       -0.2934
     31 H          -8.7519  -17.0216   20.7929 H       1  UNL1        0.1236
@<TRIPOS>BOND
     1    13    14    1
     2    14    15    2
     3    15    12    1
     4    12     1    1
     5     1    20    1
     6    21    20    1
     7    21    22    1
     8    22    23    1
     9    23    24   ar
    10    24    25   ar
    11    25    26   ar
    12    26    27   ar
    13    27    28   ar
    14    28    29    1
    15    29    30    1
    16     2     1    1
    17     2     3    1
    18     3     4    1
    19     4     5    1
    20     5     6    1
    21     6     7   ar
    22     7     8   ar
    23     8     9   ar
    24     9    10   ar
    25    10    11   ar
    26    14    16    1
    27    16    17    1
    28    30    21    1
    29    11     2    1
    30    28    23   ar
    31    11     6   ar
    32    30    31    1
    33    17    18    1
    34    17    19    1
