@<TRIPOS>MOLECULE
*****
 35 40 0 0 0
SMALL
GASTEIGER

@<TRIPOS>ATOM
      1 C          -7.4801  -19.8035   20.4380 C.3     1  UNL1        0.0745
      2 C          -8.6013  -19.3436   19.5541 C.3     1  UNL1        0.0356
      3 C          -9.0177  -20.1750   18.3771 C.3     1  UNL1        0.0594
      4 C          -9.0879  -21.2780   17.3630 C.3     1  UNL1        0.0174
      5 C          -8.0335  -22.2890   17.7041 C.3     1  UNL1        0.0174
      6 C          -7.3117  -21.8107   18.9290 C.3     1  UNL1        0.0594
      7 C          -6.7751  -21.0946   20.1449 C.3     1  UNL1        0.0356
      8 N          -7.9200  -20.5042   19.3449 N.3     1  UNL1       -0.2715
      9 O          -8.9594  -17.2756   21.0873 O.2     1  UNL1       -0.2701
     10 C          -7.8034  -17.7081   21.9398 C.2     1  UNL1        0.2459
     11 N          -7.0637  -18.9720   21.6151 N.am    1  UNL1       -0.3024
     12 H          -6.3050  -19.2559   22.1746 H       1  UNL1        0.1497
     13 C          -7.3871  -16.8767   23.1168 C.ar    1  UNL1        0.0553
     14 C          -6.0389  -16.2193   23.1314 C.ar    1  UNL1        0.0046
     15 C          -5.6226  -15.3879   24.3084 C.ar    1  UNL1        0.0001
     16 C          -6.5545  -15.2139   25.4709 C.ar    1  UNL1        0.0001
     17 C          -7.9027  -15.8713   25.4563 C.ar    1  UNL1        0.0022
     18 C          -8.3190  -16.7027   24.2792 C.ar    1  UNL1        0.0282
     19 C          -9.6672  -17.3601   24.2646 C.ar    1  UNL1        0.1109
     20 N         -10.8876  -16.8533   23.5548 N.ar    1  UNL1       -0.2368
     21 C         -12.0062  -17.8197   23.8087 C.ar    1  UNL1        0.1064
     22 C         -11.4773  -18.9237   24.6754 C.ar    1  UNL1        0.0575
     23 S         -10.0317  -18.6398   24.9572 S.2     1  UNL1       -0.0659
     24 C          -7.5036  -19.6728   20.5219 C.3     1  UNL1        0.0991
     25 C          -6.0504  -19.3913   20.7648 C.ar    1  UNL1       -0.0061
     26 C          -5.4487  -19.6631   22.1117 C.ar    1  UNL1       -0.0029
     27 C          -3.9955  -19.3816   22.3545 C.ar    1  UNL1       -0.0002
     28 C          -3.1441  -18.8282   21.2505 C.ar    1  UNL1        0.0022
     29 C          -1.6908  -18.5467   21.4934 C.ar    1  UNL1        0.0296
     30 C          -0.8394  -17.9933   20.3894 C.ar    1  UNL1        0.1401
     31 F           0.6138  -17.7118   20.6323 F       1  UNL1       -0.2042
     32 C          -1.4411  -17.7215   19.0425 C.ar    1  UNL1        0.0296
     33 C          -2.8943  -18.0031   18.7997 C.ar    1  UNL1        0.0023
     34 C          -3.7458  -18.5564   19.9037 C.ar    1  UNL1       -0.0001
     35 C          -5.1989  -18.8379   19.6608 C.ar    1  UNL1       -0.0029
@<TRIPOS>BOND
     1     9    10    2
     2    10    11   am
     3     1    11    1
     4     1     2    1
     5     3     2    1
     6     3     4    1
     7     4     5    1
     8     6     5    1
     9     6     7    1
    10     6     8    1
    11     8    24    1
    12    24    25    1
    13    25    26   ar
    14    26    27   ar
    15    27    28   ar
    16    28    29   ar
    17    29    30   ar
    18    30    31    1
    19    30    32   ar
    20    32    33   ar
    21    33    34   ar
    22    34    35   ar
    23    10    13    1
    24    13    14   ar
    25    14    15   ar
    26    15    16   ar
    27    16    17   ar
    28    17    18   ar
    29    18    19    1
    30    19    20   ar
    31    20    21   ar
    32    21    22   ar
    33    22    23   ar
    34     7     1    1
    35    35    25   ar
    36    18    13   ar
    37    23    19   ar
    38     8     3    1
    39    34    28   ar
    40    11    12    1
@<TRIPOS>MOLECULE
*****
 35 40 0 0 0
SMALL
GASTEIGER

@<TRIPOS>ATOM
      1 C          -7.9166  -19.3827   21.2751 C.3     1  UNL1        0.0745
      2 C          -6.9147  -20.4228   20.8696 C.3     1  UNL1        0.0356
      3 C          -7.0576  -21.1293   19.5541 C.3     1  UNL1        0.0594
      4 C          -7.5766  -21.5561   18.2130 C.3     1  UNL1        0.0174
      5 C          -8.8161  -20.7630   17.9218 C.3     1  UNL1        0.0174
      6 C          -9.0631  -19.8460   19.0829 C.3     1  UNL1        0.0594
      7 C          -9.0614  -19.0491   20.3652 C.3     1  UNL1        0.0356
      8 N          -7.9763  -20.0724   20.0917 N.3     1  UNL1       -0.2715
      9 O          -7.3196  -16.4435   21.3420 O.2     1  UNL1       -0.2701
     10 C          -7.4751  -17.2066   22.6241 C.2     1  UNL1        0.2459
     11 N          -7.7736  -18.6762   22.5906 N.am    1  UNL1       -0.3024
     12 H          -7.8757  -19.1771   23.4320 H       1  UNL1        0.1497
     13 C          -7.3321  -16.5001   23.9395 C.ar    1  UNL1        0.0553
     14 C          -8.5520  -16.1472   24.7378 C.ar    1  UNL1        0.0046
     15 C          -8.4090  -15.4408   26.0532 C.ar    1  UNL1        0.0001
     16 C          -7.0460  -15.0871   26.5704 C.ar    1  UNL1        0.0001
     17 C          -5.8261  -15.4400   25.7721 C.ar    1  UNL1        0.0022
     18 C          -5.9692  -16.1466   24.4566 C.ar    1  UNL1        0.0282
     19 C          -4.7493  -16.4995   23.6583 C.ar    1  UNL1        0.1109
     20 N          -3.9261  -15.5496   22.8397 N.ar    1  UNL1       -0.2368
     21 C          -2.8065  -16.3273   22.2139 C.ar    1  UNL1        0.1064
     22 C          -2.9377  -17.7578   22.6458 C.ar    1  UNL1        0.0575
     23 S          -4.1384  -17.8643   23.5384 S.2     1  UNL1       -0.0659
     24 C          -7.8334  -19.3659   21.4072 C.3     1  UNL1        0.0991
     25 C          -8.9873  -19.3228   22.3647 C.ar    1  UNL1       -0.0061
     26 C          -8.9316  -20.1070   23.6421 C.ar    1  UNL1       -0.0029
     27 C         -10.0855  -20.0639   24.5995 C.ar    1  UNL1       -0.0002
     28 C         -11.2950  -19.2365   24.2795 C.ar    1  UNL1        0.0022
     29 C         -12.4489  -19.1934   25.2370 C.ar    1  UNL1        0.0296
     30 C         -13.6585  -18.3661   24.9170 C.ar    1  UNL1        0.1401
     31 F         -14.8124  -18.3230   25.8744 F       1  UNL1       -0.2042
     32 C         -13.7142  -17.5819   23.6395 C.ar    1  UNL1        0.0296
     33 C         -12.5603  -17.6250   22.6820 C.ar    1  UNL1        0.0023
     34 C         -11.3508  -18.4523   23.0021 C.ar    1  UNL1       -0.0001
     35 C         -10.1969  -18.4955   22.0446 C.ar    1  UNL1       -0.0029
@<TRIPOS>BOND
     1     9    10    2
     2    10    11   am
     3     1    11    1
     4     1     2    1
     5     3     2    1
     6     3     4    1
     7     4     5    1
     8     6     5    1
     9     6     7    1
    10     6     8    1
    11     8    24    1
    12    24    25    1
    13    25    26   ar
    14    26    27   ar
    15    27    28   ar
    16    28    29   ar
    17    29    30   ar
    18    30    31    1
    19    30    32   ar
    20    32    33   ar
    21    33    34   ar
    22    34    35   ar
    23    10    13    1
    24    13    14   ar
    25    14    15   ar
    26    15    16   ar
    27    16    17   ar
    28    17    18   ar
    29    18    19    1
    30    19    20   ar
    31    20    21   ar
    32    21    22   ar
    33    22    23   ar
    34     7     1    1
    35    35    25   ar
    36    18    13   ar
    37    23    19   ar
    38     8     3    1
    39    34    28   ar
    40    11    12    1
@<TRIPOS>MOLECULE
*****
 35 40 0 0 0
SMALL
GASTEIGER

@<TRIPOS>ATOM
      1 C           0.9089    1.5308   23.2424 C.3     1  UNL1        0.0745
      2 C           0.2084    2.8305   22.9780 C.3     1  UNL1        0.0356
      3 C          -0.7048    3.4148   24.0147 C.3     1  UNL1        0.0594
      4 C          -1.4862    3.6109   25.2799 C.3     1  UNL1        0.0174
      5 C          -1.2045    2.4473   26.1838 C.3     1  UNL1        0.0174
      6 C          -0.2490    1.5322   25.4771 C.3     1  UNL1        0.0594
      7 C           0.6963    0.8153   24.5435 C.3     1  UNL1        0.0356
      8 N           0.0599    2.1300   24.1366 N.3     1  UNL1       -0.2715
      9 O          -0.2386    0.2177   20.8013 O.2     1  UNL1       -0.2701
     10 C           1.2484    0.2900   20.9851 C.2     1  UNL1        0.2459
     11 N           1.8222    0.9465   22.2057 N.am    1  UNL1       -0.3024
     12 H           2.7981    0.9940   22.3264 H       1  UNL1        0.1497
     13 C           2.1615   -0.2942   19.9484 C.ar    1  UNL1        0.0553
     14 C           2.7569   -1.6555   20.1547 C.ar    1  UNL1        0.0046
     15 C           3.6700   -2.2397   19.1180 C.ar    1  UNL1        0.0001
     16 C           3.9878   -1.4627   17.8749 C.ar    1  UNL1        0.0001
     17 C           3.3925   -0.1014   17.6686 C.ar    1  UNL1        0.0022
     18 C           2.4793    0.4828   18.7054 C.ar    1  UNL1        0.0282
     19 C           1.8839    1.8440   18.4990 C.ar    1  UNL1        0.1109
     20 N           0.4623    2.1364   18.1201 N.ar    1  UNL1       -0.2368
     21 C           0.3054    3.6249   18.0223 C.ar    1  UNL1        0.1064
     22 C           1.6301    4.2525   18.3407 C.ar    1  UNL1        0.0575
     23 S           2.6057    3.1520   18.6354 S.2     1  UNL1       -0.0659
     24 C           0.9731    1.5458   23.0999 C.3     1  UNL1        0.0991
     25 C           2.3815    1.1783   23.4624 C.ar    1  UNL1       -0.0061
     26 C           3.4169    2.2505   23.6300 C.ar    1  UNL1       -0.0029
     27 C           4.8253    1.8829   23.9925 C.ar    1  UNL1       -0.0002
     28 C           5.1981    0.4432   24.1875 C.ar    1  UNL1        0.0022
     29 C           6.6066    0.0756   24.5500 C.ar    1  UNL1        0.0296
     30 C           6.9794   -1.3642   24.7450 C.ar    1  UNL1        0.1401
     31 F           8.3877   -1.7317   25.1076 F       1  UNL1       -0.2042
     32 C           5.9438   -2.4364   24.5775 C.ar    1  UNL1        0.0296
     33 C           4.5355   -2.0688   24.2150 C.ar    1  UNL1        0.0023
     34 C           4.1627   -0.6291   24.0200 C.ar    1  UNL1       -0.0001
     35 C           2.7543   -0.2615   23.6575 C.ar    1  UNL1       -0.0029
@<TRIPOS>BOND
     1     9    10    2
     2    10    11   am
     3     1    11    1
     4     1     2    1
     5     3     2    1
     6     3     4    1
     7     4     5    1
     8     6     5    1
     9     6     7    1
    10     6     8    1
    11     8    24    1
    12    24    25    1
    13    25    26   ar
    14    26    27   ar
    15    27    28   ar
    16    28    29   ar
    17    29    30   ar
    18    30    31    1
    19    30    32   ar
    20    32    33   ar
    21    33    34   ar
    22    34    35   ar
    23    10    13    1
    24    13    14   ar
    25    14    15   ar
    26    15    16   ar
    27    16    17   ar
    28    17    18   ar
    29    18    19    1
    30    19    20   ar
    31    20    21   ar
    32    21    22   ar
    33    22    23   ar
    34     7     1    1
    35    35    25   ar
    36    18    13   ar
    37    23    19   ar
    38     8     3    1
    39    34    28   ar
    40    11    12    1
@<TRIPOS>MOLECULE
*****
 35 40 0 0 0
SMALL
GASTEIGER

@<TRIPOS>ATOM
      1 C          -7.2915  -16.3949   24.6512 C.3     1  UNL1        0.0745
      2 C          -8.6190  -15.8526   25.0912 C.3     1  UNL1        0.0356
      3 C          -8.7486  -15.1771   26.4242 C.3     1  UNL1        0.0594
      4 C          -8.4214  -14.6077   27.7728 C.3     1  UNL1        0.0174
      5 C          -6.9633  -14.8440   28.0343 C.3     1  UNL1        0.0174
      6 C          -6.3895  -15.5594   26.8473 C.3     1  UNL1        0.0594
      7 C          -6.0937  -16.2618   25.5441 C.3     1  UNL1        0.0356
      8 N          -7.4929  -15.7653   25.8522 N.3     1  UNL1       -0.2715
      9 O          -9.1460  -18.6365   23.9189 O.2     1  UNL1       -0.2701
     10 C          -8.0892  -18.1912   22.9520 C.2     1  UNL1        0.2459
     11 N          -7.1620  -17.0704   23.3181 N.am    1  UNL1       -0.3024
     12 H          -6.4684  -16.7781   22.6835 H       1  UNL1        0.1497
     13 C          -7.9597  -18.8666   21.6190 C.ar    1  UNL1        0.0553
     14 C          -6.7324  -19.6680   21.3003 C.ar    1  UNL1        0.0046
     15 C          -6.6029  -20.3434   19.9673 C.ar    1  UNL1        0.0001
     16 C          -7.7007  -20.2176   18.9529 C.ar    1  UNL1        0.0001
     17 C          -8.9280  -19.4163   19.2716 C.ar    1  UNL1        0.0022
     18 C          -9.0575  -18.7408   20.6046 C.ar    1  UNL1        0.0282
     19 C         -10.2849  -17.9395   20.9233 C.ar    1  UNL1        0.1109
     20 N         -10.3856  -16.4429   20.9223 N.ar    1  UNL1       -0.2368
     21 C         -11.7899  -16.0725   21.2972 C.ar    1  UNL1        0.1064
     22 C         -12.5571  -17.3403   21.5301 C.ar    1  UNL1        0.0575
     23 S         -11.6270  -18.4941   21.2990 S.2     1  UNL1       -0.0659
     24 C          -7.3633  -16.4407   24.5192 C.3     1  UNL1        0.0991
     25 C          -6.0515  -16.4195   23.7920 C.ar    1  UNL1       -0.0061
     26 C          -5.4371  -15.1111   23.3914 C.ar    1  UNL1       -0.0029
     27 C          -4.1253  -15.0899   22.6643 C.ar    1  UNL1       -0.0002
     28 C          -3.4279  -16.3771   22.3377 C.ar    1  UNL1        0.0022
     29 C          -2.1161  -16.3559   21.6105 C.ar    1  UNL1        0.0296
     30 C          -1.4187  -17.6431   21.2839 C.ar    1  UNL1        0.1401
     31 F          -0.1070  -17.6220   20.5568 F       1  UNL1       -0.2042
     32 C          -2.0332  -18.9516   21.6846 C.ar    1  UNL1        0.0296
     33 C          -3.3449  -18.9728   22.4118 C.ar    1  UNL1        0.0023
     34 C          -4.0423  -17.6856   22.7383 C.ar    1  UNL1       -0.0001
     35 C          -5.3541  -17.7067   23.4655 C.ar    1  UNL1       -0.0029
@<TRIPOS>BOND
     1     9    10    2
     2    10    11   am
     3     1    11    1
     4     1     2    1
     5     3     2    1
     6     3     4    1
     7     4     5    1
     8     6     5    1
     9     6     7    1
    10     6     8    1
    11     8    24    1
    12    24    25    1
    13    25    26   ar
    14    26    27   ar
    15    27    28   ar
    16    28    29   ar
    17    29    30   ar
    18    30    31    1
    19    30    32   ar
    20    32    33   ar
    21    33    34   ar
    22    34    35   ar
    23    10    13    1
    24    13    14   ar
    25    14    15   ar
    26    15    16   ar
    27    16    17   ar
    28    17    18   ar
    29    18    19    1
    30    19    20   ar
    31    20    21   ar
    32    21    22   ar
    33    22    23   ar
    34     7     1    1
    35    35    25   ar
    36    18    13   ar
    37    23    19   ar
    38     8     3    1
    39    34    28   ar
    40    11    12    1
@<TRIPOS>MOLECULE
*****
 35 40 0 0 0
SMALL
GASTEIGER

@<TRIPOS>ATOM
      1 C           2.3020    1.7574   18.8677 C.3     1  UNL1        0.0745
      2 C           0.8451    1.6213   18.5376 C.3     1  UNL1        0.0356
      3 C           0.0876    2.7939   17.9889 C.3     1  UNL1        0.0594
      4 C          -0.2481    4.1670   17.4870 C.3     1  UNL1        0.0174
      5 C           0.9970    5.0012   17.5513 C.3     1  UNL1        0.0174
      6 C           2.1020    4.1437   18.0930 C.3     1  UNL1        0.0594
      7 C           3.0014    3.0661   18.6491 C.3     1  UNL1        0.0356
      8 N           1.5401    2.7795   18.3635 N.3     1  UNL1       -0.2715
      9 O           3.1810   -0.4502   17.0363 O.2     1  UNL1       -0.2701
     10 C           3.4989   -0.5192   18.5007 C.2     1  UNL1        0.2459
     11 N           3.0594    0.5846   19.4164 N.am    1  UNL1       -0.3024
     12 H           3.2680    0.5394   20.3774 H       1  UNL1        0.1497
     13 C           4.2563   -1.6919   19.0493 C.ar    1  UNL1        0.0553
     14 C           3.5149   -2.8476   19.6531 C.ar    1  UNL1        0.0046
     15 C           4.2723   -4.0204   20.2017 C.ar    1  UNL1        0.0001
     16 C           5.7712   -4.0374   20.1466 C.ar    1  UNL1        0.0001
     17 C           6.5127   -2.8817   19.5428 C.ar    1  UNL1        0.0022
     18 C           5.7552   -1.7089   18.9942 C.ar    1  UNL1        0.0282
     19 C           6.4966   -0.5532   18.3904 C.ar    1  UNL1        0.1109
     20 N           6.6312   -0.2605   16.9254 N.ar    1  UNL1       -0.2368
     21 C           7.4514    0.9863   16.7753 C.ar    1  UNL1        0.1064
     22 C           7.8238    1.4642   18.1475 C.ar    1  UNL1        0.0575
     23 S           7.2338    0.5128   19.1457 S.2     1  UNL1       -0.0659
     24 C           2.2975    1.6069   18.9122 C.3     1  UNL1        0.0991
     25 C           2.6893    1.5779   20.3599 C.ar    1  UNL1       -0.0061
     26 C           4.1220    1.7838   20.7533 C.ar    1  UNL1       -0.0029
     27 C           4.5137    1.7549   22.2010 C.ar    1  UNL1       -0.0002
     28 C           3.4728    1.5200   23.2551 C.ar    1  UNL1        0.0022
     29 C           3.8646    1.4910   24.7028 C.ar    1  UNL1        0.0296
     30 C           2.8236    1.2561   25.7569 C.ar    1  UNL1        0.1401
     31 F           3.2153    1.2271   27.2045 F       1  UNL1       -0.2042
     32 C           1.3908    1.0502   25.3633 C.ar    1  UNL1        0.0296
     33 C           0.9991    1.0791   23.9157 C.ar    1  UNL1        0.0023
     34 C           2.0401    1.3140   22.8616 C.ar    1  UNL1       -0.0001
     35 C           1.6483    1.3430   21.4140 C.ar    1  UNL1       -0.0029
@<TRIPOS>BOND
     1     9    10    2
     2    10    11   am
     3     1    11    1
     4     1     2    1
     5     3     2    1
     6     3     4    1
     7     4     5    1
     8     6     5    1
     9     6     7    1
    10     6     8    1
    11     8    24    1
    12    24    25    1
    13    25    26   ar
    14    26    27   ar
    15    27    28   ar
    16    28    29   ar
    17    29    30   ar
    18    30    31    1
    19    30    32   ar
    20    32    33   ar
    21    33    34   ar
    22    34    35   ar
    23    10    13    1
    24    13    14   ar
    25    14    15   ar
    26    15    16   ar
    27    16    17   ar
    28    17    18   ar
    29    18    19    1
    30    19    20   ar
    31    20    21   ar
    32    21    22   ar
    33    22    23   ar
    34     7     1    1
    35    35    25   ar
    36    18    13   ar
    37    23    19   ar
    38     8     3    1
    39    34    28   ar
    40    11    12    1
@<TRIPOS>MOLECULE
*****
 35 40 0 0 0
SMALL
GASTEIGER

@<TRIPOS>ATOM
      1 C           6.8226    0.3660   18.0803 C.3     1  UNL1        0.0745
      2 C           7.8952    1.0164   18.9028 C.3     1  UNL1        0.0356
      3 C           8.7969    2.0425   18.2831 C.3     1  UNL1        0.0594
      4 C           9.4327    2.9693   17.2897 C.3     1  UNL1        0.0174
      5 C           8.7148    2.8105   15.9822 C.3     1  UNL1        0.0174
      6 C           7.6353    1.7856   16.1676 C.3     1  UNL1        0.0594
      7 C           6.6517    0.7415   16.6382 C.3     1  UNL1        0.0356
      8 N           7.6861    1.3110   17.5896 N.3     1  UNL1       -0.2715
      9 O           7.7517   -2.4724   18.3634 O.2     1  UNL1       -0.2701
     10 C           6.3854   -2.0793   18.8417 C.2     1  UNL1        0.2459
     11 N           5.9208   -0.6601   18.7001 N.am    1  UNL1       -0.3024
     12 H           5.0241   -0.4021   19.0140 H       1  UNL1        0.1497
     13 C           5.4837   -3.1054   19.4614 C.ar    1  UNL1        0.0553
     14 C           4.7560   -4.0874   18.5919 C.ar    1  UNL1        0.0046
     15 C           3.8543   -5.1135   19.2117 C.ar    1  UNL1        0.0001
     16 C           3.6803   -5.1575   20.7009 C.ar    1  UNL1        0.0001
     17 C           4.4080   -4.1754   21.5704 C.ar    1  UNL1        0.0022
     18 C           5.3097   -3.1493   20.9506 C.ar    1  UNL1        0.0282
     19 C           6.0374   -2.1673   21.8201 C.ar    1  UNL1        0.1109
     20 N           5.7175   -0.7086   21.9613 N.ar    1  UNL1       -0.2368
     21 C           6.6951   -0.1113   22.9294 C.ar    1  UNL1        0.1064
     22 C           7.6192   -1.2008   23.3866 C.ar    1  UNL1        0.0575
     23 S           7.2128   -2.4715   22.7010 S.2     1  UNL1       -0.0659
     24 C           6.7843    0.2849   18.2093 C.3     1  UNL1        0.0991
     25 C           5.3142    0.5558   18.3340 C.ar    1  UNL1       -0.0061
     26 C           4.3351   -0.2241   17.5075 C.ar    1  UNL1       -0.0029
     27 C           2.8651    0.0467   17.6323 C.ar    1  UNL1       -0.0002
     28 C           2.3742    1.0976   18.5834 C.ar    1  UNL1        0.0022
     29 C           0.9041    1.3685   18.7081 C.ar    1  UNL1        0.0296
     30 C           0.4131    2.4193   19.6593 C.ar    1  UNL1        0.1401
     31 F          -1.0569    2.6902   19.7840 F       1  UNL1       -0.2042
     32 C           1.3923    3.1993   20.4857 C.ar    1  UNL1        0.0296
     33 C           2.8623    2.9284   20.3610 C.ar    1  UNL1        0.0023
     34 C           3.3533    1.8775   19.4099 C.ar    1  UNL1       -0.0001
     35 C           4.8233    1.6067   19.2851 C.ar    1  UNL1       -0.0029
@<TRIPOS>BOND
     1     9    10    2
     2    10    11   am
     3     1    11    1
     4     1     2    1
     5     3     2    1
     6     3     4    1
     7     4     5    1
     8     6     5    1
     9     6     7    1
    10     6     8    1
    11     8    24    1
    12    24    25    1
    13    25    26   ar
    14    26    27   ar
    15    27    28   ar
    16    28    29   ar
    17    29    30   ar
    18    30    31    1
    19    30    32   ar
    20    32    33   ar
    21    33    34   ar
    22    34    35   ar
    23    10    13    1
    24    13    14   ar
    25    14    15   ar
    26    15    16   ar
    27    16    17   ar
    28    17    18   ar
    29    18    19    1
    30    19    20   ar
    31    20    21   ar
    32    21    22   ar
    33    22    23   ar
    34     7     1    1
    35    35    25   ar
    36    18    13   ar
    37    23    19   ar
    38     8     3    1
    39    34    28   ar
    40    11    12    1
@<TRIPOS>MOLECULE
*****
 35 40 0 0 0
SMALL
GASTEIGER

@<TRIPOS>ATOM
      1 C           5.5456   -1.6328   31.5906 C.3     1  UNL1        0.0745
      2 C           5.8864   -1.7363   30.1335 C.3     1  UNL1        0.0356
      3 C           6.5277   -2.9830   29.6000 C.3     1  UNL1        0.0594
      4 C           7.1304   -4.3540   29.5173 C.3     1  UNL1        0.0174
      5 C           7.1071   -4.9542   30.8919 C.3     1  UNL1        0.0174
      6 C           6.4900   -3.9540   31.8240 C.3     1  UNL1        0.0594
      7 C           5.8461   -2.7758   32.5142 C.3     1  UNL1        0.0356
      8 N           6.1319   -2.7357   31.0256 N.3     1  UNL1       -0.2715
      9 O           2.5757   -1.2652   31.3790 O.2     1  UNL1       -0.2701
     10 C           3.4194   -0.2023   32.0182 C.2     1  UNL1        0.2459
     11 N           4.9043   -0.3861   32.1240 N.am    1  UNL1       -0.3024
     12 H           5.4580    0.3115   32.5436 H       1  UNL1        0.1497
     13 C           2.7780    1.0443   32.5517 C.ar    1  UNL1        0.0553
     14 C           3.1020    1.5208   33.9366 C.ar    1  UNL1        0.0046
     15 C           2.4606    2.7674   34.4700 C.ar    1  UNL1        0.0001
     16 C           1.4953    3.5376   33.6185 C.ar    1  UNL1        0.0001
     17 C           1.1714    3.0611   32.2336 C.ar    1  UNL1        0.0022
     18 C           1.8128    1.8145   31.7002 C.ar    1  UNL1        0.0282
     19 C           1.4888    1.3380   30.3152 C.ar    1  UNL1        0.1109
     20 N           0.2941    0.5213   29.9207 N.ar    1  UNL1       -0.2368
     21 C           0.3697    0.2731   28.4434 C.ar    1  UNL1        0.1064
     22 C           1.6111    0.9364   27.9248 C.ar    1  UNL1        0.0575
     23 S           2.3028    1.5946   29.0816 S.2     1  UNL1       -0.0659
     24 C           5.4906   -1.4891   31.5590 C.3     1  UNL1        0.0991
     25 C           6.2456   -0.6033   32.5054 C.ar    1  UNL1       -0.0061
     26 C           7.1752    0.4455   31.9708 C.ar    1  UNL1       -0.0029
     27 C           7.9301    1.3312   32.9171 C.ar    1  UNL1       -0.0002
     28 C           7.7553    1.1683   34.3980 C.ar    1  UNL1        0.0022
     29 C           8.5102    2.0541   35.3443 C.ar    1  UNL1        0.0296
     30 C           8.3354    1.8911   36.8251 C.ar    1  UNL1        0.1401
     31 F           9.0903    2.7769   37.7714 F       1  UNL1       -0.2042
     32 C           7.4057    0.8423   37.3596 C.ar    1  UNL1        0.0296
     33 C           6.6508   -0.0435   36.4133 C.ar    1  UNL1        0.0023
     34 C           6.8256    0.1195   34.9325 C.ar    1  UNL1       -0.0001
     35 C           6.0707   -0.7663   33.9862 C.ar    1  UNL1       -0.0029
@<TRIPOS>BOND
     1     9    10    2
     2    10    11   am
     3     1    11    1
     4     1     2    1
     5     3     2    1
     6     3     4    1
     7     4     5    1
     8     6     5    1
     9     6     7    1
    10     6     8    1
    11     8    24    1
    12    24    25    1
    13    25    26   ar
    14    26    27   ar
    15    27    28   ar
    16    28    29   ar
    17    29    30   ar
    18    30    31    1
    19    30    32   ar
    20    32    33   ar
    21    33    34   ar
    22    34    35   ar
    23    10    13    1
    24    13    14   ar
    25    14    15   ar
    26    15    16   ar
    27    16    17   ar
    28    17    18   ar
    29    18    19    1
    30    19    20   ar
    31    20    21   ar
    32    21    22   ar
    33    22    23   ar
    34     7     1    1
    35    35    25   ar
    36    18    13   ar
    37    23    19   ar
    38     8     3    1
    39    34    28   ar
    40    11    12    1
@<TRIPOS>MOLECULE
*****
 35 40 0 0 0
SMALL
GASTEIGER

@<TRIPOS>ATOM
      1 C           2.7728    0.1844   20.4936 C.3     1  UNL1        0.0745
      2 C           2.9208    0.9822   19.2320 C.3     1  UNL1        0.0356
      3 C           3.4846    0.3391   17.9997 C.3     1  UNL1        0.0594
      4 C           4.0686   -0.6720   17.0580 C.3     1  UNL1        0.0174
      5 C           4.2232   -1.9645   17.8034 C.3     1  UNL1        0.0174
      6 C           3.7348   -1.7522   19.2057 C.3     1  UNL1        0.0594
      7 C           3.1886   -1.2565   20.5229 C.3     1  UNL1        0.0356
      8 N           3.2783   -0.3286   19.3270 N.3     1  UNL1       -0.2715
      9 O          -0.1981    0.4180   20.8381 O.2     1  UNL1       -0.2701
     10 C           0.7235    0.9444   21.8982 C.2     1  UNL1        0.2459
     11 N           2.2090    0.8276   21.7259 N.am    1  UNL1       -0.3024
     12 H           2.8139    1.1730   22.4215 H       1  UNL1        0.1497
     13 C           0.1597    1.5875   23.1304 C.ar    1  UNL1        0.0553
     14 C           0.4941    1.0356   24.4845 C.ar    1  UNL1        0.0046
     15 C          -0.0697    1.6787   25.7167 C.ar    1  UNL1        0.0001
     16 C          -0.9681    2.8739   25.5948 C.ar    1  UNL1        0.0001
     17 C          -1.3025    3.4258   24.2408 C.ar    1  UNL1        0.0022
     18 C          -0.7386    2.7826   23.0085 C.ar    1  UNL1        0.0282
     19 C          -1.0730    3.3345   21.6544 C.ar    1  UNL1        0.1109
     20 N          -2.2705    2.9735   20.8263 N.ar    1  UNL1       -0.2368
     21 C          -2.2063    3.7602   19.5509 C.ar    1  UNL1        0.1064
     22 C          -0.9690    4.6074   19.5906 C.ar    1  UNL1        0.0575
     23 S          -0.2686    4.3443   20.8906 S.2     1  UNL1       -0.0659
     24 C           2.7145    0.3145   20.5593 C.3     1  UNL1        0.0991
     25 C           3.5520    0.4226   21.7990 C.ar    1  UNL1       -0.0061
     26 C           4.5848    1.5042   21.9145 C.ar    1  UNL1       -0.0029
     27 C           5.4223    1.6122   23.1543 C.ar    1  UNL1       -0.0002
     28 C           5.2269    0.6386   24.2785 C.ar    1  UNL1        0.0022
     29 C           6.0644    0.7467   25.5183 C.ar    1  UNL1        0.0296
     30 C           5.8691   -0.2269   26.6425 C.ar    1  UNL1        0.1401
     31 F           6.7065   -0.1189   27.8822 F       1  UNL1       -0.2042
     32 C           4.8362   -1.3086   26.5270 C.ar    1  UNL1        0.0296
     33 C           3.9988   -1.4166   25.2872 C.ar    1  UNL1        0.0023
     34 C           4.1941   -0.4430   24.1630 C.ar    1  UNL1       -0.0001
     35 C           3.3567   -0.5510   22.9233 C.ar    1  UNL1       -0.0029
@<TRIPOS>BOND
     1     9    10    2
     2    10    11   am
     3     1    11    1
     4     1     2    1
     5     3     2    1
     6     3     4    1
     7     4     5    1
     8     6     5    1
     9     6     7    1
    10     6     8    1
    11     8    24    1
    12    24    25    1
    13    25    26   ar
    14    26    27   ar
    15    27    28   ar
    16    28    29   ar
    17    29    30   ar
    18    30    31    1
    19    30    32   ar
    20    32    33   ar
    21    33    34   ar
    22    34    35   ar
    23    10    13    1
    24    13    14   ar
    25    14    15   ar
    26    15    16   ar
    27    16    17   ar
    28    17    18   ar
    29    18    19    1
    30    19    20   ar
    31    20    21   ar
    32    21    22   ar
    33    22    23   ar
    34     7     1    1
    35    35    25   ar
    36    18    13   ar
    37    23    19   ar
    38     8     3    1
    39    34    28   ar
    40    11    12    1
@<TRIPOS>MOLECULE
*****
 35 40 0 0 0
SMALL
GASTEIGER

@<TRIPOS>ATOM
      1 C           2.8090    2.9022   37.0383 C.3     1  UNL1        0.0745
      2 C           3.1806    1.4972   37.4095 C.3     1  UNL1        0.0356
      3 C           2.3875    0.7611   38.4483 C.3     1  UNL1        0.0594
      4 C           1.3591    0.4311   39.4892 C.3     1  UNL1        0.0174
      5 C           0.4720    1.6286   39.6603 C.3     1  UNL1        0.0174
      6 C           0.9522    2.6986   38.7252 C.3     1  UNL1        0.0594
      7 C           1.6442    3.5712   37.7059 C.3     1  UNL1        0.0356
      8 N           2.1361    2.1625   37.9762 N.3     1  UNL1       -0.2715
      9 O           5.4043    4.2108   37.7812 O.2     1  UNL1       -0.2701
     10 C           4.8998    4.2926   36.3709 C.2     1  UNL1        0.2459
     11 N           3.6022    3.6382   35.9995 N.am    1  UNL1       -0.3024
     12 H           3.2711    3.6919   35.0739 H       1  UNL1        0.1497
     13 C           5.6930    5.0286   35.3321 C.ar    1  UNL1        0.0553
     14 C           5.8628    6.5156   35.4324 C.ar    1  UNL1        0.0046
     15 C           6.6559    7.2516   34.3936 C.ar    1  UNL1        0.0001
     16 C           7.2794    6.5006   33.2545 C.ar    1  UNL1        0.0001
     17 C           7.1096    5.0136   33.1543 C.ar    1  UNL1        0.0022
     18 C           6.3164    4.2776   34.1931 C.ar    1  UNL1        0.0282
     19 C           6.1466    2.7906   34.0929 C.ar    1  UNL1        0.1109
     20 N           6.2250    1.8156   35.2301 N.ar    1  UNL1       -0.2368
     21 C           5.9955    0.4401   34.6779 C.ar    1  UNL1        0.1064
     22 C           5.7752    0.5649   33.1994 C.ar    1  UNL1        0.0575
     23 S           5.8686    2.0176   32.8378 S.2     1  UNL1       -0.0659
     24 C           2.9292    2.8986   36.9374 C.3     1  UNL1        0.0991
     25 C           2.3424    3.1413   35.5784 C.ar    1  UNL1       -0.0061
     26 C           1.5847    4.4064   35.3036 C.ar    1  UNL1       -0.0029
     27 C           0.9980    4.6491   33.9447 C.ar    1  UNL1       -0.0002
     28 C           1.1689    3.6267   32.8605 C.ar    1  UNL1        0.0022
     29 C           0.5821    3.8695   31.5015 C.ar    1  UNL1        0.0296
     30 C           0.7530    2.8471   30.4172 C.ar    1  UNL1        0.1401
     31 F           0.1663    3.0898   29.0583 F       1  UNL1       -0.2042
     32 C           1.5107    1.5820   30.6920 C.ar    1  UNL1        0.0296
     33 C           2.0975    1.3393   32.0509 C.ar    1  UNL1        0.0023
     34 C           1.9266    2.3616   33.1352 C.ar    1  UNL1       -0.0001
     35 C           2.5133    2.1189   34.4941 C.ar    1  UNL1       -0.0029
@<TRIPOS>BOND
     1     9    10    2
     2    10    11   am
     3     1    11    1
     4     1     2    1
     5     3     2    1
     6     3     4    1
     7     4     5    1
     8     6     5    1
     9     6     7    1
    10     6     8    1
    11     8    24    1
    12    24    25    1
    13    25    26   ar
    14    26    27   ar
    15    27    28   ar
    16    28    29   ar
    17    29    30   ar
    18    30    31    1
    19    30    32   ar
    20    32    33   ar
    21    33    34   ar
    22    34    35   ar
    23    10    13    1
    24    13    14   ar
    25    14    15   ar
    26    15    16   ar
    27    16    17   ar
    28    17    18   ar
    29    18    19    1
    30    19    20   ar
    31    20    21   ar
    32    21    22   ar
    33    22    23   ar
    34     7     1    1
    35    35    25   ar
    36    18    13   ar
    37    23    19   ar
    38     8     3    1
    39    34    28   ar
    40    11    12    1
