@<TRIPOS>MOLECULE
*****
 38 41 0 0 0
SMALL
GASTEIGER

@<TRIPOS>ATOM
      1 C           5.6794   -2.6252   19.1074 C.ar    1  UNL1        0.0611
      2 C           6.4995   -2.2160   17.9199 C.ar    1  UNL1        0.1037
      3 N           7.9470   -2.3092   18.3020 N.ar    1  UNL1       -0.2269
      4 C           8.0216   -2.7761   19.7255 C.ar    1  UNL1        0.1407
      5 N           9.1845   -3.0486   20.6328 N.ar    1  UNL1       -0.3374
      6 C           8.9460   -3.5164   22.0379 C.ar    1  UNL1        0.0736
      7 C           7.5446   -3.7117   22.5357 C.ar    1  UNL1        0.0216
      8 C           6.3816   -3.4392   21.6284 C.ar    1  UNL1        0.0048
      9 C           6.6201   -2.9714   20.2233 C.ar    1  UNL1        0.0386
     10 H          10.1044   -2.9204   20.3061 H       1  UNL1        0.1674
     11 C           7.3061   -4.1795   23.9408 C.ar    1  UNL1        0.0548
     12 C           6.7992   -3.2188   24.9753 C.ar    1  UNL1        0.0095
     13 C           6.5607   -3.6867   26.3804 C.ar    1  UNL1        0.0579
     14 C           6.8292   -5.1152   26.7510 C.ar    1  UNL1        0.2275
     15 N           7.3361   -6.0758   25.7165 N.ar    1  UNL1       -0.1767
     16 C           7.5746   -5.6080   24.3114 C.ar    1  UNL1        0.2274
     17 O           6.5907   -5.5830   28.1560 O.3     1  UNL1       -0.4561
     18 C           7.7020   -6.2268   28.9309 C.3     1  UNL1        0.2542
     19 O           8.0815   -6.5686   23.2769 O.3     1  UNL1       -0.4561
     20 C           9.2135   -7.4963   23.6055 C.3     1  UNL1        0.2542
     21 C           4.1816   -2.6789   19.1682 C.2     1  UNL1        0.2015
     22 O           3.4698   -3.9862   18.9840 O.2     1  UNL1       -0.2864
     23 C           2.2136    0.2047   21.0557 C.ar    1  UNL1        0.0920
     24 C           1.8235    1.0826   19.9038 C.ar    1  UNL1        0.0204
     25 C           2.2194    0.7067   18.5066 C.ar    1  UNL1        0.0312
     26 C           3.0054   -0.5471   18.2614 C.ar    1  UNL1        0.1454
     27 F           3.4013   -0.9230   16.8643 F       1  UNL1       -0.2040
     28 C           3.3955   -1.4250   19.4134 C.ar    1  UNL1        0.0951
     29 C           2.9997   -1.0491   20.8105 C.ar    1  UNL1        0.1598
     30 F           3.3899   -1.9271   21.9625 F       1  UNL1       -0.2026
     31 N           1.8178    0.5806   22.4529 N.pl3   1  UNL1       -0.2166
     32 H           0.8664    0.6071   22.7047 H       1  UNL1        0.1734
     33 S           2.8714    0.9161   23.4663 S.O2    1  UNL1        0.0540
     34 O           3.2844    2.1011   22.6446 O.2     1  UNL1       -0.1545
     35 O           2.4584   -0.2689   24.2881 O.2     1  UNL1       -0.1545
     36 C           3.9251    1.2516   24.4799 C.3     1  UNL1        0.1724
     37 C           5.7905   -0.0641   23.2390 C.3     1  UNL1        0.0019
     38 C           5.2090    0.4766   24.5116 C.3     1  UNL1        0.0273
@<TRIPOS>BOND
     1    37    38    1
     2    38    36    1
     3    36    33    1
     4    33    34    2
     5    33    35    2
     6    33    31    1
     7    31    23    1
     8    23    24   ar
     9    24    25   ar
    10    25    26   ar
    11    26    27    1
    12    26    28   ar
    13    28    21    1
    14    21    22    2
    15    21     1    1
    16     1     2   ar
    17     2     3   ar
    18     3     4   ar
    19     4     5   ar
    20     5     6   ar
    21     6     7   ar
    22     7    11    1
    23    11    12   ar
    24    12    13   ar
    25    13    14   ar
    26    14    17    1
    27    17    18    1
    28    14    15   ar
    29    15    16   ar
    30    16    19    1
    31    19    20    1
    32     7     8   ar
    33     8     9   ar
    34    28    29   ar
    35    29    30    1
    36    29    23   ar
    37     9     1   ar
    38     9     4    1
    39    16    11   ar
    40    31    32    1
    41     5    10    1
@<TRIPOS>MOLECULE
*****
 38 41 0 0 0
SMALL
GASTEIGER

@<TRIPOS>ATOM
      1 C           0.4007    1.8951   22.9712 C.ar    1  UNL1        0.0611
      2 C          -0.3316    2.5052   24.1295 C.ar    1  UNL1        0.1037
      3 N           0.3012    2.0039   25.3937 N.ar    1  UNL1       -0.2269
      4 C           1.4244    1.0840   25.0168 C.ar    1  UNL1        0.1407
      5 N           2.3992    0.2988   25.8434 N.ar    1  UNL1       -0.3374
      6 C           3.4354   -0.5535   25.1729 C.ar    1  UNL1        0.0736
      7 C           3.4969   -0.6207   23.6756 C.ar    1  UNL1        0.0216
      8 C           2.5222    0.1645   22.8490 C.ar    1  UNL1        0.0048
      9 C           1.4859    1.0168   23.5195 C.ar    1  UNL1        0.0386
     10 H           2.3588    0.3429   26.8261 H       1  UNL1        0.1674
     11 C           4.5332   -1.4730   23.0051 C.ar    1  UNL1        0.0548
     12 C           4.3307   -2.9555   22.8987 C.ar    1  UNL1        0.0095
     13 C           5.3670   -3.8078   22.2281 C.ar    1  UNL1        0.0579
     14 C           6.6059   -3.1777   21.6640 C.ar    1  UNL1        0.2275
     15 N           6.8084   -1.6952   21.7704 N.ar    1  UNL1       -0.1767
     16 C           5.7721   -0.8429   22.4410 C.ar    1  UNL1        0.2274
     17 O           7.6421   -4.0300   20.9935 O.3     1  UNL1       -0.4561
     18 C           8.4906   -4.9599   21.8091 C.3     1  UNL1        0.2542
     19 O           5.9746    0.6396   22.5474 O.3     1  UNL1       -0.4561
     20 C           5.7909    1.5102   21.3399 C.3     1  UNL1        0.2542
     21 C           0.1004    2.1234   21.5194 C.2     1  UNL1        0.2015
     22 O          -1.3171    2.3139   21.0676 O.2     1  UNL1       -0.2864
     23 C           2.6147    1.0004   18.6615 C.ar    1  UNL1        0.0920
     24 C           3.4525    2.2365   18.5192 C.ar    1  UNL1        0.0204
     25 C           3.1729    3.4348   19.3769 C.ar    1  UNL1        0.0312
     26 C           2.0556    3.3972   20.3770 C.ar    1  UNL1        0.1454
     27 F           1.7760    4.5955   21.2347 F       1  UNL1       -0.2040
     28 C           1.2178    2.1611   20.5192 C.ar    1  UNL1        0.0951
     29 C           1.4974    0.9627   19.6615 C.ar    1  UNL1        0.1598
     30 F           0.6596   -0.2734   19.8039 F       1  UNL1       -0.2026
     31 N           2.8943   -0.1980   17.8037 N.pl3   1  UNL1       -0.2166
     32 H           2.3000   -0.4124   17.0487 H       1  UNL1        0.1734
     33 S           4.0794   -1.0697   18.0964 S.O2    1  UNL1        0.0540
     34 O           4.3671   -1.1716   16.6277 O.2     1  UNL1       -0.1545
     35 O           3.7917   -0.9678   19.5650 O.2     1  UNL1       -0.1545
     36 C           5.2644   -1.9414   18.3891 C.3     1  UNL1        0.1724
     37 C           3.9247   -4.1100   18.8916 C.3     1  UNL1        0.0019
     38 C           5.1338   -3.4340   18.3164 C.3     1  UNL1        0.0273
@<TRIPOS>BOND
     1    37    38    1
     2    38    36    1
     3    36    33    1
     4    33    34    2
     5    33    35    2
     6    33    31    1
     7    31    23    1
     8    23    24   ar
     9    24    25   ar
    10    25    26   ar
    11    26    27    1
    12    26    28   ar
    13    28    21    1
    14    21    22    2
    15    21     1    1
    16     1     2   ar
    17     2     3   ar
    18     3     4   ar
    19     4     5   ar
    20     5     6   ar
    21     6     7   ar
    22     7    11    1
    23    11    12   ar
    24    12    13   ar
    25    13    14   ar
    26    14    17    1
    27    17    18    1
    28    14    15   ar
    29    15    16   ar
    30    16    19    1
    31    19    20    1
    32     7     8   ar
    33     8     9   ar
    34    28    29   ar
    35    29    30    1
    36    29    23   ar
    37     9     1   ar
    38     9     4    1
    39    16    11   ar
    40    31    32    1
    41     5    10    1
@<TRIPOS>MOLECULE
*****
 38 41 0 0 0
SMALL
GASTEIGER

@<TRIPOS>ATOM
      1 C           0.6138    2.1524   22.7751 C.ar    1  UNL1        0.0611
      2 C          -0.5587    2.6997   22.0164 C.ar    1  UNL1        0.1037
      3 N          -0.7054    1.9045   20.7530 N.ar    1  UNL1       -0.2269
      4 C           0.3765    0.8657   20.7309 C.ar    1  UNL1        0.1407
      5 N           0.7246   -0.1999   19.7342 N.ar    1  UNL1       -0.3374
      6 C           1.8880   -1.1122   19.9873 C.ar    1  UNL1        0.0736
      7 C           2.7033   -0.9590   21.2370 C.ar    1  UNL1        0.0216
      8 C           2.3552    0.1066   22.2337 C.ar    1  UNL1        0.0048
      9 C           1.1918    1.0189   21.9806 C.ar    1  UNL1        0.0386
     10 H           0.1895   -0.3004   18.9140 H       1  UNL1        0.1674
     11 C           3.8667   -1.8714   21.4901 C.ar    1  UNL1        0.0548
     12 C           3.9904   -2.5820   22.8053 C.ar    1  UNL1        0.0095
     13 C           5.1538   -3.4945   23.0583 C.ar    1  UNL1        0.0579
     14 C           6.1935   -3.6963   21.9961 C.ar    1  UNL1        0.2275
     15 N           6.0698   -2.9856   20.6809 N.ar    1  UNL1       -0.1767
     16 C           4.9065   -2.0733   20.4279 C.ar    1  UNL1        0.2274
     17 O           7.3569   -4.6086   22.2491 O.3     1  UNL1       -0.4561
     18 C           8.6313   -4.0588   22.8180 C.3     1  UNL1        0.2542
     19 O           4.7827   -1.3626   19.1127 O.3     1  UNL1       -0.4561
     20 C           5.4980   -0.0626   18.8924 C.3     1  UNL1        0.2542
     21 C           1.1195    2.6510   24.0963 C.2     1  UNL1        0.2015
     22 O           2.3436    3.5159   24.1528 O.2     1  UNL1       -0.2864
     23 C           0.1719    0.7722   27.4612 C.ar    1  UNL1        0.0920
     24 C          -1.0357    1.5516   27.8906 C.ar    1  UNL1        0.0204
     25 C          -1.5249    2.6974   27.0552 C.ar    1  UNL1        0.0312
     26 C          -0.8065    3.0639   25.7905 C.ar    1  UNL1        0.1454
     27 F          -1.2957    4.2097   24.9551 F       1  UNL1       -0.2040
     28 C           0.4011    2.2845   25.3611 C.ar    1  UNL1        0.0951
     29 C           0.8902    1.1387   26.1965 C.ar    1  UNL1        0.1598
     30 F           2.0978    0.3594   25.7670 F       1  UNL1       -0.2026
     31 N           0.6610   -0.3736   28.2966 N.pl3   1  UNL1       -0.2166
     32 H           0.1898   -1.2376   28.2712 H       1  UNL1        0.1734
     33 S           1.8681   -0.2029   29.1706 S.O2    1  UNL1        0.0540
     34 O           2.6570   -1.0908   28.2544 O.2     1  UNL1       -0.1545
     35 O           1.0792    0.6849   30.0867 O.2     1  UNL1       -0.1545
     36 C           3.0750   -0.0322   30.0446 C.3     1  UNL1        0.1724
     37 C           3.5547   -0.1674   32.5945 C.3     1  UNL1        0.0019
     38 C           3.2132   -0.8426   31.2993 C.3     1  UNL1        0.0273
@<TRIPOS>BOND
     1    37    38    1
     2    38    36    1
     3    36    33    1
     4    33    34    2
     5    33    35    2
     6    33    31    1
     7    31    23    1
     8    23    24   ar
     9    24    25   ar
    10    25    26   ar
    11    26    27    1
    12    26    28   ar
    13    28    21    1
    14    21    22    2
    15    21     1    1
    16     1     2   ar
    17     2     3   ar
    18     3     4   ar
    19     4     5   ar
    20     5     6   ar
    21     6     7   ar
    22     7    11    1
    23    11    12   ar
    24    12    13   ar
    25    13    14   ar
    26    14    17    1
    27    17    18    1
    28    14    15   ar
    29    15    16   ar
    30    16    19    1
    31    19    20    1
    32     7     8   ar
    33     8     9   ar
    34    28    29   ar
    35    29    30    1
    36    29    23   ar
    37     9     1   ar
    38     9     4    1
    39    16    11   ar
    40    31    32    1
    41     5    10    1
@<TRIPOS>MOLECULE
*****
 38 41 0 0 0
SMALL
GASTEIGER

@<TRIPOS>ATOM
      1 C           5.0981   -3.4868   22.4080 C.ar    1  UNL1        0.0611
      2 C           6.0763   -4.2884   23.2146 C.ar    1  UNL1        0.1037
      3 N           6.2072   -3.6408   24.5612 N.ar    1  UNL1       -0.2269
      4 C           5.3100   -2.4390   24.5869 C.ar    1  UNL1        0.1407
      5 N           5.0286   -1.4190   25.6501 N.ar    1  UNL1       -0.3374
      6 C           4.0617   -0.3040   25.3825 C.ar    1  UNL1        0.0736
      7 C           3.3762   -0.2088   24.0517 C.ar    1  UNL1        0.0216
      8 C           3.6576   -1.2288   22.9885 C.ar    1  UNL1        0.0048
      9 C           4.6245   -2.3438   23.2561 C.ar    1  UNL1        0.0386
     10 H           5.4785   -1.4815   26.5236 H       1  UNL1        0.1674
     11 C           2.4093    0.9064   23.7841 C.ar    1  UNL1        0.0548
     12 C           1.0530    0.8929   24.4247 C.ar    1  UNL1        0.0095
     13 C           0.0861    2.0081   24.1571 C.ar    1  UNL1        0.0579
     14 C           0.4755    3.1367   23.2490 C.ar    1  UNL1        0.2275
     15 N           1.8318    3.1501   22.6084 N.ar    1  UNL1       -0.1767
     16 C           2.7987    2.0349   22.8760 C.ar    1  UNL1        0.2274
     17 O          -0.4914    4.2518   22.9814 O.3     1  UNL1       -0.4561
     18 C          -1.9425    3.9478   22.7539 C.3     1  UNL1        0.2542
     19 O           4.1550    2.0483   22.2355 O.3     1  UNL1       -0.4561
     20 C           5.0883    3.1970   22.4794 C.3     1  UNL1        0.2542
     21 C           4.6689   -3.7772   21.0003 C.2     1  UNL1        0.2015
     22 O           3.9104   -5.0339   20.6916 O.2     1  UNL1       -0.2864
     23 C           4.2444   -1.0048   18.1925 C.ar    1  UNL1        0.0920
     24 C           5.6567   -0.8782   17.7034 C.ar    1  UNL1        0.0204
     25 C           6.7398   -1.7179   18.3132 C.ar    1  UNL1        0.0312
     26 C           6.4106   -2.6842   19.4122 C.ar    1  UNL1        0.1454
     27 F           7.4936   -3.5239   20.0220 F       1  UNL1       -0.2040
     28 C           4.9982   -2.8108   19.9013 C.ar    1  UNL1        0.0951
     29 C           3.9152   -1.9712   19.2914 C.ar    1  UNL1        0.1598
     30 F           2.5028   -2.0979   19.7806 F       1  UNL1       -0.2026
     31 N           3.1613   -0.1651   17.5826 N.pl3   1  UNL1       -0.2166
     32 H           2.9784   -0.2230   16.6170 H       1  UNL1        0.1734
     33 S           2.3570    0.7627   18.4440 S.O2    1  UNL1        0.0540
     34 O           3.6222    1.3128   19.0328 O.2     1  UNL1       -0.1545
     35 O           1.0918    0.2127   17.8552 O.2     1  UNL1       -0.1545
     36 C           1.5526    1.6906   19.3054 C.3     1  UNL1        0.1724
     37 C           0.5051   -0.1053   20.8636 C.3     1  UNL1        0.0019
     38 C           0.3791    1.1672   20.0794 C.3     1  UNL1        0.0273
@<TRIPOS>BOND
     1    37    38    1
     2    38    36    1
     3    36    33    1
     4    33    34    2
     5    33    35    2
     6    33    31    1
     7    31    23    1
     8    23    24   ar
     9    24    25   ar
    10    25    26   ar
    11    26    27    1
    12    26    28   ar
    13    28    21    1
    14    21    22    2
    15    21     1    1
    16     1     2   ar
    17     2     3   ar
    18     3     4   ar
    19     4     5   ar
    20     5     6   ar
    21     6     7   ar
    22     7    11    1
    23    11    12   ar
    24    12    13   ar
    25    13    14   ar
    26    14    17    1
    27    17    18    1
    28    14    15   ar
    29    15    16   ar
    30    16    19    1
    31    19    20    1
    32     7     8   ar
    33     8     9   ar
    34    28    29   ar
    35    29    30    1
    36    29    23   ar
    37     9     1   ar
    38     9     4    1
    39    16    11   ar
    40    31    32    1
    41     5    10    1
@<TRIPOS>MOLECULE
*****
 38 41 0 0 0
SMALL
GASTEIGER

@<TRIPOS>ATOM
      1 C           7.1602   -3.4026   28.2760 C.ar    1  UNL1        0.0611
      2 C           7.5441   -4.8311   28.0268 C.ar    1  UNL1        0.1037
      3 N           7.3462   -5.5936   29.3032 N.ar    1  UNL1       -0.2269
      4 C           6.8401   -4.6365   30.3414 C.ar    1  UNL1        0.1407
      5 N           6.4691   -4.8230   31.7827 N.ar    1  UNL1       -0.3374
      6 C           5.9831   -3.6554   32.5892 C.ar    1  UNL1        0.0736
      7 C           5.8681   -2.3013   31.9543 C.ar    1  UNL1        0.0216
      8 C           6.2391   -2.1147   30.5130 C.ar    1  UNL1        0.0048
      9 C           6.7251   -3.2823   29.7065 C.ar    1  UNL1        0.0386
     10 H           6.5445   -5.7118   32.1994 H       1  UNL1        0.1674
     11 C           5.3820   -1.1336   32.7609 C.ar    1  UNL1        0.0548
     12 C           6.3023   -0.4601   33.7352 C.ar    1  UNL1        0.0095
     13 C           5.8163    0.7075   34.5418 C.ar    1  UNL1        0.0579
     14 C           4.4100    1.2016   34.3739 C.ar    1  UNL1        0.2275
     15 N           3.4897    0.5280   33.3995 N.ar    1  UNL1       -0.1767
     16 C           3.9757   -0.6396   32.5930 C.ar    1  UNL1        0.2274
     17 O           3.9239    2.3691   35.1804 O.3     1  UNL1       -0.4561
     18 C           3.0128    2.1450   36.3507 C.3     1  UNL1        0.2542
     19 O           3.0554   -1.3132   31.6186 O.3     1  UNL1       -0.4561
     20 C           2.5957   -0.5816   30.3925 C.3     1  UNL1        0.2542
     21 C           7.2037   -2.2898   27.2712 C.2     1  UNL1        0.2015
     22 O           8.2144   -1.1905   27.4128 O.2     1  UNL1       -0.2864
     23 C           5.5403   -3.0927   23.7586 C.ar    1  UNL1        0.0920
     24 C           4.3022   -2.2490   23.8318 C.ar    1  UNL1        0.0204
     25 C           4.0313   -1.4190   25.0514 C.ar    1  UNL1        0.0312
     26 C           4.9984   -1.4325   26.1979 C.ar    1  UNL1        0.1454
     27 F           4.7275   -0.6024   27.4175 F       1  UNL1       -0.2040
     28 C           6.2365   -2.2762   26.1247 C.ar    1  UNL1        0.0951
     29 C           6.5075   -3.1062   24.9050 C.ar    1  UNL1        0.1598
     30 F           7.7456   -3.9499   24.8319 F       1  UNL1       -0.2026
     31 N           5.8113   -3.9228   22.5389 N.pl3   1  UNL1       -0.2166
     32 H           6.3209   -4.7614   22.6175 H       1  UNL1        0.1734
     33 S           5.3057   -3.4750   21.1995 S.O2    1  UNL1        0.0540
     34 O           4.3061   -4.5934   21.2030 O.2     1  UNL1       -0.1545
     35 O           6.3054   -2.3567   21.1961 O.2     1  UNL1       -0.1545
     36 C           4.8003   -3.0272   19.8602 C.3     1  UNL1        0.1724
     37 C           2.9126   -1.3680   20.5190 C.3     1  UNL1        0.0019
     38 C           3.3884   -2.5418   19.7153 C.3     1  UNL1        0.0273
@<TRIPOS>BOND
     1    37    38    1
     2    38    36    1
     3    36    33    1
     4    33    34    2
     5    33    35    2
     6    33    31    1
     7    31    23    1
     8    23    24   ar
     9    24    25   ar
    10    25    26   ar
    11    26    27    1
    12    26    28   ar
    13    28    21    1
    14    21    22    2
    15    21     1    1
    16     1     2   ar
    17     2     3   ar
    18     3     4   ar
    19     4     5   ar
    20     5     6   ar
    21     6     7   ar
    22     7    11    1
    23    11    12   ar
    24    12    13   ar
    25    13    14   ar
    26    14    17    1
    27    17    18    1
    28    14    15   ar
    29    15    16   ar
    30    16    19    1
    31    19    20    1
    32     7     8   ar
    33     8     9   ar
    34    28    29   ar
    35    29    30    1
    36    29    23   ar
    37     9     1   ar
    38     9     4    1
    39    16    11   ar
    40    31    32    1
    41     5    10    1
@<TRIPOS>MOLECULE
*****
 38 41 0 0 0
SMALL
GASTEIGER

@<TRIPOS>ATOM
      1 C           5.7817   -2.2413   23.7059 C.ar    1  UNL1        0.0611
      2 C           6.4186   -3.5941   23.8249 C.ar    1  UNL1        0.1037
      3 N           5.9727   -4.4208   22.6554 N.ar    1  UNL1       -0.2269
      4 C           5.0603   -3.5789   21.8135 C.ar    1  UNL1        0.1407
      5 N           4.3218   -3.8648   20.5397 N.ar    1  UNL1       -0.3374
      6 C           3.4651   -2.8037   19.9151 C.ar    1  UNL1        0.0736
      7 C           3.3471   -1.4566   20.5643 C.ar    1  UNL1        0.0216
      8 C           4.0856   -1.1707   21.8382 C.ar    1  UNL1        0.0048
      9 C           4.9422   -2.2318   22.4628 C.ar    1  UNL1        0.0386
     10 H           4.3993   -4.7489   20.1135 H       1  UNL1        0.1674
     11 C           2.4904   -0.3955   19.9397 C.ar    1  UNL1        0.0548
     12 C           1.0754   -0.2065   20.4002 C.ar    1  UNL1        0.0095
     13 C           0.2187    0.8546   19.7755 C.ar    1  UNL1        0.0579
     14 C           0.7771    1.7268   18.6904 C.ar    1  UNL1        0.2275
     15 N           2.1921    1.5378   18.2299 N.ar    1  UNL1       -0.1767
     16 C           3.0487    0.4767   18.8545 C.ar    1  UNL1        0.2274
     17 O          -0.0795    2.7879   18.0657 O.3     1  UNL1       -0.4561
     18 C          -0.9696    3.6355   18.9254 C.3     1  UNL1        0.2542
     19 O           4.4638    0.2877   18.3940 O.3     1  UNL1       -0.4561
     20 C           4.7431   -0.4074   17.0945 C.3     1  UNL1        0.2542
     21 C           5.9539   -1.0985   24.6621 C.2     1  UNL1        0.2015
     22 O           7.2028   -0.2686   24.6219 O.2     1  UNL1       -0.2864
     23 C           2.8532    0.6630   26.4036 C.ar    1  UNL1        0.0920
     24 C           2.7239   -0.1595   27.6513 C.ar    1  UNL1        0.0204
     25 C           3.6713   -1.2949   27.9026 C.ar    1  UNL1        0.0312
     26 C           4.7480   -1.6080   26.9063 C.ar    1  UNL1        0.1454
     27 F           5.6954   -2.7434   27.1576 F       1  UNL1       -0.2040
     28 C           4.8772   -0.7855   25.6586 C.ar    1  UNL1        0.0951
     29 C           3.9298    0.3500   25.4073 C.ar    1  UNL1        0.1598
     30 F           4.0592    1.1725   24.1595 F       1  UNL1       -0.2026
     31 N           1.9058    1.7985   26.1523 N.pl3   1  UNL1       -0.2166
     32 H           2.2008    2.5794   25.6303 H       1  UNL1        0.1734
     33 S           0.5090    1.7442   26.6964 S.O2    1  UNL1        0.0540
     34 O           0.9306    2.5878   27.8628 O.2     1  UNL1       -0.1545
     35 O           0.0874    0.9007   25.5299 O.2     1  UNL1       -0.1545
     36 C          -0.8878    1.6899   27.2404 C.3     1  UNL1        0.1724
     37 C          -1.1727   -0.4935   28.6194 C.3     1  UNL1        0.0019
     38 C          -1.1576    1.0046   28.5472 C.3     1  UNL1        0.0273
@<TRIPOS>BOND
     1    37    38    1
     2    38    36    1
     3    36    33    1
     4    33    34    2
     5    33    35    2
     6    33    31    1
     7    31    23    1
     8    23    24   ar
     9    24    25   ar
    10    25    26   ar
    11    26    27    1
    12    26    28   ar
    13    28    21    1
    14    21    22    2
    15    21     1    1
    16     1     2   ar
    17     2     3   ar
    18     3     4   ar
    19     4     5   ar
    20     5     6   ar
    21     6     7   ar
    22     7    11    1
    23    11    12   ar
    24    12    13   ar
    25    13    14   ar
    26    14    17    1
    27    17    18    1
    28    14    15   ar
    29    15    16   ar
    30    16    19    1
    31    19    20    1
    32     7     8   ar
    33     8     9   ar
    34    28    29   ar
    35    29    30    1
    36    29    23   ar
    37     9     1   ar
    38     9     4    1
    39    16    11   ar
    40    31    32    1
    41     5    10    1
@<TRIPOS>MOLECULE
*****
 38 41 0 0 0
SMALL
GASTEIGER

@<TRIPOS>ATOM
      1 C           5.6127   -2.5213   19.4341 C.ar    1  UNL1        0.0611
      2 C           6.1961   -1.7415   18.2933 C.ar    1  UNL1        0.1037
      3 N           7.6866   -1.9046   18.3346 N.ar    1  UNL1       -0.2269
      4 C           8.0244   -2.7852   19.5009 C.ar    1  UNL1        0.1407
      5 N           9.3336   -3.2892   20.0320 N.ar    1  UNL1       -0.3374
      6 C           9.3610   -4.1745   21.2426 C.ar    1  UNL1        0.0736
      7 C           8.0792   -4.5556   21.9221 C.ar    1  UNL1        0.0216
      8 C           6.7701   -4.0516   21.3911 C.ar    1  UNL1        0.0048
      9 C           6.7427   -3.1664   20.1805 C.ar    1  UNL1        0.0386
     10 H          10.1748   -3.0391   19.5860 H       1  UNL1        0.1674
     11 C           8.1067   -5.4409   23.1328 C.ar    1  UNL1        0.0548
     12 C           8.7967   -6.7714   23.0735 C.ar    1  UNL1        0.0095
     13 C           8.8241   -7.6567   24.2842 C.ar    1  UNL1        0.0579
     14 C           8.1615   -7.2113   25.5541 C.ar    1  UNL1        0.2275
     15 N           7.4715   -5.8807   25.6133 N.ar    1  UNL1       -0.1767
     16 C           7.4441   -4.9956   24.4027 C.ar    1  UNL1        0.2274
     17 O           8.1889   -8.0965   26.7647 O.3     1  UNL1       -0.4561
     18 C           8.5098   -7.5169   28.1104 C.3     1  UNL1        0.2542
     19 O           6.7541   -3.6649   24.4619 O.3     1  UNL1       -0.4561
     20 C           7.4759   -2.4695   25.0095 C.3     1  UNL1        0.2542
     21 C           4.1552   -2.6360   19.7697 C.2     1  UNL1        0.2015
     22 O           3.3540   -3.7915   19.2477 O.2     1  UNL1       -0.2864
     23 C           2.1625    0.6220   20.8490 C.ar    1  UNL1        0.0920
     24 C           2.1863    0.4871   22.3428 C.ar    1  UNL1        0.0204
     25 C           2.8665   -0.6889   22.9788 C.ar    1  UNL1        0.0312
     26 C           3.5228   -1.7299   22.1212 C.ar    1  UNL1        0.1454
     27 F           4.2029   -2.9058   22.7572 F       1  UNL1       -0.2040
     28 C           3.4989   -1.5949   20.6275 C.ar    1  UNL1        0.0951
     29 C           2.8188   -0.4190   19.9914 C.ar    1  UNL1        0.1598
     30 F           2.7949   -0.2841   18.4977 F       1  UNL1       -0.2026
     31 N           1.4823    1.7980   20.2130 N.pl3   1  UNL1       -0.2166
     32 H           1.8607    2.2053   19.4005 H       1  UNL1        0.1734
     33 S           0.2256    2.3533   20.8149 S.O2    1  UNL1        0.0540
     34 O          -0.4973    1.0831   20.4775 O.2     1  UNL1       -0.1545
     35 O           0.9486    3.6235   21.1523 O.2     1  UNL1       -0.1545
     36 C          -1.0310    2.9087   21.4168 C.3     1  UNL1        0.1724
     37 C          -2.0543    3.9823   19.2836 C.3     1  UNL1        0.0019
     38 C          -2.2196    3.1889   20.5457 C.3     1  UNL1        0.0273
@<TRIPOS>BOND
     1    37    38    1
     2    38    36    1
     3    36    33    1
     4    33    34    2
     5    33    35    2
     6    33    31    1
     7    31    23    1
     8    23    24   ar
     9    24    25   ar
    10    25    26   ar
    11    26    27    1
    12    26    28   ar
    13    28    21    1
    14    21    22    2
    15    21     1    1
    16     1     2   ar
    17     2     3   ar
    18     3     4   ar
    19     4     5   ar
    20     5     6   ar
    21     6     7   ar
    22     7    11    1
    23    11    12   ar
    24    12    13   ar
    25    13    14   ar
    26    14    17    1
    27    17    18    1
    28    14    15   ar
    29    15    16   ar
    30    16    19    1
    31    19    20    1
    32     7     8   ar
    33     8     9   ar
    34    28    29   ar
    35    29    30    1
    36    29    23   ar
    37     9     1   ar
    38     9     4    1
    39    16    11   ar
    40    31    32    1
    41     5    10    1
@<TRIPOS>MOLECULE
*****
 38 41 0 0 0
SMALL
GASTEIGER

@<TRIPOS>ATOM
      1 C           4.1535   -2.6156   21.4717 C.ar    1  UNL1        0.0611
      2 C           5.0955   -3.7120   21.8726 C.ar    1  UNL1        0.1037
      3 N           5.3433   -3.5940   23.3472 N.ar    1  UNL1       -0.2269
      4 C           4.5546   -2.4247   23.8578 C.ar    1  UNL1        0.1407
      5 N           4.4109   -1.8325   25.2284 N.ar    1  UNL1       -0.3374
      6 C           3.5319   -0.6356   25.4398 C.ar    1  UNL1        0.0736
      7 C           2.7966   -0.0309   24.2807 C.ar    1  UNL1        0.0216
      8 C           2.9402   -0.6231   22.9101 C.ar    1  UNL1        0.0048
      9 C           3.8192   -1.8200   22.6986 C.ar    1  UNL1        0.0386
     10 H           4.8936   -2.2293   25.9892 H       1  UNL1        0.1674
     11 C           1.9175    1.1661   24.4922 C.ar    1  UNL1        0.0548
     12 C           0.4544    0.9829   24.7673 C.ar    1  UNL1        0.0095
     13 C          -0.4246    2.1798   24.9788 C.ar    1  UNL1        0.0579
     14 C           0.1595    3.5599   24.9152 C.ar    1  UNL1        0.2275
     15 N           1.6227    3.7431   24.6400 N.ar    1  UNL1       -0.1767
     16 C           2.5017    2.5462   24.4285 C.ar    1  UNL1        0.2274
     17 O          -0.7194    4.7569   25.1267 O.3     1  UNL1       -0.4561
     18 C          -0.5986    5.9456   24.2200 C.3     1  UNL1        0.2542
     19 O           3.9649    2.7293   24.1534 O.3     1  UNL1       -0.4561
     20 C           4.8176    3.5032   25.1145 C.3     1  UNL1        0.2542
     21 C           3.6366   -2.3597   20.0870 C.2     1  UNL1        0.2015
     22 O           3.3328   -3.5112   19.1752 O.2     1  UNL1       -0.2864
     23 C           1.8250    1.0285   19.0927 C.ar    1  UNL1        0.0920
     24 C           2.9972    1.8628   18.6687 C.ar    1  UNL1        0.0204
     25 C           4.3825    1.2896   18.7174 C.ar    1  UNL1        0.0312
     26 C           4.5957   -0.1178   19.1902 C.ar    1  UNL1        0.1454
     27 F           5.9810   -0.6910   19.2389 F       1  UNL1       -0.2040
     28 C           3.4235   -0.9521   19.6142 C.ar    1  UNL1        0.0951
     29 C           2.0382   -0.3790   19.5655 C.ar    1  UNL1        0.1598
     30 F           0.8660   -1.2134   19.9895 F       1  UNL1       -0.2026
     31 N           0.4397    1.6016   19.0440 N.pl3   1  UNL1       -0.2166
     32 H          -0.1709    1.3519   18.3132 H       1  UNL1        0.1734
     33 S          -0.0153    2.5553   20.1086 S.O2    1  UNL1        0.0540
     34 O          -0.3076    1.3995   21.0190 O.2     1  UNL1       -0.1545
     35 O           0.2770    3.7110   19.1983 O.2     1  UNL1       -0.1545
     36 C          -0.4703    3.5089   21.1733 C.3     1  UNL1        0.1724
     37 C          -3.0479    3.6236   20.8684 C.3     1  UNL1        0.0019
     38 C          -1.8524    3.3918   21.7442 C.3     1  UNL1        0.0273
@<TRIPOS>BOND
     1    37    38    1
     2    38    36    1
     3    36    33    1
     4    33    34    2
     5    33    35    2
     6    33    31    1
     7    31    23    1
     8    23    24   ar
     9    24    25   ar
    10    25    26   ar
    11    26    27    1
    12    26    28   ar
    13    28    21    1
    14    21    22    2
    15    21     1    1
    16     1     2   ar
    17     2     3   ar
    18     3     4   ar
    19     4     5   ar
    20     5     6   ar
    21     6     7   ar
    22     7    11    1
    23    11    12   ar
    24    12    13   ar
    25    13    14   ar
    26    14    17    1
    27    17    18    1
    28    14    15   ar
    29    15    16   ar
    30    16    19    1
    31    19    20    1
    32     7     8   ar
    33     8     9   ar
    34    28    29   ar
    35    29    30    1
    36    29    23   ar
    37     9     1   ar
    38     9     4    1
    39    16    11   ar
    40    31    32    1
    41     5    10    1
@<TRIPOS>MOLECULE
*****
 38 41 0 0 0
SMALL
GASTEIGER

@<TRIPOS>ATOM
      1 C           0.7054    2.2899   22.8549 C.ar    1  UNL1        0.0611
      2 C          -0.5086    2.8088   22.1429 C.ar    1  UNL1        0.1037
      3 N          -0.7343    1.9560   20.9298 N.ar    1  UNL1       -0.2269
      4 C           0.3402    0.9100   20.8920 C.ar    1  UNL1        0.1407
      5 N           0.6232   -0.2037   19.9279 N.ar    1  UNL1       -0.3374
      6 C           1.7961   -1.1110   20.1536 C.ar    1  UNL1        0.0736
      7 C           2.6860   -0.9047   21.3434 C.ar    1  UNL1        0.0216
      8 C           2.4029    0.2090   22.3075 C.ar    1  UNL1        0.0048
      9 C           1.2300    1.1163   22.0818 C.ar    1  UNL1        0.0386
     10 H           0.0392   -0.3391   19.1470 H       1  UNL1        0.1674
     11 C           3.8589   -1.8121   21.5691 C.ar    1  UNL1        0.0548
     12 C           3.9757   -2.5822   22.8510 C.ar    1  UNL1        0.0095
     13 C           5.1486   -3.4896   23.0767 C.ar    1  UNL1        0.0579
     14 C           6.2048   -3.6268   22.0204 C.ar    1  UNL1        0.2275
     15 N           6.0880   -2.8567   20.7385 N.ar    1  UNL1       -0.1767
     16 C           4.9151   -1.9493   20.5128 C.ar    1  UNL1        0.2274
     17 O           7.3777   -4.5342   22.2460 O.3     1  UNL1       -0.4561
     18 C           8.4854   -4.5932   21.2363 C.3     1  UNL1        0.2542
     19 O           4.7983   -1.1792   19.2309 O.3     1  UNL1       -0.4561
     20 C           4.6343   -1.9082   17.9303 C.3     1  UNL1        0.2542
     21 C           1.2920    2.8467   24.1182 C.2     1  UNL1        0.2015
     22 O           1.9901    4.1741   24.0996 O.2     1  UNL1       -0.2864
     23 C           2.3054    0.7945   27.3604 C.ar    1  UNL1        0.0920
     24 C           0.9572    0.5346   27.9643 C.ar    1  UNL1        0.0204
     25 C          -0.2794    1.0454   27.2862 C.ar    1  UNL1        0.0312
     26 C          -0.1679    1.8161   26.0042 C.ar    1  UNL1        0.1454
     27 F          -1.4045    2.3268   25.3260 F       1  UNL1       -0.2040
     28 C           1.1803    2.0760   25.4003 C.ar    1  UNL1        0.0951
     29 C           2.4170    1.5652   26.0784 C.ar    1  UNL1        0.1598
     30 F           3.7652    1.8251   25.4744 F       1  UNL1       -0.2026
     31 N           3.5421    0.2837   28.0385 N.pl3   1  UNL1       -0.2166
     32 H           3.7887    0.6195   28.9305 H       1  UNL1        0.1734
     33 S           4.4029   -0.7386   27.3575 S.O2    1  UNL1        0.0540
     34 O           3.2848   -1.7351   27.4401 O.2     1  UNL1       -0.1545
     35 O           5.5210    0.2578   27.2750 O.2     1  UNL1       -0.1545
     36 C           5.2638   -1.7609   26.6766 C.3     1  UNL1        0.1724
     37 C           6.7550   -3.8841   26.8132 C.3     1  UNL1        0.0019
     38 C           6.0263   -2.7626   27.4923 C.3     1  UNL1        0.0273
@<TRIPOS>BOND
     1    37    38    1
     2    38    36    1
     3    36    33    1
     4    33    34    2
     5    33    35    2
     6    33    31    1
     7    31    23    1
     8    23    24   ar
     9    24    25   ar
    10    25    26   ar
    11    26    27    1
    12    26    28   ar
    13    28    21    1
    14    21    22    2
    15    21     1    1
    16     1     2   ar
    17     2     3   ar
    18     3     4   ar
    19     4     5   ar
    20     5     6   ar
    21     6     7   ar
    22     7    11    1
    23    11    12   ar
    24    12    13   ar
    25    13    14   ar
    26    14    17    1
    27    17    18    1
    28    14    15   ar
    29    15    16   ar
    30    16    19    1
    31    19    20    1
    32     7     8   ar
    33     8     9   ar
    34    28    29   ar
    35    29    30    1
    36    29    23   ar
    37     9     1   ar
    38     9     4    1
    39    16    11   ar
    40    31    32    1
    41     5    10    1
