@<TRIPOS>MOLECULE
*****
 30 33 0 0 0
SMALL
GASTEIGER

@<TRIPOS>ATOM
      1 N           0.3612    1.8751   21.9292 N.ar    1  UNL1       -0.2080
      2 C          -0.3771    2.9777   21.2299 C.ar    1  UNL1        0.0970
      3 C          -1.1807    3.7207   22.2557 C.ar    1  UNL1        0.0144
      4 C          -0.9390    3.0773   23.5890 C.ar    1  UNL1        0.0186
      5 C          -1.4636    3.3827   24.9606 C.ar    1  UNL1        0.0309
      6 C          -1.0352    2.5474   26.1305 C.ar    1  UNL1        0.1402
      7 F          -1.5597    2.8528   27.5023 F       1  UNL1       -0.2042
      8 C          -0.0822    1.4068   25.9288 C.ar    1  UNL1        0.0312
      9 C           0.4423    1.1013   24.5571 C.ar    1  UNL1        0.0212
     10 C           0.0139    1.9366   23.3872 C.ar    1  UNL1        0.0824
     11 S           1.2847    0.8848   21.2839 S.O2    1  UNL1        0.0860
     12 O           0.1027    0.1101   20.7813 O.2     1  UNL1       -0.1476
     13 O           2.4667    1.6595   21.7865 O.2     1  UNL1       -0.1476
     14 C           4.0553   -2.0861   19.3479 C.ar    1  UNL1       -0.0224
     15 C           3.3522   -1.0596   18.5100 C.ar    1  UNL1       -0.0029
     16 C           2.4287   -0.0694   19.1553 C.ar    1  UNL1        0.0201
     17 C           2.2082   -0.1056   20.6386 C.ar    1  UNL1        0.1277
     18 C           2.9113   -1.1320   21.4765 C.ar    1  UNL1        0.0201
     19 C           3.8348   -2.1222   20.8312 C.ar    1  UNL1       -0.0029
     20 C           4.6240   -4.5338   18.6881 C.3     1  UNL1        0.0047
     21 C           4.9788   -3.0763   18.7026 C.3     1  UNL1        0.0224
     22 C           6.2571   -2.6094   18.0719 C.3     1  UNL1        0.0047
     23 C          -2.0698    4.9002   21.9941 C.3     1  UNL1        0.1008
     24 N          -3.5059    4.8672   22.4264 N.3     1  UNL1       -0.2665
     25 C          -4.0565    5.9680   23.2838 C.3     1  UNL1        0.0899
     26 C          -5.4925    5.9351   23.7160 C.3     1  UNL1        0.0897
     27 N          -6.3779    4.8015   23.2908 N.3     1  UNL1       -0.2691
     28 C          -7.8139    4.7685   23.7229 C.3     1  UNL1        0.0897
     29 C          -5.8273    3.7007   22.4333 C.3     1  UNL1        0.0897
     30 C          -4.3913    3.7336   22.0011 C.3     1  UNL1        0.0899
@<TRIPOS>BOND
     1    20    21    1
     2    21    22    1
     3    21    14    1
     4    14    15   ar
     5    15    16   ar
     6    16    17   ar
     7    17    11    1
     8    11    12    2
     9    11    13    2
    10    11     1    1
    11     1     2   ar
    12     2     3   ar
    13     3    23    1
    14    23    24    1
    15    24    25    1
    16    25    26    1
    17    26    27    1
    18    27    28    1
    19    27    29    1
    20    29    30    1
    21     3     4   ar
    22     4     5   ar
    23     5     6   ar
    24     6     7    1
    25     6     8   ar
    26     8     9   ar
    27     9    10   ar
    28    17    18   ar
    29    18    19   ar
    30    19    14   ar
    31    10     1   ar
    32    30    24    1
    33    10     4   ar
@<TRIPOS>MOLECULE
*****
 30 33 0 0 0
SMALL
GASTEIGER

@<TRIPOS>ATOM
      1 N           0.0179    2.6637   20.0387 N.ar    1  UNL1       -0.2080
      2 C          -0.3702    3.1789   21.3930 C.ar    1  UNL1        0.0970
      3 C          -1.3136    4.3287   21.1985 C.ar    1  UNL1        0.0144
      4 C          -1.5086    4.5241   19.7241 C.ar    1  UNL1        0.0186
      5 C          -2.3292    5.5061   18.9416 C.ar    1  UNL1        0.0309
      6 C          -2.3268    5.4590   17.4424 C.ar    1  UNL1        0.1402
      7 F          -3.1474    6.4410   16.6598 F       1  UNL1       -0.2042
      8 C          -1.5038    4.4300   16.7256 C.ar    1  UNL1        0.0312
      9 C          -0.6832    3.4480   17.5081 C.ar    1  UNL1        0.0212
     10 C          -0.6856    3.4950   19.0073 C.ar    1  UNL1        0.0824
     11 S           0.9466    1.5182   19.7641 S.O2    1  UNL1        0.0860
     12 O           1.9838    2.4791   19.2633 O.2     1  UNL1       -0.1476
     13 O          -0.0906    0.5572   20.2650 O.2     1  UNL1       -0.1476
     14 C           3.7326   -1.9184   18.9402 C.ar    1  UNL1       -0.0224
     15 C           3.6220   -0.7903   17.9577 C.ar    1  UNL1       -0.0029
     16 C           2.6934    0.3552   18.2324 C.ar    1  UNL1        0.0201
     17 C           1.8753    0.3726   19.4895 C.ar    1  UNL1        0.1277
     18 C           1.9858   -0.7555   20.4720 C.ar    1  UNL1        0.0201
     19 C           2.9144   -1.9009   20.1973 C.ar    1  UNL1       -0.0029
     20 C           4.2005   -4.4735   18.8916 C.3     1  UNL1        0.0047
     21 C           4.6611   -3.0639   18.6656 C.3     1  UNL1        0.0224
     22 C           6.0503   -2.8001   18.1651 C.3     1  UNL1        0.0047
     23 C          -1.9504    5.1406   22.2872 C.3     1  UNL1        0.1008
     24 N          -3.4096    4.9730   22.5921 N.3     1  UNL1       -0.2665
     25 C          -4.2335    6.1610   22.9917 C.3     1  UNL1        0.0899
     26 C          -5.6926    5.9935   23.2966 C.3     1  UNL1        0.0897
     27 N          -6.3277    4.6379   23.2019 N.3     1  UNL1       -0.2691
     28 C          -7.7868    4.4703   23.5068 C.3     1  UNL1        0.0897
     29 C          -5.5037    3.4499   22.8024 C.3     1  UNL1        0.0897
     30 C          -4.0447    3.6174   22.4975 C.3     1  UNL1        0.0899
@<TRIPOS>BOND
     1    20    21    1
     2    21    22    1
     3    21    14    1
     4    14    15   ar
     5    15    16   ar
     6    16    17   ar
     7    17    11    1
     8    11    12    2
     9    11    13    2
    10    11     1    1
    11     1     2   ar
    12     2     3   ar
    13     3    23    1
    14    23    24    1
    15    24    25    1
    16    25    26    1
    17    26    27    1
    18    27    28    1
    19    27    29    1
    20    29    30    1
    21     3     4   ar
    22     4     5   ar
    23     5     6   ar
    24     6     7    1
    25     6     8   ar
    26     8     9   ar
    27     9    10   ar
    28    17    18   ar
    29    18    19   ar
    30    19    14   ar
    31    10     1   ar
    32    30    24    1
    33    10     4   ar
@<TRIPOS>MOLECULE
*****
 30 33 0 0 0
SMALL
GASTEIGER

@<TRIPOS>ATOM
      1 N           0.2106    1.8758   21.6540 N.ar    1  UNL1       -0.2080
      2 C          -0.6042    2.8837   20.8988 C.ar    1  UNL1        0.0970
      3 C          -1.4346    3.6444   21.8896 C.ar    1  UNL1        0.0144
      4 C          -1.1331    3.1067   23.2571 C.ar    1  UNL1        0.0186
      5 C          -1.6531    3.4713   24.6160 C.ar    1  UNL1        0.0309
      6 C          -1.1562    2.7427   25.8293 C.ar    1  UNL1        0.1402
      7 F          -1.6762    3.1072   27.1883 F       1  UNL1       -0.2042
      8 C          -0.1394    1.6496   25.6837 C.ar    1  UNL1        0.0312
      9 C           0.3806    1.2850   24.3248 C.ar    1  UNL1        0.0212
     10 C          -0.1163    2.0136   23.1115 C.ar    1  UNL1        0.0824
     11 S           1.1818    0.9011   21.0567 S.O2    1  UNL1        0.0860
     12 O           0.0420    0.0159   20.6480 O.2     1  UNL1       -0.1476
     13 O           2.3216    1.7864   21.4654 O.2     1  UNL1       -0.1476
     14 C           4.0956   -2.0228   19.2648 C.ar    1  UNL1       -0.0224
     15 C           3.7591   -2.0984   20.7246 C.ar    1  UNL1       -0.0029
     16 C           2.7878   -1.1238   21.3219 C.ar    1  UNL1        0.0201
     17 C           2.1531   -0.0735   20.4593 C.ar    1  UNL1        0.1277
     18 C           2.4896    0.0021   18.9995 C.ar    1  UNL1        0.0201
     19 C           3.4608   -0.9725   18.4023 C.ar    1  UNL1       -0.0029
     20 C           6.3469   -2.5040   18.0606 C.3     1  UNL1        0.0047
     21 C           5.0668   -2.9974   18.6675 C.3     1  UNL1        0.0224
     22 C           4.7582   -4.4652   18.6770 C.3     1  UNL1        0.0047
     23 C          -2.3976    4.7490   21.5691 C.3     1  UNL1        0.1008
     24 N          -3.0314    4.8211   20.2114 N.3     1  UNL1       -0.2665
     25 C          -2.6709    5.9348   19.2736 C.3     1  UNL1        0.0899
     26 C          -3.3047    6.0070   17.9160 C.3     1  UNL1        0.0897
     27 N          -4.2990    4.9653   17.4963 N.3     1  UNL1       -0.2691
     28 C          -4.9328    5.0373   16.1387 C.3     1  UNL1        0.0897
     29 C          -4.6595    3.8515   18.4341 C.3     1  UNL1        0.0897
     30 C          -4.0257    3.7794   19.7917 C.3     1  UNL1        0.0899
@<TRIPOS>BOND
     1    20    21    1
     2    21    22    1
     3    21    14    1
     4    14    15   ar
     5    15    16   ar
     6    16    17   ar
     7    17    11    1
     8    11    12    2
     9    11    13    2
    10    11     1    1
    11     1     2   ar
    12     2     3   ar
    13     3    23    1
    14    23    24    1
    15    24    25    1
    16    25    26    1
    17    26    27    1
    18    27    28    1
    19    27    29    1
    20    29    30    1
    21     3     4   ar
    22     4     5   ar
    23     5     6   ar
    24     6     7    1
    25     6     8   ar
    26     8     9   ar
    27     9    10   ar
    28    17    18   ar
    29    18    19   ar
    30    19    14   ar
    31    10     1   ar
    32    30    24    1
    33    10     4   ar
@<TRIPOS>MOLECULE
*****
 30 33 0 0 0
SMALL
GASTEIGER

@<TRIPOS>ATOM
      1 N           2.1034    1.7851   32.1134 N.ar    1  UNL1       -0.2080
      2 C           3.0110    0.6332   32.4285 C.ar    1  UNL1        0.0970
      3 C           3.4784    0.7855   33.8456 C.ar    1  UNL1        0.0144
      4 C           2.8596    2.0316   34.4064 C.ar    1  UNL1        0.0186
      5 C           2.9602    2.6835   35.7536 C.ar    1  UNL1        0.0309
      6 C           2.2110    3.9531   36.0301 C.ar    1  UNL1        0.1402
      7 F           2.3116    4.6051   37.3773 F       1  UNL1       -0.2042
      8 C           1.3612    4.5709   34.9596 C.ar    1  UNL1        0.0312
      9 C           1.2606    3.9190   33.6124 C.ar    1  UNL1        0.0212
     10 C           2.0098    2.6494   33.3358 C.ar    1  UNL1        0.0824
     11 S           1.4108    2.0298   30.8055 S.O2    1  UNL1        0.0860
     12 O           0.1393    1.4739   31.3748 O.2     1  UNL1       -0.1476
     13 O           2.6824    2.5858   30.2363 O.2     1  UNL1       -0.1476
     14 C          -0.6665    2.7643   26.8818 C.ar    1  UNL1       -0.0224
     15 C          -0.0031    3.8997   27.6033 C.ar    1  UNL1       -0.0029
     16 C           0.6894    3.6549   28.9112 C.ar    1  UNL1        0.0201
     17 C           0.7184    2.2746   29.4976 C.ar    1  UNL1        0.1277
     18 C           0.0549    1.1391   28.7761 C.ar    1  UNL1        0.0201
     19 C          -0.6375    1.3839   27.4683 C.ar    1  UNL1       -0.0029
     20 C          -2.7667    3.5267   25.5560 C.3     1  UNL1        0.0047
     21 C          -1.3589    3.0090   25.5739 C.3     1  UNL1        0.0224
     22 C          -0.6438    2.7361   24.2840 C.3     1  UNL1        0.0047
     23 C           4.4024   -0.1448   34.5741 C.3     1  UNL1        0.1008
     24 N           5.3574   -1.0084   33.8044 N.3     1  UNL1       -0.2665
     25 C           4.9006   -2.3278   33.2563 C.3     1  UNL1        0.0899
     26 C           5.8555   -3.1913   32.4866 C.3     1  UNL1        0.0897
     27 N           7.2672   -2.7354   32.2650 N.3     1  UNL1       -0.2691
     28 C           8.2222   -3.5988   31.4953 C.3     1  UNL1        0.0897
     29 C           7.7240   -1.4159   32.8131 C.3     1  UNL1        0.0897
     30 C           6.7691   -0.5524   33.5828 C.3     1  UNL1        0.0899
@<TRIPOS>BOND
     1    20    21    1
     2    21    22    1
     3    21    14    1
     4    14    15   ar
     5    15    16   ar
     6    16    17   ar
     7    17    11    1
     8    11    12    2
     9    11    13    2
    10    11     1    1
    11     1     2   ar
    12     2     3   ar
    13     3    23    1
    14    23    24    1
    15    24    25    1
    16    25    26    1
    17    26    27    1
    18    27    28    1
    19    27    29    1
    20    29    30    1
    21     3     4   ar
    22     4     5   ar
    23     5     6   ar
    24     6     7    1
    25     6     8   ar
    26     8     9   ar
    27     9    10   ar
    28    17    18   ar
    29    18    19   ar
    30    19    14   ar
    31    10     1   ar
    32    30    24    1
    33    10     4   ar
@<TRIPOS>MOLECULE
*****
 30 33 0 0 0
SMALL
GASTEIGER

@<TRIPOS>ATOM
      1 N           2.2265    1.8881   31.6572 N.ar    1  UNL1       -0.2080
      2 C           2.4858    2.8027   32.8176 C.ar    1  UNL1        0.0970
      3 C           3.3947    2.0905   33.7750 C.ar    1  UNL1        0.0144
      4 C           3.6972    0.7358   33.2064 C.ar    1  UNL1        0.0186
      5 C           4.5367   -0.4000   33.7113 C.ar    1  UNL1        0.0309
      6 C           4.6543   -1.6609   32.9074 C.ar    1  UNL1        0.1402
      7 F           5.4939   -2.7968   33.4123 F       1  UNL1       -0.2042
      8 C           3.9324   -1.7859   31.5985 C.ar    1  UNL1        0.0312
      9 C           3.0928   -0.6501   31.0936 C.ar    1  UNL1        0.0212
     10 C           2.9752    0.6107   31.8975 C.ar    1  UNL1        0.0824
     11 S           1.3691    2.1968   30.4658 S.O2    1  UNL1        0.0860
     12 O           2.5713    2.7180   29.7357 O.2     1  UNL1       -0.1476
     13 O           0.1669    1.6756   31.1959 O.2     1  UNL1       -0.1476
     14 C          -1.2034    3.1225   26.8914 C.ar    1  UNL1       -0.0224
     15 C          -1.1184    1.7178   27.4108 C.ar    1  UNL1       -0.0029
     16 C          -0.2609    1.4093   28.6022 C.ar    1  UNL1        0.0201
     17 C           0.5116    2.5054   29.2743 C.ar    1  UNL1        0.1277
     18 C           0.4267    3.9100   28.7549 C.ar    1  UNL1        0.0201
     19 C          -0.4307    4.2186   27.5636 C.ar    1  UNL1       -0.0029
     20 C          -1.4861    3.3363   24.3177 C.3     1  UNL1        0.0047
     21 C          -2.0608    3.4311   25.7000 C.3     1  UNL1        0.0224
     22 C          -3.4928    3.8345   25.8908 C.3     1  UNL1        0.0047
     23 C           3.9106    2.6370   35.0731 C.3     1  UNL1        0.1008
     24 N           3.0834    2.5173   36.3189 N.3     1  UNL1       -0.2665
     25 C           2.0964    3.5909   36.6698 C.3     1  UNL1        0.0899
     26 C           1.2694    3.4713   37.9154 C.3     1  UNL1        0.0897
     27 N           1.4293    2.2780   38.8101 N.3     1  UNL1       -0.2691
     28 C           0.6023    2.1583   40.0558 C.3     1  UNL1        0.0897
     29 C           2.4163    1.2044   38.4592 C.3     1  UNL1        0.0897
     30 C           3.2434    1.3240   37.2135 C.3     1  UNL1        0.0899
@<TRIPOS>BOND
     1    20    21    1
     2    21    22    1
     3    21    14    1
     4    14    15   ar
     5    15    16   ar
     6    16    17   ar
     7    17    11    1
     8    11    12    2
     9    11    13    2
    10    11     1    1
    11     1     2   ar
    12     2     3   ar
    13     3    23    1
    14    23    24    1
    15    24    25    1
    16    25    26    1
    17    26    27    1
    18    27    28    1
    19    27    29    1
    20    29    30    1
    21     3     4   ar
    22     4     5   ar
    23     5     6   ar
    24     6     7    1
    25     6     8   ar
    26     8     9   ar
    27     9    10   ar
    28    17    18   ar
    29    18    19   ar
    30    19    14   ar
    31    10     1   ar
    32    30    24    1
    33    10     4   ar
@<TRIPOS>MOLECULE
*****
 30 33 0 0 0
SMALL
GASTEIGER

@<TRIPOS>ATOM
      1 N          -0.1458    2.3706   20.1111 N.ar    1  UNL1       -0.2080
      2 C          -0.6890    2.6985   21.4702 C.ar    1  UNL1        0.0970
      3 C          -1.6684    3.8245   21.3187 C.ar    1  UNL1        0.0144
      4 C          -1.7305    4.1925   19.8658 C.ar    1  UNL1        0.0186
      5 C          -2.5223    5.2297   19.1261 C.ar    1  UNL1        0.0309
      6 C          -2.3730    5.3683   17.6401 C.ar    1  UNL1        0.1402
      7 F          -3.1649    6.4056   16.9003 F       1  UNL1       -0.2042
      8 C          -1.4320    4.4698   16.8937 C.ar    1  UNL1        0.0312
      9 C          -0.6402    3.4326   17.6334 C.ar    1  UNL1        0.0212
     10 C          -0.7894    3.2939   19.1195 C.ar    1  UNL1        0.0824
     11 S           0.8638    1.3063   19.7983 S.O2    1  UNL1        0.0860
     12 O           1.8059    2.3521   19.2802 O.2     1  UNL1       -0.1476
     13 O          -0.0783    0.2603   20.3164 O.2     1  UNL1       -0.1476
     14 C           3.8926   -1.8869   18.8600 C.ar    1  UNL1       -0.0224
     15 C           3.7182   -0.7223   17.9308 C.ar    1  UNL1       -0.0029
     16 C           2.7086    0.3420   18.2436 C.ar    1  UNL1        0.0201
     17 C           1.8734    0.2418   19.4856 C.ar    1  UNL1        0.1277
     18 C           2.0478   -0.9228   20.4147 C.ar    1  UNL1        0.0201
     19 C           3.0574   -1.9871   20.1020 C.ar    1  UNL1       -0.0029
     20 C           4.5548   -4.3967   18.7482 C.3     1  UNL1        0.0047
     21 C           4.9021   -2.9513   18.5473 C.3     1  UNL1        0.0224
     22 C           6.2590   -2.5705   18.0337 C.3     1  UNL1        0.0047
     23 C          -2.4488    4.4692   22.4256 C.3     1  UNL1        0.1008
     24 N          -1.8946    4.4919   23.8194 N.3     1  UNL1       -0.2665
     25 C          -2.5073    3.6313   24.8842 C.3     1  UNL1        0.0899
     26 C          -1.9533    3.6539   26.2779 C.3     1  UNL1        0.0897
     27 N          -0.7864    4.5373   26.6068 N.3     1  UNL1       -0.2691
     28 C          -0.2323    4.5600   28.0005 C.3     1  UNL1        0.0897
     29 C          -0.1738    5.3980   25.5420 C.3     1  UNL1        0.0897
     30 C          -0.7278    5.3753   24.1483 C.3     1  UNL1        0.0899
@<TRIPOS>BOND
     1    20    21    1
     2    21    22    1
     3    21    14    1
     4    14    15   ar
     5    15    16   ar
     6    16    17   ar
     7    17    11    1
     8    11    12    2
     9    11    13    2
    10    11     1    1
    11     1     2   ar
    12     2     3   ar
    13     3    23    1
    14    23    24    1
    15    24    25    1
    16    25    26    1
    17    26    27    1
    18    27    28    1
    19    27    29    1
    20    29    30    1
    21     3     4   ar
    22     4     5   ar
    23     5     6   ar
    24     6     7    1
    25     6     8   ar
    26     8     9   ar
    27     9    10   ar
    28    17    18   ar
    29    18    19   ar
    30    19    14   ar
    31    10     1   ar
    32    30    24    1
    33    10     4   ar
@<TRIPOS>MOLECULE
*****
 30 33 0 0 0
SMALL
GASTEIGER

@<TRIPOS>ATOM
      1 N           2.9591    0.5420   25.3760 N.ar    1  UNL1       -0.2080
      2 C           3.9171    0.8543   26.4871 C.ar    1  UNL1        0.0970
      3 C           3.2137    1.7432   27.4695 C.ar    1  UNL1        0.0144
      4 C           1.8209    1.9803   26.9654 C.ar    1  UNL1        0.0186
      5 C           0.6756    2.7762   27.5175 C.ar    1  UNL1        0.0309
      6 C          -0.6270    2.8297   26.7756 C.ar    1  UNL1        0.1402
      7 F          -1.7723    3.6257   27.3277 F       1  UNL1       -0.2042
      8 C          -0.7843    2.0873   25.4818 C.ar    1  UNL1        0.0312
      9 C           0.3610    1.2914   24.9297 C.ar    1  UNL1        0.0212
     10 C           1.6636    1.2378   25.6716 C.ar    1  UNL1        0.0824
     11 S           3.2462   -0.3157   24.1793 S.O2    1  UNL1        0.0860
     12 O           2.9227    0.8370   23.2756 O.2     1  UNL1       -0.1476
     13 O           3.5697   -1.4684   25.0830 O.2     1  UNL1       -0.1476
     14 C           4.1076   -2.8889   20.5895 C.ar    1  UNL1       -0.0224
     15 C           4.6398   -3.2785   21.9367 C.ar    1  UNL1       -0.0029
     16 C           4.3526   -2.4208   23.1333 C.ar    1  UNL1        0.0201
     17 C           3.5333   -1.1734   22.9826 C.ar    1  UNL1        0.1277
     18 C           3.0011   -0.7837   21.6354 C.ar    1  UNL1        0.0201
     19 C           3.2883   -1.6414   20.4389 C.ar    1  UNL1       -0.0029
     20 C           5.3471   -3.2672   18.3377 C.3     1  UNL1        0.0047
     21 C           4.3947   -3.7466   19.3929 C.3     1  UNL1        0.0224
     22 C           3.7295   -5.0835   19.2513 C.3     1  UNL1        0.0047
     23 C           3.8000    2.2977   28.7339 C.3     1  UNL1        0.1008
     24 N           3.9013    1.4334   29.9557 N.3     1  UNL1       -0.2665
     25 C           3.0937    0.1730   30.0519 C.3     1  UNL1        0.0899
     26 C           3.1950   -0.6913   31.2736 C.3     1  UNL1        0.0897
     27 N           4.1039   -0.2952   32.3992 N.3     1  UNL1       -0.2691
     28 C           4.2052   -1.1594   33.6210 C.3     1  UNL1        0.0897
     29 C           4.9115    0.9652   32.3031 C.3     1  UNL1        0.0897
     30 C           4.8102    1.8295   31.0813 C.3     1  UNL1        0.0899
@<TRIPOS>BOND
     1    20    21    1
     2    21    22    1
     3    21    14    1
     4    14    15   ar
     5    15    16   ar
     6    16    17   ar
     7    17    11    1
     8    11    12    2
     9    11    13    2
    10    11     1    1
    11     1     2   ar
    12     2     3   ar
    13     3    23    1
    14    23    24    1
    15    24    25    1
    16    25    26    1
    17    26    27    1
    18    27    28    1
    19    27    29    1
    20    29    30    1
    21     3     4   ar
    22     4     5   ar
    23     5     6   ar
    24     6     7    1
    25     6     8   ar
    26     8     9   ar
    27     9    10   ar
    28    17    18   ar
    29    18    19   ar
    30    19    14   ar
    31    10     1   ar
    32    30    24    1
    33    10     4   ar
@<TRIPOS>MOLECULE
*****
 30 33 0 0 0
SMALL
GASTEIGER

@<TRIPOS>ATOM
      1 N           5.8579   -1.8508   27.0971 N.ar    1  UNL1       -0.2080
      2 C           6.0270   -0.5217   27.7716 C.ar    1  UNL1        0.0970
      3 C           6.4579   -0.7715   29.1865 C.ar    1  UNL1        0.0144
      4 C           6.5552   -2.2549   29.3864 C.ar    1  UNL1        0.0186
      5 C           6.9335   -3.0845   30.5775 C.ar    1  UNL1        0.0309
      6 C           6.9410   -4.5811   30.4772 C.ar    1  UNL1        0.1402
      7 F           7.3193   -5.4107   31.6683 F       1  UNL1       -0.2042
      8 C           6.5701   -5.2481   29.1858 C.ar    1  UNL1        0.0312
      9 C           6.1918   -4.4186   27.9948 C.ar    1  UNL1        0.0212
     10 C           6.1843   -2.9220   28.0951 C.ar    1  UNL1        0.0824
     11 S           5.4364   -2.0702   25.6743 S.O2    1  UNL1        0.0860
     12 O           6.8465   -2.4312   25.3122 O.2     1  UNL1       -0.1476
     13 O           4.0262   -1.7091   26.0364 O.2     1  UNL1       -0.1476
     14 C           4.1715   -2.7281   21.4061 C.ar    1  UNL1       -0.0224
     15 C           3.6757   -1.5293   22.1590 C.ar    1  UNL1       -0.0029
     16 C           4.0973   -1.3100   23.5817 C.ar    1  UNL1        0.0201
     17 C           5.0148   -2.2896   24.2516 C.ar    1  UNL1        0.1277
     18 C           5.5106   -3.4884   23.4987 C.ar    1  UNL1        0.0201
     19 C           5.0890   -3.7077   22.0760 C.ar    1  UNL1       -0.0029
     20 C           3.6325   -4.3417   19.4425 C.3     1  UNL1        0.0047
     21 C           3.7500   -2.9475   19.9834 C.3     1  UNL1        0.0224
     22 C           3.4458   -1.7729   19.1016 C.3     1  UNL1        0.0047
     23 C           6.7417    0.2779   30.2200 C.3     1  UNL1        0.1008
     24 N           6.2364    0.1060   31.6219 N.3     1  UNL1       -0.2665
     25 C           7.2044    0.0472   32.7662 C.3     1  UNL1        0.0899
     26 C           6.6991   -0.1247   34.1680 C.3     1  UNL1        0.0897
     27 N           5.2257   -0.2379   34.4255 N.3     1  UNL1       -0.2691
     28 C           4.7204   -0.4098   35.8273 C.3     1  UNL1        0.0897
     29 C           4.2577   -0.1791   33.2812 C.3     1  UNL1        0.0897
     30 C           4.7630   -0.0072   31.8794 C.3     1  UNL1        0.0899
@<TRIPOS>BOND
     1    20    21    1
     2    21    22    1
     3    21    14    1
     4    14    15   ar
     5    15    16   ar
     6    16    17   ar
     7    17    11    1
     8    11    12    2
     9    11    13    2
    10    11     1    1
    11     1     2   ar
    12     2     3   ar
    13     3    23    1
    14    23    24    1
    15    24    25    1
    16    25    26    1
    17    26    27    1
    18    27    28    1
    19    27    29    1
    20    29    30    1
    21     3     4   ar
    22     4     5   ar
    23     5     6   ar
    24     6     7    1
    25     6     8   ar
    26     8     9   ar
    27     9    10   ar
    28    17    18   ar
    29    18    19   ar
    30    19    14   ar
    31    10     1   ar
    32    30    24    1
    33    10     4   ar
@<TRIPOS>MOLECULE
*****
 30 33 0 0 0
SMALL
GASTEIGER

@<TRIPOS>ATOM
      1 N           3.6549   -0.0866   31.7683 N.ar    1  UNL1       -0.2080
      2 C           3.5529    0.2212   33.2328 C.ar    1  UNL1        0.0970
      3 C           4.6686   -0.4939   33.9355 C.ar    1  UNL1        0.0144
      4 C           5.4602   -1.2437   32.9052 C.ar    1  UNL1        0.0186
      5 C           6.6705   -2.1231   33.0137 C.ar    1  UNL1        0.0309
      6 C           7.2542   -2.7507   31.7828 C.ar    1  UNL1        0.1402
      7 F           8.4646   -3.6301   31.8912 F       1  UNL1       -0.2042
      8 C           6.6277   -2.4989   30.4433 C.ar    1  UNL1        0.0312
      9 C           5.4174   -1.6195   30.3348 C.ar    1  UNL1        0.0212
     10 C           4.8336   -0.9919   31.5658 C.ar    1  UNL1        0.0824
     11 S           2.7390    0.4217   30.6946 S.O2    1  UNL1        0.0860
     12 O           2.0243   -0.8969   30.6800 O.2     1  UNL1       -0.1476
     13 O           3.4536    1.7405   30.7093 O.2     1  UNL1       -0.1476
     14 C          -0.0087    1.9471   27.4737 C.ar    1  UNL1       -0.0224
     15 C           1.1476    2.7854   27.9322 C.ar    1  UNL1       -0.0029
     16 C           2.0635    2.2769   29.0058 C.ar    1  UNL1        0.0201
     17 C           1.8230    0.9301   29.6210 C.ar    1  UNL1        0.1277
     18 C           0.6667    0.0918   29.1625 C.ar    1  UNL1        0.0201
     19 C          -0.2491    0.6002   28.0889 C.ar    1  UNL1       -0.0029
     20 C          -2.1682    3.2083   26.7698 C.3     1  UNL1        0.0047
     21 C          -0.9245    2.4554   26.4001 C.3     1  UNL1        0.0224
     22 C          -0.5969    2.2110   24.9569 C.3     1  UNL1        0.0047
     23 C           4.9444   -0.4645   35.4096 C.3     1  UNL1        0.1008
     24 N           4.7079    0.7933   36.1920 N.3     1  UNL1       -0.2665
     25 C           3.7825    0.7795   37.3724 C.3     1  UNL1        0.0899
     26 C           3.5459    2.0372   38.1547 C.3     1  UNL1        0.0897
     27 N           4.2348    3.3088   37.7566 N.3     1  UNL1       -0.2691
     28 C           3.9982    4.5666   38.5389 C.3     1  UNL1        0.0897
     29 C           5.1601    3.3227   36.5761 C.3     1  UNL1        0.0897
     30 C           5.3967    2.0649   35.7938 C.3     1  UNL1        0.0899
@<TRIPOS>BOND
     1    20    21    1
     2    21    22    1
     3    21    14    1
     4    14    15   ar
     5    15    16   ar
     6    16    17   ar
     7    17    11    1
     8    11    12    2
     9    11    13    2
    10    11     1    1
    11     1     2   ar
    12     2     3   ar
    13     3    23    1
    14    23    24    1
    15    24    25    1
    16    25    26    1
    17    26    27    1
    18    27    28    1
    19    27    29    1
    20    29    30    1
    21     3     4   ar
    22     4     5   ar
    23     5     6   ar
    24     6     7    1
    25     6     8   ar
    26     8     9   ar
    27     9    10   ar
    28    17    18   ar
    29    18    19   ar
    30    19    14   ar
    31    10     1   ar
    32    30    24    1
    33    10     4   ar
