@<TRIPOS>MOLECULE
*****
 39 43 0 0 0
SMALL
GASTEIGER

@<TRIPOS>ATOM
      1 C          -0.0860    2.7719   20.7936 C.3     1  UNL1        0.1631
      2 N          -0.9601    3.1262   21.9600 N.ar    1  UNL1       -0.3047
      3 C          -2.2622    3.8678   21.8927 C.ar    1  UNL1        0.1441
      4 N          -2.7924    4.0011   23.2896 N.ar    1  UNL1       -0.2267
      5 C          -1.8179    3.3419   24.2201 C.ar    1  UNL1        0.1010
      6 C          -1.8154    3.1641   25.7095 C.ar    1  UNL1        0.0526
      7 C          -0.6805    2.4456   26.3772 C.ar    1  UNL1        0.1690
      8 F          -0.6781    2.2678   27.8667 F       1  UNL1       -0.2017
      9 C           0.4519    1.9049   25.5555 C.ar    1  UNL1        0.1689
     10 F           1.5868    1.1864   26.2232 F       1  UNL1       -0.2017
     11 C           0.4494    2.0827   24.0661 C.ar    1  UNL1        0.0507
     12 C          -0.6855    2.8012   23.3984 C.ar    1  UNL1        0.0816
     13 C          -2.9188    4.3853   20.6473 C.ar    1  UNL1        0.0342
     14 C          -3.7675    3.4729   19.8124 C.ar    1  UNL1        0.0039
     15 C          -4.4241    3.9903   18.5670 C.ar    1  UNL1        0.0115
     16 C          -4.2320    5.4201   18.1565 C.ar    1  UNL1        0.0577
     17 CL         -4.8887    5.9376   16.9110 Cl      1  UNL1       -0.0822
     18 C          -3.3833    6.3326   18.9914 C.ar    1  UNL1        0.0115
     19 C          -2.7267    5.8152   20.2368 C.ar    1  UNL1        0.0039
     20 C           0.1371    3.7672   19.6939 C.3     1  UNL1        0.0297
     21 C          -0.3793    3.4881   18.3135 C.3     1  UNL1        0.0024
     22 C          -0.1562    4.4835   17.2137 C.3     1  UNL1        0.0001
     23 C           0.5833    5.7580   17.4943 C.3     1  UNL1        0.0000
     24 C           1.0997    6.0372   18.8747 C.3     1  UNL1        0.0001
     25 C           0.8766    5.0418   19.9744 C.3     1  UNL1        0.0024
     26 N           2.0607    1.3116   20.6944 N.am    1  UNL1       -0.2826
     27 C           0.5651    1.4221   20.7270 C.2     1  UNL1        0.2468
     28 O          -0.2794    0.1830   20.6928 O.2     1  UNL1       -0.2727
     29 H           2.6150    2.1250   20.7168 H       1  UNL1        0.1549
     30 C           2.7507    0.1087   18.0342 C.3     1  UNL1        0.0323
     31 C           3.0566   -0.6396   19.2977 C.ar    1  UNL1       -0.0083
     32 C           3.7076   -1.9893   19.2312 C.ar    1  UNL1       -0.0019
     33 C           4.0136   -2.7376   20.4947 C.ar    1  UNL1        0.0138
     34 C           3.6685   -2.1361   21.8248 C.ar    1  UNL1        0.0024
     35 C           3.0175   -0.7863   21.8914 C.ar    1  UNL1        0.0144
     36 C           2.7116   -0.0381   20.6278 C.ar    1  UNL1        0.0463
     37 C           4.6645   -4.0873   20.4281 C.2     1  UNL1        0.0729
     38 O           6.1240   -4.2325   20.7422 O.co2   1  UNL1       -0.5446
     39 O           3.8558   -5.2920   20.0473 O.co2   1  UNL1       -0.5446
@<TRIPOS>UNITY_ATOM_ATTR
38 1
charge -1
@<TRIPOS>BOND
     1    30    31    1
     2    31    32   ar
     3    32    33   ar
     4    33    37    1
     5    37    38   ar
     6    37    39   ar
     7    33    34   ar
     8    34    35   ar
     9    35    36   ar
    10    36    26    1
    11    26    27   am
    12    27    28    2
    13    27     1    1
    14     1    20    1
    15    20    21    1
    16    21    22    1
    17    22    23    1
    18    23    24    1
    19    24    25    1
    20     1     2    1
    21     2     3   ar
    22     3    13    1
    23    13    14   ar
    24    14    15   ar
    25    15    16   ar
    26    16    17    1
    27    16    18   ar
    28    18    19   ar
    29     3     4   ar
    30     4     5   ar
    31     5     6   ar
    32     6     7   ar
    33     7     8    1
    34     7     9   ar
    35     9    10    1
    36     9    11   ar
    37    11    12   ar
    38    36    31   ar
    39    25    20    1
    40    12     2   ar
    41    19    13   ar
    42    12     5   ar
    43    26    29    1
@<TRIPOS>MOLECULE
*****
 39 43 0 0 0
SMALL
GASTEIGER

@<TRIPOS>ATOM
      1 C          -0.3059    2.7338   20.4619 C.3     1  UNL1        0.1631
      2 N          -1.3153    3.0961   21.5106 N.ar    1  UNL1       -0.3047
      3 C          -1.0509    3.2254   22.9815 C.ar    1  UNL1        0.1441
      4 N          -2.3384    3.6020   23.6526 N.ar    1  UNL1       -0.2267
      5 C          -3.3986    3.7054   22.5965 C.ar    1  UNL1        0.1010
      6 C          -4.8581    4.0439   22.6692 C.ar    1  UNL1        0.0526
      7 C          -5.6853    4.0698   21.4181 C.ar    1  UNL1        0.1690
      8 F          -7.1448    4.4083   21.4909 F       1  UNL1       -0.2017
      9 C          -5.0529    3.7572   20.0943 C.ar    1  UNL1        0.1689
     10 F          -5.8801    3.7830   18.8433 F       1  UNL1       -0.2017
     11 C          -3.5935    3.4187   20.0216 C.ar    1  UNL1        0.0507
     12 C          -2.7663    3.3928   21.2727 C.ar    1  UNL1        0.0816
     13 C           0.2693    3.0150   23.6618 C.ar    1  UNL1        0.0342
     14 C           1.3042    4.1007   23.6427 C.ar    1  UNL1        0.0039
     15 C           2.6244    3.8903   24.3230 C.ar    1  UNL1        0.0115
     16 C           2.9097    2.5944   25.0222 C.ar    1  UNL1        0.0577
     17 CL          4.2300    2.3840   25.7025 Cl      1  UNL1       -0.0822
     18 C           1.8749    1.5087   25.0413 C.ar    1  UNL1        0.0115
     19 C           0.5547    1.7190   24.3610 C.ar    1  UNL1        0.0039
     20 C          -0.0231    3.6813   19.3340 C.3     1  UNL1        0.0297
     21 C           0.8181    4.9003   19.5715 C.3     1  UNL1        0.0024
     22 C           1.1009    5.8478   18.4435 C.3     1  UNL1        0.0001
     23 C           0.5426    5.5763   17.0781 C.3     1  UNL1        0.0000
     24 C          -0.2987    4.3572   16.8405 C.3     1  UNL1        0.0001
     25 C          -0.5815    3.4098   17.9685 C.3     1  UNL1        0.0024
     26 N           1.9203    1.3984   20.5666 N.am    1  UNL1       -0.2826
     27 C           0.4207    1.4239   20.5410 C.2     1  UNL1        0.2468
     28 O          -0.3523    0.1395   20.5946 O.2     1  UNL1       -0.2727
     29 H           2.4276    2.2413   20.5315 H       1  UNL1        0.1549
     30 C           2.8116    0.0231   18.0538 C.3     1  UNL1        0.0323
     31 C           3.0924   -0.5992   19.3894 C.ar    1  UNL1       -0.0083
     32 C           3.8189   -1.9091   19.4687 C.ar    1  UNL1       -0.0019
     33 C           4.0998   -2.5315   20.8043 C.ar    1  UNL1        0.0138
     34 C           3.6541   -1.8438   22.0607 C.ar    1  UNL1        0.0024
     35 C           2.9276   -0.5338   21.9814 C.ar    1  UNL1        0.0144
     36 C           2.6468    0.0885   20.6458 C.ar    1  UNL1        0.0463
     37 C           4.8263   -3.8414   20.8835 C.2     1  UNL1        0.0729
     38 O           4.7853   -4.7930   19.7247 O.co2   1  UNL1       -0.5446
     39 O           5.5938   -4.1996   22.1214 O.co2   1  UNL1       -0.5446
@<TRIPOS>UNITY_ATOM_ATTR
38 1
charge -1
@<TRIPOS>BOND
     1    30    31    1
     2    31    32   ar
     3    32    33   ar
     4    33    37    1
     5    37    38   ar
     6    37    39   ar
     7    33    34   ar
     8    34    35   ar
     9    35    36   ar
    10    36    26    1
    11    26    27   am
    12    27    28    2
    13    27     1    1
    14     1    20    1
    15    20    21    1
    16    21    22    1
    17    22    23    1
    18    23    24    1
    19    24    25    1
    20     1     2    1
    21     2     3   ar
    22     3    13    1
    23    13    14   ar
    24    14    15   ar
    25    15    16   ar
    26    16    17    1
    27    16    18   ar
    28    18    19   ar
    29     3     4   ar
    30     4     5   ar
    31     5     6   ar
    32     6     7   ar
    33     7     8    1
    34     7     9   ar
    35     9    10    1
    36     9    11   ar
    37    11    12   ar
    38    36    31   ar
    39    25    20    1
    40    12     2   ar
    41    19    13   ar
    42    12     5   ar
    43    26    29    1
@<TRIPOS>MOLECULE
*****
 39 43 0 0 0
SMALL
GASTEIGER

@<TRIPOS>ATOM
      1 C          -0.2888    3.4281   21.9924 C.3     1  UNL1        0.1631
      2 N          -1.7471    3.4600   22.3426 N.ar    1  UNL1       -0.3047
      3 C          -2.3221    3.4284   23.7276 C.ar    1  UNL1        0.1441
      4 N          -3.8167    3.4780   23.6102 N.ar    1  UNL1       -0.2267
      5 C          -4.1653    3.5401   22.1526 C.ar    1  UNL1        0.1010
      6 C          -5.4822    3.6054   21.4374 C.ar    1  UNL1        0.0526
      7 C          -5.5201    3.6596   19.9389 C.ar    1  UNL1        0.1690
      8 F          -6.8371    3.7249   19.2238 F       1  UNL1       -0.2017
      9 C          -4.2410    3.6485   19.1554 C.ar    1  UNL1        0.1689
     10 F          -4.2788    3.7027   17.6569 F       1  UNL1       -0.2017
     11 C          -2.9240    3.5832   19.8706 C.ar    1  UNL1        0.0507
     12 C          -2.8862    3.5290   21.3691 C.ar    1  UNL1        0.0816
     13 C          -1.5399    3.3594   25.0056 C.ar    1  UNL1        0.0342
     14 C          -0.8131    2.0998   25.3730 C.ar    1  UNL1        0.0039
     15 C          -0.0308    2.0308   26.6510 C.ar    1  UNL1        0.0115
     16 C           0.0245    3.2214   27.5616 C.ar    1  UNL1        0.0577
     17 CL          0.8067    3.1523   28.8397 Cl      1  UNL1       -0.0822
     18 C          -0.7024    4.4810   27.1943 C.ar    1  UNL1        0.0115
     19 C          -1.4846    4.5501   25.9163 C.ar    1  UNL1        0.0039
     20 C           0.5776    4.6183   22.2795 C.3     1  UNL1        0.0297
     21 C           0.6352    5.7567   21.3045 C.3     1  UNL1        0.0024
     22 C           1.5018    6.9470   21.5916 C.3     1  UNL1        0.0001
     23 C           2.3107    6.9988   22.8537 C.3     1  UNL1        0.0000
     24 C           2.2532    5.8604   23.8287 C.3     1  UNL1        0.0001
     25 C           1.3866    4.6702   23.5416 C.3     1  UNL1        0.0024
     26 N           1.7908    2.0810   21.2108 N.am    1  UNL1       -0.2826
     27 C           0.3029    2.2058   21.3552 C.2     1  UNL1        0.2468
     28 O          -0.5931    1.1084   20.8625 O.2     1  UNL1       -0.2727
     29 H           2.3789    2.8012   21.5342 H       1  UNL1        0.1549
     30 C           2.6157   -0.2479   22.9126 C.3     1  UNL1        0.0323
     31 C           2.7949   -0.3056   21.4244 C.ar    1  UNL1       -0.0083
     32 C           3.3866   -1.5278   20.7871 C.ar    1  UNL1       -0.0019
     33 C           3.5658   -1.5857   19.2990 C.ar    1  UNL1        0.0138
     34 C           3.1534   -0.4213   18.4481 C.ar    1  UNL1        0.0024
     35 C           2.5616    0.8010   19.0854 C.ar    1  UNL1        0.0144
     36 C           2.3824    0.8588   20.5736 C.ar    1  UNL1        0.0463
     37 C           4.1575   -2.8079   18.6618 C.2     1  UNL1        0.0729
     38 O           3.5645   -4.1582   18.9356 O.co2   1  UNL1       -0.5446
     39 O           5.3422   -2.6797   17.7507 O.co2   1  UNL1       -0.5446
@<TRIPOS>UNITY_ATOM_ATTR
38 1
charge -1
@<TRIPOS>BOND
     1    30    31    1
     2    31    32   ar
     3    32    33   ar
     4    33    37    1
     5    37    38   ar
     6    37    39   ar
     7    33    34   ar
     8    34    35   ar
     9    35    36   ar
    10    36    26    1
    11    26    27   am
    12    27    28    2
    13    27     1    1
    14     1    20    1
    15    20    21    1
    16    21    22    1
    17    22    23    1
    18    23    24    1
    19    24    25    1
    20     1     2    1
    21     2     3   ar
    22     3    13    1
    23    13    14   ar
    24    14    15   ar
    25    15    16   ar
    26    16    17    1
    27    16    18   ar
    28    18    19   ar
    29     3     4   ar
    30     4     5   ar
    31     5     6   ar
    32     6     7   ar
    33     7     8    1
    34     7     9   ar
    35     9    10    1
    36     9    11   ar
    37    11    12   ar
    38    36    31   ar
    39    25    20    1
    40    12     2   ar
    41    19    13   ar
    42    12     5   ar
    43    26    29    1
@<TRIPOS>MOLECULE
*****
 39 43 0 0 0
SMALL
GASTEIGER

@<TRIPOS>ATOM
      1 C           5.7470   -1.5779   28.8461 C.3     1  UNL1        0.1631
      2 N           6.2520   -2.9025   29.3363 N.ar    1  UNL1       -0.3047
      3 C           6.4134   -3.3083   30.7713 C.ar    1  UNL1        0.1441
      4 N           6.9454   -4.7105   30.7994 N.ar    1  UNL1       -0.2267
      5 C           7.1128   -5.1713   29.3818 C.ar    1  UNL1        0.1010
      6 C           7.6001   -6.4640   28.7975 C.ar    1  UNL1        0.0526
      7 C           7.6588   -6.6393   27.3089 C.ar    1  UNL1        0.1690
      8 F           8.1462   -7.9321   26.7246 F       1  UNL1       -0.2017
      9 C           7.2303   -5.5219   26.4046 C.ar    1  UNL1        0.1689
     10 F           7.2890   -5.6972   24.9160 F       1  UNL1       -0.2017
     11 C           6.7430   -4.2292   26.9889 C.ar    1  UNL1        0.0507
     12 C           6.6842   -4.0539   28.4775 C.ar    1  UNL1        0.0816
     13 C           6.0981   -2.4608   31.9680 C.ar    1  UNL1        0.0342
     14 C           4.6989   -2.4144   32.5066 C.ar    1  UNL1        0.0039
     15 C           4.3837   -1.5668   33.7034 C.ar    1  UNL1        0.0115
     16 C           5.4675   -0.7657   34.3615 C.ar    1  UNL1        0.0577
     17 CL          5.1522    0.0820   35.5583 Cl      1  UNL1       -0.0822
     18 C           6.8667   -0.8120   33.8229 C.ar    1  UNL1        0.0115
     19 C           7.1820   -1.6595   32.6262 C.ar    1  UNL1        0.0039
     20 C           6.0487   -0.3278   29.6182 C.3     1  UNL1        0.0297
     21 C           7.4552    0.1885   29.6898 C.3     1  UNL1        0.0024
     22 C           7.7568    1.4386   30.4620 C.3     1  UNL1        0.0001
     23 C           6.6520    2.1724   31.1625 C.3     1  UNL1        0.0000
     24 C           5.2454    1.6562   31.0909 C.3     1  UNL1        0.0001
     25 C           4.9438    0.4061   30.3188 C.3     1  UNL1        0.0024
     26 N           5.5922   -1.0803   26.3007 N.am    1  UNL1       -0.2826
     27 C           4.9401   -1.5033   27.5837 C.2     1  UNL1        0.2468
     28 O           3.4813   -1.8517   27.6042 O.2     1  UNL1       -0.2727
     29 H           6.5497   -0.8517   26.2872 H       1  UNL1        0.1549
     30 C           3.9997    1.3857   25.6817 C.3     1  UNL1        0.0323
     31 C           3.9891    0.2272   24.7289 C.ar    1  UNL1       -0.0083
     32 C           3.1823    0.3016   23.4666 C.ar    1  UNL1       -0.0019
     33 C           3.1717   -0.8568   22.5137 C.ar    1  UNL1        0.0138
     34 C           3.9680   -2.0897   22.8232 C.ar    1  UNL1        0.0024
     35 C           4.7748   -2.1642   24.0856 C.ar    1  UNL1        0.0144
     36 C           4.7854   -1.0058   25.0384 C.ar    1  UNL1        0.0463
     37 C           2.3649   -0.7822   21.2514 C.2     1  UNL1        0.0729
     38 O           1.2398    0.2032   21.1375 O.co2   1  UNL1       -0.5446
     39 O           2.6833   -1.6932   20.1030 O.co2   1  UNL1       -0.5446
@<TRIPOS>UNITY_ATOM_ATTR
38 1
charge -1
@<TRIPOS>BOND
     1    30    31    1
     2    31    32   ar
     3    32    33   ar
     4    33    37    1
     5    37    38   ar
     6    37    39   ar
     7    33    34   ar
     8    34    35   ar
     9    35    36   ar
    10    36    26    1
    11    26    27   am
    12    27    28    2
    13    27     1    1
    14     1    20    1
    15    20    21    1
    16    21    22    1
    17    22    23    1
    18    23    24    1
    19    24    25    1
    20     1     2    1
    21     2     3   ar
    22     3    13    1
    23    13    14   ar
    24    14    15   ar
    25    15    16   ar
    26    16    17    1
    27    16    18   ar
    28    18    19   ar
    29     3     4   ar
    30     4     5   ar
    31     5     6   ar
    32     6     7   ar
    33     7     8    1
    34     7     9   ar
    35     9    10    1
    36     9    11   ar
    37    11    12   ar
    38    36    31   ar
    39    25    20    1
    40    12     2   ar
    41    19    13   ar
    42    12     5   ar
    43    26    29    1
@<TRIPOS>MOLECULE
*****
 39 43 0 0 0
SMALL
GASTEIGER

@<TRIPOS>ATOM
      1 C           1.6572    2.2208   20.9671 C.3     1  UNL1        0.1631
      2 N           2.2856    0.8892   21.2534 N.ar    1  UNL1       -0.3047
      3 C           2.4182    0.2489   22.6034 C.ar    1  UNL1        0.1441
      4 N           3.1063   -1.0719   22.4243 N.ar    1  UNL1       -0.2267
      5 C           3.3990   -1.2478   20.9637 C.ar    1  UNL1        0.1010
      6 C           4.0618   -2.3551   20.1991 C.ar    1  UNL1        0.0526
      7 C           4.2175   -2.2503   18.7109 C.ar    1  UNL1        0.1690
      8 F           4.8804   -3.3576   17.9463 F       1  UNL1       -0.2017
      9 C           3.7103   -1.0383   17.9872 C.ar    1  UNL1        0.1689
     10 F           3.8659   -0.9335   16.4990 F       1  UNL1       -0.2017
     11 C           3.0474    0.0690   18.7518 C.ar    1  UNL1        0.0507
     12 C           2.8918   -0.0358   20.2400 C.ar    1  UNL1        0.0816
     13 C           1.9456    0.8277   23.9040 C.ar    1  UNL1        0.0342
     14 C           2.9420    1.2592   24.9389 C.ar    1  UNL1        0.0039
     15 C           2.4694    1.8380   26.2395 C.ar    1  UNL1        0.0115
     16 C           1.0006    1.9853   26.5052 C.ar    1  UNL1        0.0577
     17 CL          0.5281    2.5642   27.8059 Cl      1  UNL1       -0.0822
     18 C           0.0043    1.5538   25.4703 C.ar    1  UNL1        0.0115
     19 C           0.4767    0.9750   24.1697 C.ar    1  UNL1        0.0039
     20 C           2.5052    3.4574   20.9273 C.3     1  UNL1        0.0297
     21 C           3.0249    3.9686   19.6164 C.3     1  UNL1        0.0024
     22 C           3.8729    5.2052   19.5766 C.3     1  UNL1        0.0001
     23 C           4.2014    5.9306   20.8478 C.3     1  UNL1        0.0000
     24 C           3.6817    5.4194   22.1588 C.3     1  UNL1        0.0001
     25 C           2.8337    4.1828   22.1985 C.3     1  UNL1        0.0024
     26 N          -0.4840    3.6590   20.6554 N.am    1  UNL1       -0.2826
     27 C           0.1806    2.3158   20.7206 C.2     1  UNL1        0.2468
     28 O          -0.6314    1.0677   20.5393 O.2     1  UNL1       -0.2727
     29 H           0.0489    4.4782   20.7745 H       1  UNL1        0.1549
     30 C          -2.3954    3.6366   22.9677 C.3     1  UNL1        0.0323
     31 C          -2.9162    3.7427   21.5650 C.ar    1  UNL1       -0.0083
     32 C          -4.3928    3.8377   21.3185 C.ar    1  UNL1       -0.0019
     33 C          -4.9137    3.9438   19.9158 C.ar    1  UNL1        0.0138
     34 C          -3.9580    3.9550   18.7597 C.ar    1  UNL1        0.0024
     35 C          -2.4814    3.8600   19.0063 C.ar    1  UNL1        0.0144
     36 C          -1.9606    3.7539   20.4090 C.ar    1  UNL1        0.0463
     37 C          -6.3902    4.0387   19.6693 C.2     1  UNL1        0.0729
     38 O          -7.2368    4.9368   20.5218 O.co2   1  UNL1       -0.5446
     39 O          -7.0202    3.2355   18.5702 O.co2   1  UNL1       -0.5446
@<TRIPOS>UNITY_ATOM_ATTR
38 1
charge -1
@<TRIPOS>BOND
     1    30    31    1
     2    31    32   ar
     3    32    33   ar
     4    33    37    1
     5    37    38   ar
     6    37    39   ar
     7    33    34   ar
     8    34    35   ar
     9    35    36   ar
    10    36    26    1
    11    26    27   am
    12    27    28    2
    13    27     1    1
    14     1    20    1
    15    20    21    1
    16    21    22    1
    17    22    23    1
    18    23    24    1
    19    24    25    1
    20     1     2    1
    21     2     3   ar
    22     3    13    1
    23    13    14   ar
    24    14    15   ar
    25    15    16   ar
    26    16    17    1
    27    16    18   ar
    28    18    19   ar
    29     3     4   ar
    30     4     5   ar
    31     5     6   ar
    32     6     7   ar
    33     7     8    1
    34     7     9   ar
    35     9    10    1
    36     9    11   ar
    37    11    12   ar
    38    36    31   ar
    39    25    20    1
    40    12     2   ar
    41    19    13   ar
    42    12     5   ar
    43    26    29    1
@<TRIPOS>MOLECULE
*****
 39 43 0 0 0
SMALL
GASTEIGER

@<TRIPOS>ATOM
      1 C          -0.0139    2.5389   21.3393 C.3     1  UNL1        0.1631
      2 N          -0.4638    3.3778   20.1801 N.ar    1  UNL1       -0.3047
      3 C           0.4295    4.0820   19.2023 C.ar    1  UNL1        0.1441
      4 N          -0.4405    4.7992   18.2130 N.ar    1  UNL1       -0.2267
      5 C          -1.8714    4.5383   18.5794 C.ar    1  UNL1        0.1010
      6 C          -3.1632    4.9872   17.9632 C.ar    1  UNL1        0.0526
      7 C          -4.4694    4.5576   18.5626 C.ar    1  UNL1        0.1690
      8 F          -5.7612    5.0065   17.9463 F       1  UNL1       -0.2017
      9 C          -4.4838    3.6791   19.7784 C.ar    1  UNL1        0.1689
     10 F          -5.7900    3.2495   20.3778 F       1  UNL1       -0.2017
     11 C          -3.1920    3.2302   20.3947 C.ar    1  UNL1        0.0507
     12 C          -1.8858    3.6599   19.7952 C.ar    1  UNL1        0.0816
     13 C           1.9295    4.0709   19.2120 C.ar    1  UNL1        0.0342
     14 C           2.6775    3.0775   18.3732 C.ar    1  UNL1        0.0039
     15 C           4.1774    3.0664   18.3829 C.ar    1  UNL1        0.0115
     16 C           4.9292    4.0485   19.2314 C.ar    1  UNL1        0.0577
     17 CL          6.4292    4.0373   19.2411 Cl      1  UNL1       -0.0822
     18 C           4.1812    5.0418   20.0703 C.ar    1  UNL1        0.0115
     19 C           2.6813    5.0530   20.0606 C.ar    1  UNL1        0.0039
     20 C          -0.2170    3.0281   22.7427 C.3     1  UNL1        0.0297
     21 C          -0.4619    4.4852   23.0010 C.3     1  UNL1        0.0024
     22 C          -0.6649    4.9743   24.4044 C.3     1  UNL1        0.0001
     23 C          -0.6232    4.0063   25.5495 C.3     1  UNL1        0.0000
     24 C          -0.3783    2.5491   25.2912 C.3     1  UNL1        0.0001
     25 C          -0.1753    2.0600   23.8878 C.3     1  UNL1        0.0024
     26 N           2.1264    1.0701   21.2302 N.am    1  UNL1       -0.2826
     27 C           0.6391    1.2107   21.0952 C.2     1  UNL1        0.2468
     28 O          -0.1952    0.0231   20.7161 O.2     1  UNL1       -0.2727
     29 H           2.6740    1.8495   21.4790 H       1  UNL1        0.1549
     30 C           3.0295   -0.6062   23.5485 C.3     1  UNL1        0.0323
     31 C           3.2309   -1.0963   22.1452 C.ar    1  UNL1       -0.0083
     32 C           3.8838   -2.4244   21.9010 C.ar    1  UNL1       -0.0019
     33 C           4.0851   -2.9145   20.4976 C.ar    1  UNL1        0.0138
     34 C           3.6336   -2.0764   19.3385 C.ar    1  UNL1        0.0024
     35 C           2.9806   -0.7481   19.5827 C.ar    1  UNL1        0.0144
     36 C           2.7793   -0.2581   20.9861 C.ar    1  UNL1        0.0463
     37 C           4.7380   -4.2427   20.2535 C.2     1  UNL1        0.0729
     38 O           3.9273   -5.3928   19.7338 O.co2   1  UNL1       -0.5446
     39 O           6.2017   -4.4208   20.5291 O.co2   1  UNL1       -0.5446
@<TRIPOS>UNITY_ATOM_ATTR
38 1
charge -1
@<TRIPOS>BOND
     1    30    31    1
     2    31    32   ar
     3    32    33   ar
     4    33    37    1
     5    37    38   ar
     6    37    39   ar
     7    33    34   ar
     8    34    35   ar
     9    35    36   ar
    10    36    26    1
    11    26    27   am
    12    27    28    2
    13    27     1    1
    14     1    20    1
    15    20    21    1
    16    21    22    1
    17    22    23    1
    18    23    24    1
    19    24    25    1
    20     1     2    1
    21     2     3   ar
    22     3    13    1
    23    13    14   ar
    24    14    15   ar
    25    15    16   ar
    26    16    17    1
    27    16    18   ar
    28    18    19   ar
    29     3     4   ar
    30     4     5   ar
    31     5     6   ar
    32     6     7   ar
    33     7     8    1
    34     7     9   ar
    35     9    10    1
    36     9    11   ar
    37    11    12   ar
    38    36    31   ar
    39    25    20    1
    40    12     2   ar
    41    19    13   ar
    42    12     5   ar
    43    26    29    1
@<TRIPOS>MOLECULE
*****
 39 43 0 0 0
SMALL
GASTEIGER

@<TRIPOS>ATOM
      1 C           2.0069    2.3432   24.2410 C.3     1  UNL1        0.1631
      2 N           0.5558    2.7069   24.1309 N.ar    1  UNL1       -0.3047
      3 C          -0.4192    2.7967   25.2673 C.ar    1  UNL1        0.1441
      4 N          -1.7527    3.1899   24.7039 N.ar    1  UNL1       -0.2267
      5 C          -1.6016    3.3431   23.2194 C.ar    1  UNL1        0.1010
      6 C          -2.5790    3.7159   22.1443 C.ar    1  UNL1        0.0526
      7 C          -2.1296    3.7902   20.7151 C.ar    1  UNL1        0.1690
      8 F          -3.1070    4.1630   19.6400 F       1  UNL1       -0.2017
      9 C          -0.7029    3.4917   20.3610 C.ar    1  UNL1        0.1689
     10 F          -0.2535    3.5660   18.9318 F       1  UNL1       -0.2017
     11 C           0.2744    3.1189   21.4361 C.ar    1  UNL1        0.0507
     12 C          -0.1749    3.0446   22.8653 C.ar    1  UNL1        0.0816
     13 C          -0.1144    2.5386   26.7131 C.ar    1  UNL1        0.0342
     14 C          -0.1708    1.1404   27.2534 C.ar    1  UNL1        0.0039
     15 C           0.1340    0.8823   28.6993 C.ar    1  UNL1        0.0115
     16 C           0.4953    2.0223   29.6047 C.ar    1  UNL1        0.0577
     17 CL          0.8001    1.7641   31.0506 Cl      1  UNL1       -0.0822
     18 C           0.5517    3.4204   29.0643 C.ar    1  UNL1        0.0115
     19 C           0.2469    3.6786   27.6186 C.ar    1  UNL1        0.0039
     20 C           2.8281    2.8711   25.3797 C.3     1  UNL1        0.0297
     21 C           3.3733    1.9287   26.4115 C.3     1  UNL1        0.0024
     22 C           4.1946    2.4567   27.5502 C.3     1  UNL1        0.0001
     23 C           4.4708    3.9271   27.6572 C.3     1  UNL1        0.0000
     24 C           3.9256    4.8697   26.6254 C.3     1  UNL1        0.0001
     25 C           3.1043    4.3417   25.4867 C.3     1  UNL1        0.0024
     26 N           2.1153    0.0604   23.0051 N.am    1  UNL1       -0.2826
     27 C           2.6368    1.4515   23.2122 C.2     1  UNL1        0.2468
     28 O           3.7881    1.9510   22.3907 O.2     1  UNL1       -0.2727
     29 H           1.3596   -0.2674   23.5444 H       1  UNL1        0.1549
     30 C           0.8759   -0.2011   20.2856 C.3     1  UNL1        0.0323
     31 C           2.1255   -0.9619   20.6167 C.ar    1  UNL1       -0.0083
     32 C           2.7554   -1.8535   19.5880 C.ar    1  UNL1       -0.0019
     33 C           4.0051   -2.6145   19.9190 C.ar    1  UNL1        0.0138
     34 C           4.6247   -2.4837   21.2788 C.ar    1  UNL1        0.0024
     35 C           3.9947   -1.5920   22.3075 C.ar    1  UNL1        0.0144
     36 C           2.7451   -0.8312   21.9764 C.ar    1  UNL1        0.0463
     37 C           4.6349   -3.5060   18.8903 C.2     1  UNL1        0.0729
     38 O           5.5047   -2.9176   17.8192 O.co2   1  UNL1       -0.5446
     39 O           4.3951   -4.9861   18.9328 O.co2   1  UNL1       -0.5446
@<TRIPOS>UNITY_ATOM_ATTR
38 1
charge -1
@<TRIPOS>BOND
     1    30    31    1
     2    31    32   ar
     3    32    33   ar
     4    33    37    1
     5    37    38   ar
     6    37    39   ar
     7    33    34   ar
     8    34    35   ar
     9    35    36   ar
    10    36    26    1
    11    26    27   am
    12    27    28    2
    13    27     1    1
    14     1    20    1
    15    20    21    1
    16    21    22    1
    17    22    23    1
    18    23    24    1
    19    24    25    1
    20     1     2    1
    21     2     3   ar
    22     3    13    1
    23    13    14   ar
    24    14    15   ar
    25    15    16   ar
    26    16    17    1
    27    16    18   ar
    28    18    19   ar
    29     3     4   ar
    30     4     5   ar
    31     5     6   ar
    32     6     7   ar
    33     7     8    1
    34     7     9   ar
    35     9    10    1
    36     9    11   ar
    37    11    12   ar
    38    36    31   ar
    39    25    20    1
    40    12     2   ar
    41    19    13   ar
    42    12     5   ar
    43    26    29    1
@<TRIPOS>MOLECULE
*****
 39 43 0 0 0
SMALL
GASTEIGER

@<TRIPOS>ATOM
      1 C           2.6365    1.9838   21.5999 C.3     1  UNL1        0.1631
      2 N           1.6907    2.0922   20.4407 N.ar    1  UNL1       -0.3047
      3 C           1.6313    1.1669   19.2617 C.ar    1  UNL1        0.1441
      4 N           0.5421    1.6478   18.3494 N.ar    1  UNL1       -0.2267
      5 C          -0.0717    2.8704   18.9646 C.ar    1  UNL1        0.1010
      6 C          -1.1853    3.7691   18.5149 C.ar    1  UNL1        0.0526
      7 C          -1.5890    4.9424   19.3576 C.ar    1  UNL1        0.1690
      8 F          -2.7027    5.8411   18.9078 F       1  UNL1       -0.2017
      9 C          -0.8792    5.2171   20.6502 C.ar    1  UNL1        0.1689
     10 F          -1.2829    6.3905   21.4930 F       1  UNL1       -0.2017
     11 C           0.2344    4.3184   21.0999 C.ar    1  UNL1        0.0507
     12 C           0.6382    3.1451   20.2572 C.ar    1  UNL1        0.0816
     13 C           2.5074   -0.0294   19.0348 C.ar    1  UNL1        0.0342
     14 C           2.4206   -1.2084   19.9580 C.ar    1  UNL1        0.0039
     15 C           3.2966   -2.4047   19.7311 C.ar    1  UNL1        0.0115
     16 C           4.2594   -2.4219   18.5811 C.ar    1  UNL1        0.0577
     17 CL          5.1355   -3.6182   18.3543 Cl      1  UNL1       -0.0822
     18 C           4.3462   -1.2429   17.6579 C.ar    1  UNL1        0.0115
     19 C           3.4702   -0.0466   17.8847 C.ar    1  UNL1        0.0039
     20 C           4.0803    2.3513   21.4267 C.3     1  UNL1        0.0297
     21 C           5.1168    1.2758   21.2889 C.3     1  UNL1        0.0024
     22 C           6.5607    1.6435   21.1157 C.3     1  UNL1        0.0001
     23 C           6.9682    3.0866   21.0804 C.3     1  UNL1        0.0000
     24 C           5.9318    4.1622   21.2182 C.3     1  UNL1        0.0001
     25 C           4.4879    3.7945   21.3914 C.3     1  UNL1        0.0024
     26 N           1.6868    2.5001   23.9625 N.am    1  UNL1       -0.2826
     27 C           2.1384    1.5077   22.9324 C.2     1  UNL1        0.2468
     28 O           2.0919    0.0392   23.2346 O.2     1  UNL1       -0.2727
     29 H           1.7173    3.4639   23.7641 H       1  UNL1        0.1549
     30 C          -1.2005    2.8516   24.6976 C.3     1  UNL1        0.0323
     31 C          -0.2548    2.1997   25.6624 C.ar    1  UNL1       -0.0083
     32 C          -0.7528    1.7235   26.9948 C.ar    1  UNL1       -0.0019
     33 C           0.1928    1.0716   27.9597 C.ar    1  UNL1        0.0138
     34 C           1.6364    0.8959   27.5921 C.ar    1  UNL1        0.0024
     35 C           2.1344    1.3721   26.2596 C.ar    1  UNL1        0.0144
     36 C           1.1888    2.0240   25.2948 C.ar    1  UNL1        0.0463
     37 C          -0.3053    0.5955   29.2920 C.2     1  UNL1        0.0729
     38 O          -1.2411   -0.5743   29.3686 O.co2   1  UNL1       -0.5446
     39 O           0.1325    1.2892   30.5479 O.co2   1  UNL1       -0.5446
@<TRIPOS>UNITY_ATOM_ATTR
38 1
charge -1
@<TRIPOS>BOND
     1    30    31    1
     2    31    32   ar
     3    32    33   ar
     4    33    37    1
     5    37    38   ar
     6    37    39   ar
     7    33    34   ar
     8    34    35   ar
     9    35    36   ar
    10    36    26    1
    11    26    27   am
    12    27    28    2
    13    27     1    1
    14     1    20    1
    15    20    21    1
    16    21    22    1
    17    22    23    1
    18    23    24    1
    19    24    25    1
    20     1     2    1
    21     2     3   ar
    22     3    13    1
    23    13    14   ar
    24    14    15   ar
    25    15    16   ar
    26    16    17    1
    27    16    18   ar
    28    18    19   ar
    29     3     4   ar
    30     4     5   ar
    31     5     6   ar
    32     6     7   ar
    33     7     8    1
    34     7     9   ar
    35     9    10    1
    36     9    11   ar
    37    11    12   ar
    38    36    31   ar
    39    25    20    1
    40    12     2   ar
    41    19    13   ar
    42    12     5   ar
    43    26    29    1
@<TRIPOS>MOLECULE
*****
 39 43 0 0 0
SMALL
GASTEIGER

@<TRIPOS>ATOM
      1 C           3.1740    0.6797   21.0108 C.3     1  UNL1        0.1631
      2 N           4.3398   -0.1165   20.5041 N.ar    1  UNL1       -0.3047
      3 C           5.7657    0.3458   20.4483 C.ar    1  UNL1        0.1441
      4 N           6.5916   -0.7668   19.8739 N.ar    1  UNL1       -0.2267
      5 C           5.6761   -1.9168   19.5747 C.ar    1  UNL1        0.1010
      6 C           5.9300   -3.2779   18.9979 C.ar    1  UNL1        0.0526
      7 C           4.7921   -4.2372   18.8105 C.ar    1  UNL1        0.1690
      8 F           5.0460   -5.5985   18.2337 F       1  UNL1       -0.2017
      9 C           3.4004   -3.8353   19.1999 C.ar    1  UNL1        0.1689
     10 F           2.2626   -4.7946   19.0126 F       1  UNL1       -0.2017
     11 C           3.1466   -2.4742   19.7767 C.ar    1  UNL1        0.0507
     12 C           4.2844   -1.5149   19.9641 C.ar    1  UNL1        0.0816
     13 C           6.2760    1.6855   20.8895 C.ar    1  UNL1        0.0342
     14 C           6.6678    2.7122   19.8686 C.ar    1  UNL1        0.0039
     15 C           7.1781    4.0519   20.3098 C.ar    1  UNL1        0.0115
     16 C           7.2967    4.3650   21.7719 C.ar    1  UNL1        0.0577
     17 CL          7.8071    5.7048   22.2130 Cl      1  UNL1       -0.0822
     18 C           6.9049    3.3383   22.7928 C.ar    1  UNL1        0.0115
     19 C           6.3946    1.9986   22.3517 C.ar    1  UNL1        0.0039
     20 C           2.4699    1.6413   20.1001 C.3     1  UNL1        0.0297
     21 C           1.2833    1.1872   19.3026 C.3     1  UNL1        0.0024
     22 C           0.5793    2.1489   18.3919 C.3     1  UNL1        0.0001
     23 C           1.0616    3.5647   18.2785 C.3     1  UNL1        0.0000
     24 C           2.2482    4.0188   19.0760 C.3     1  UNL1        0.0001
     25 C           2.9523    3.0572   19.9867 C.3     1  UNL1        0.0024
     26 N           2.2069    1.7001   23.1957 N.am    1  UNL1       -0.2826
     27 C           2.7122    0.5144   22.4284 C.2     1  UNL1        0.2468
     28 O           2.7557   -0.8367   23.0786 O.2     1  UNL1       -0.2727
     29 H           2.1783    2.5868   22.7690 H       1  UNL1        0.1549
     30 C           4.2057    1.6889   25.4329 C.3     1  UNL1        0.0323
     31 C           2.7445    1.5291   25.7318 C.ar    1  UNL1       -0.0083
     32 C           2.2827    1.3637   27.1493 C.ar    1  UNL1       -0.0019
     33 C           0.8215    1.2038   27.4483 C.ar    1  UNL1        0.0138
     34 C          -0.1779    1.2094   26.3298 C.ar    1  UNL1        0.0024
     35 C           0.2839    1.3748   24.9122 C.ar    1  UNL1        0.0144
     36 C           1.7451    1.5347   24.6132 C.ar    1  UNL1        0.0463
     37 C           0.3597    1.0384   28.8658 C.2     1  UNL1        0.0729
     38 O           0.3277    2.2216   29.7872 O.co2   1  UNL1       -0.5446
     39 O          -0.0700   -0.3104   29.3620 O.co2   1  UNL1       -0.5446
@<TRIPOS>UNITY_ATOM_ATTR
38 1
charge -1
@<TRIPOS>BOND
     1    30    31    1
     2    31    32   ar
     3    32    33   ar
     4    33    37    1
     5    37    38   ar
     6    37    39   ar
     7    33    34   ar
     8    34    35   ar
     9    35    36   ar
    10    36    26    1
    11    26    27   am
    12    27    28    2
    13    27     1    1
    14     1    20    1
    15    20    21    1
    16    21    22    1
    17    22    23    1
    18    23    24    1
    19    24    25    1
    20     1     2    1
    21     2     3   ar
    22     3    13    1
    23    13    14   ar
    24    14    15   ar
    25    15    16   ar
    26    16    17    1
    27    16    18   ar
    28    18    19   ar
    29     3     4   ar
    30     4     5   ar
    31     5     6   ar
    32     6     7   ar
    33     7     8    1
    34     7     9   ar
    35     9    10    1
    36     9    11   ar
    37    11    12   ar
    38    36    31   ar
    39    25    20    1
    40    12     2   ar
    41    19    13   ar
    42    12     5   ar
    43    26    29    1
