@<TRIPOS>MOLECULE
*****
 17 19 0 0 0
SMALL
GASTEIGER

@<TRIPOS>ATOM
      1 C          -9.2857  -16.6321   21.7035 C.2     1  UNL1        0.2246
      2 N         -10.2708  -15.8556   20.8809 N.2     1  UNL1       -0.1673
      3 C         -11.6028  -16.4559   20.5417 C.2     1  UNL1        0.3412
      4 N         -11.9499  -17.8329   21.0249 N.2     1  UNL1       -0.0117
      5 C         -10.9648  -18.6095   21.8475 C.2     1  UNL1        0.3660
      6 N         -11.0261  -19.9775   22.4596 N.2     1  UNL1       -0.0341
      7 C          -9.7319  -20.2226   23.1772 C.2     1  UNL1        0.2322
      8 C          -8.8707  -19.0060   23.0086 C.2     1  UNL1        0.0457
      9 C          -9.6327  -18.0090   22.1867 C.3     1  UNL1        0.2137
     10 O          -7.9537  -16.0317   22.0427 O.3     1  UNL1       -0.4389
     11 F          -6.4361  -15.1452   27.7796 F       1  UNL1       -0.2042
     12 C          -6.8155  -15.3668   26.3453 C.ar    1  UNL1        0.1403
     13 C          -5.7486  -15.5077   25.3005 C.ar    1  UNL1        0.0328
     14 C          -6.1279  -15.7293   23.8662 C.ar    1  UNL1        0.0398
     15 C          -7.5743  -15.8100   23.4769 C.ar    1  UNL1        0.1470
     16 C          -8.6413  -15.6691   24.5218 C.ar    1  UNL1        0.0398
     17 C          -8.2619  -15.4475   25.9560 C.ar    1  UNL1        0.0328
@<TRIPOS>BOND
     1    11    12    1
     2    12    13   ar
     3    13    14   ar
     4    14    15   ar
     5    15    10    1
     6    10     1    1
     7     1     2    2
     8     2     3    1
     9     3     4    2
    10     4     5    1
    11     5     6    2
    12     6     7    1
    13     7     8    2
    14     8     9    1
    15    15    16   ar
    16    16    17   ar
    17    17    12   ar
    18     9     1    1
    19     9     5    1
@<TRIPOS>MOLECULE
*****
 17 19 0 0 0
SMALL
GASTEIGER

@<TRIPOS>ATOM
      1 C          -8.5795  -16.7917   21.8202 C.2     1  UNL1        0.2246
      2 N          -7.6026  -17.8037   21.2991 N.2     1  UNL1       -0.1673
      3 C          -8.0992  -19.0820   20.6916 C.2     1  UNL1        0.3412
      4 N          -9.5729  -19.3485   20.6051 N.2     1  UNL1       -0.0117
      5 C         -10.5498  -18.3365   21.1262 C.2     1  UNL1        0.3660
      6 N         -12.0489  -18.3223   21.1771 N.2     1  UNL1       -0.0341
      7 C         -12.4787  -17.0351   21.8162 C.2     1  UNL1        0.2322
      8 C         -11.2453  -16.2538   22.1602 C.2     1  UNL1        0.0457
      9 C         -10.0532  -17.0582   21.7338 C.3     1  UNL1        0.2137
     10 O          -8.0829  -15.5134   22.4278 O.3     1  UNL1       -0.4389
     11 F          -6.4263  -15.3768   28.1930 F       1  UNL1       -0.2042
     12 C          -6.8405  -15.4110   26.7517 C.ar    1  UNL1        0.1403
     13 C          -8.2901  -15.5457   26.3909 C.ar    1  UNL1        0.0328
     14 C          -8.7043  -15.5799   24.9495 C.ar    1  UNL1        0.0398
     15 C          -7.6687  -15.4792   23.8691 C.ar    1  UNL1        0.1470
     16 C          -6.2190  -15.3445   24.2298 C.ar    1  UNL1        0.0398
     17 C          -5.8049  -15.3103   25.6711 C.ar    1  UNL1        0.0328
@<TRIPOS>BOND
     1    11    12    1
     2    12    13   ar
     3    13    14   ar
     4    14    15   ar
     5    15    10    1
     6    10     1    1
     7     1     2    2
     8     2     3    1
     9     3     4    2
    10     4     5    1
    11     5     6    2
    12     6     7    1
    13     7     8    2
    14     8     9    1
    15    15    16   ar
    16    16    17   ar
    17    17    12   ar
    18     9     1    1
    19     9     5    1
@<TRIPOS>MOLECULE
*****
 17 19 0 0 0
SMALL
GASTEIGER

@<TRIPOS>ATOM
      1 C          -7.6987  -18.7428   22.2292 C.2     1  UNL1        0.2246
      2 N          -7.4759  -17.3504   21.7179 N.2     1  UNL1       -0.1673
      3 C          -8.3931  -16.2409   22.1392 C.2     1  UNL1        0.3412
      4 N          -9.5334  -16.5238   23.0719 N.2     1  UNL1       -0.0117
      5 C          -9.7563  -17.9162   23.5832 C.2     1  UNL1        0.3660
      6 N         -10.7882  -18.4932   24.5063 N.2     1  UNL1       -0.0341
      7 C         -10.5087  -19.9593   24.6555 C.2     1  UNL1        0.2322
      8 C          -9.3040  -20.2884   23.8246 C.2     1  UNL1        0.0457
      9 C          -8.8389  -19.0257   23.1619 C.3     1  UNL1        0.2137
     10 O          -6.7814  -19.8523   21.8079 O.3     1  UNL1       -0.4389
     11 F          -1.1264  -18.6294   20.2189 F       1  UNL1       -0.2042
     12 C          -2.5402  -18.9351   20.6161 C.ar    1  UNL1        0.1403
     13 C          -3.5838  -19.1580   19.5621 C.ar    1  UNL1        0.0328
     14 C          -4.9977  -19.4637   19.9594 C.ar    1  UNL1        0.0398
     15 C          -5.3677  -19.5466   21.4106 C.ar    1  UNL1        0.1470
     16 C          -4.3240  -19.3237   22.4647 C.ar    1  UNL1        0.0398
     17 C          -2.9102  -19.0180   22.0675 C.ar    1  UNL1        0.0328
@<TRIPOS>BOND
     1    11    12    1
     2    12    13   ar
     3    13    14   ar
     4    14    15   ar
     5    15    10    1
     6    10     1    1
     7     1     2    2
     8     2     3    1
     9     3     4    2
    10     4     5    1
    11     5     6    2
    12     6     7    1
    13     7     8    2
    14     8     9    1
    15    15    16   ar
    16    16    17   ar
    17    17    12   ar
    18     9     1    1
    19     9     5    1
@<TRIPOS>MOLECULE
*****
 17 19 0 0 0
SMALL
GASTEIGER

@<TRIPOS>ATOM
      1 C         -10.3343  -17.3006   23.3187 C.2     1  UNL1        0.2246
      2 N         -10.1600  -18.6830   23.8741 N.2     1  UNL1       -0.1673
      3 C         -10.4384  -19.8783   23.0117 C.2     1  UNL1        0.3412
      4 N         -10.8911  -19.6912   21.5939 N.2     1  UNL1       -0.0117
      5 C         -11.0654  -18.3087   21.0386 C.2     1  UNL1        0.3660
      6 N         -11.4957  -17.8163   19.6887 N.2     1  UNL1       -0.0341
      7 C         -11.4833  -16.3166   19.7168 C.2     1  UNL1        0.2322
      8 C         -11.0453  -15.8822   21.0840 C.2     1  UNL1        0.0457
      9 C         -10.7870  -17.1134   21.9010 C.3     1  UNL1        0.2137
     10 O         -10.0559  -16.1052   24.1811 O.3     1  UNL1       -0.4389
     11 F          -4.5062  -15.1155   26.2358 F       1  UNL1       -0.2042
     12 C          -5.8937  -15.3629   25.7221 C.ar    1  UNL1        0.1403
     13 C          -6.1583  -15.3604   24.2457 C.ar    1  UNL1        0.0328
     14 C          -7.5458  -15.6078   23.7320 C.ar    1  UNL1        0.0398
     15 C          -8.6685  -15.8578   24.6948 C.ar    1  UNL1        0.1470
     16 C          -8.4039  -15.8604   26.1713 C.ar    1  UNL1        0.0398
     17 C          -7.0164  -15.6129   26.6850 C.ar    1  UNL1        0.0328
@<TRIPOS>BOND
     1    11    12    1
     2    12    13   ar
     3    13    14   ar
     4    14    15   ar
     5    15    10    1
     6    10     1    1
     7     1     2    2
     8     2     3    1
     9     3     4    2
    10     4     5    1
    11     5     6    2
    12     6     7    1
    13     7     8    2
    14     8     9    1
    15    15    16   ar
    16    16    17   ar
    17    17    12   ar
    18     9     1    1
    19     9     5    1
@<TRIPOS>MOLECULE
*****
 17 19 0 0 0
SMALL
GASTEIGER

@<TRIPOS>ATOM
      1 C          -7.0103  -18.4127   22.0115 C.2     1  UNL1        0.2246
      2 N          -6.6614  -17.2718   22.9207 N.2     1  UNL1       -0.1673
      3 C          -7.6129  -16.1236   23.0823 C.2     1  UNL1        0.3412
      4 N          -8.9134  -16.1163   22.3348 N.2     1  UNL1       -0.0117
      5 C          -9.2623  -17.2572   21.4257 C.2     1  UNL1        0.3660
      6 N         -10.4620  -17.5248   20.5660 N.2     1  UNL1       -0.0341
      7 C         -10.2519  -18.8384   19.8730 C.2     1  UNL1        0.2322
      8 C          -8.9223  -19.3826   20.3044 C.2     1  UNL1        0.0457
      9 C          -8.3107  -18.4054   21.2640 C.3     1  UNL1        0.2137
     10 O          -6.0587  -19.5609   21.8498 O.3     1  UNL1       -0.4389
     11 F          -0.5035  -18.5879   19.8019 F       1  UNL1       -0.2042
     12 C          -1.8924  -18.8312   20.3140 C.ar    1  UNL1        0.1403
     13 C          -2.1327  -18.9844   21.7866 C.ar    1  UNL1        0.0328
     14 C          -3.5215  -19.2276   22.2986 C.ar    1  UNL1        0.0398
     15 C          -4.6699  -19.3176   21.3379 C.ar    1  UNL1        0.1470
     16 C          -4.4296  -19.1645   19.8652 C.ar    1  UNL1        0.0398
     17 C          -3.0409  -18.9212   19.3532 C.ar    1  UNL1        0.0328
@<TRIPOS>BOND
     1    11    12    1
     2    12    13   ar
     3    13    14   ar
     4    14    15   ar
     5    15    10    1
     6    10     1    1
     7     1     2    2
     8     2     3    1
     9     3     4    2
    10     4     5    1
    11     5     6    2
    12     6     7    1
    13     7     8    2
    14     8     9    1
    15    15    16   ar
    16    16    17   ar
    17    17    12   ar
    18     9     1    1
    19     9     5    1
@<TRIPOS>MOLECULE
*****
 17 19 0 0 0
SMALL
GASTEIGER

@<TRIPOS>ATOM
      1 C          -9.9327  -16.8528   21.7576 C.2     1  UNL1        0.2246
      2 N         -10.2493  -16.1708   20.4598 N.2     1  UNL1       -0.1673
      3 C         -11.6727  -16.0553   20.0009 C.2     1  UNL1        0.3412
      4 N         -12.7796  -16.6218   20.8400 N.2     1  UNL1       -0.0117
      5 C         -12.4629  -17.3038   22.1379 C.2     1  UNL1        0.3660
      6 N         -13.3367  -17.9536   23.1695 N.2     1  UNL1       -0.0341
      7 C         -12.4533  -18.4708   24.2659 C.2     1  UNL1        0.2322
      8 C         -11.0335  -18.1406   23.9119 C.2     1  UNL1        0.0457
      9 C         -11.0395  -17.4193   22.5967 C.3     1  UNL1        0.2137
     10 O          -8.5093  -16.9683   22.2165 O.3     1  UNL1       -0.4389
     11 F          -5.0543  -21.4319   20.1817 F       1  UNL1       -0.2042
     12 C          -5.9180  -20.3160   20.6905 C.ar    1  UNL1        0.1403
     13 C          -5.4533  -19.4722   21.8402 C.ar    1  UNL1        0.0328
     14 C          -6.3170  -18.3563   22.3489 C.ar    1  UNL1        0.0398
     15 C          -7.6455  -18.0842   21.7078 C.ar    1  UNL1        0.1470
     16 C          -8.1104  -18.9280   20.5580 C.ar    1  UNL1        0.0398
     17 C          -7.2466  -20.0439   20.0493 C.ar    1  UNL1        0.0328
@<TRIPOS>BOND
     1    11    12    1
     2    12    13   ar
     3    13    14   ar
     4    14    15   ar
     5    15    10    1
     6    10     1    1
     7     1     2    2
     8     2     3    1
     9     3     4    2
    10     4     5    1
    11     5     6    2
    12     6     7    1
    13     7     8    2
    14     8     9    1
    15    15    16   ar
    16    16    17   ar
    17    17    12   ar
    18     9     1    1
    19     9     5    1
@<TRIPOS>MOLECULE
*****
 17 19 0 0 0
SMALL
GASTEIGER

@<TRIPOS>ATOM
      1 C          -7.5275  -18.3545   22.1404 C.2     1  UNL1        0.2246
      2 N          -7.0363  -17.0411   22.6729 N.2     1  UNL1       -0.1673
      3 C          -7.9514  -15.8529   22.6988 C.2     1  UNL1        0.3412
      4 N          -9.3577  -15.9780   22.1922 N.2     1  UNL1       -0.0117
      5 C          -9.8489  -17.2915   21.6598 C.2     1  UNL1        0.3660
      6 N         -11.1736  -17.7142   21.0973 N.2     1  UNL1       -0.0341
      7 C         -11.0772  -19.1638   20.7237 C.2     1  UNL1        0.2322
      8 C          -9.6930  -19.6369   21.0554 C.2     1  UNL1        0.0457
      9 C          -8.9338  -18.4797   21.6339 C.3     1  UNL1        0.2137
     10 O          -6.6124  -19.5428   22.1146 O.3     1  UNL1       -0.4389
     11 F          -1.0336  -18.9870   19.9771 F       1  UNL1       -0.2042
     12 C          -2.4284  -19.1259   20.5115 C.ar    1  UNL1        0.1403
     13 C          -3.5757  -19.3340   19.5680 C.ar    1  UNL1        0.0328
     14 C          -4.9705  -19.4729   20.1023 C.ar    1  UNL1        0.0398
     15 C          -5.2177  -19.4038   21.5802 C.ar    1  UNL1        0.1470
     16 C          -4.0704  -19.1958   22.5238 C.ar    1  UNL1        0.0398
     17 C          -2.6757  -19.0568   21.9894 C.ar    1  UNL1        0.0328
@<TRIPOS>BOND
     1    11    12    1
     2    12    13   ar
     3    13    14   ar
     4    14    15   ar
     5    15    10    1
     6    10     1    1
     7     1     2    2
     8     2     3    1
     9     3     4    2
    10     4     5    1
    11     5     6    2
    12     6     7    1
    13     7     8    2
    14     8     9    1
    15    15    16   ar
    16    16    17   ar
    17    17    12   ar
    18     9     1    1
    19     9     5    1
@<TRIPOS>MOLECULE
*****
 17 19 0 0 0
SMALL
GASTEIGER

@<TRIPOS>ATOM
      1 C          -7.6739  -17.4374   22.2453 C.2     1  UNL1        0.2246
      2 N          -7.8536  -16.0552   22.7996 N.2     1  UNL1       -0.1673
      3 C          -6.7096  -15.3664   23.4825 C.2     1  UNL1        0.3412
      4 N          -5.3856  -16.0597   23.6112 N.2     1  UNL1       -0.0117
      5 C          -5.2059  -17.4419   23.0569 C.2     1  UNL1        0.3660
      6 N          -4.0267  -18.3687   23.0342 N.2     1  UNL1       -0.0341
      7 C          -4.4421  -19.6303   22.3372 C.2     1  UNL1        0.2322
      8 C          -5.8780  -19.4832   21.9292 C.2     1  UNL1        0.0457
      9 C          -6.3501  -18.1307   22.3739 C.3     1  UNL1        0.2137
     10 O          -8.8181  -18.1262   21.5624 O.3     1  UNL1       -0.4389
     11 F         -14.2838  -18.0328   24.0359 F       1  UNL1       -0.2042
     12 C         -12.9173  -18.0562   23.4175 C.ar    1  UNL1        0.1403
     13 C         -11.7365  -18.5081   24.2245 C.ar    1  UNL1        0.0328
     14 C         -10.3700  -18.5315   23.6062 C.ar    1  UNL1        0.0398
     15 C         -10.1845  -18.1028   22.1807 C.ar    1  UNL1        0.1470
     16 C         -11.3654  -17.6509   21.3736 C.ar    1  UNL1        0.0398
     17 C         -12.7317  -17.6276   21.9920 C.ar    1  UNL1        0.0328
@<TRIPOS>BOND
     1    11    12    1
     2    12    13   ar
     3    13    14   ar
     4    14    15   ar
     5    15    10    1
     6    10     1    1
     7     1     2    2
     8     2     3    1
     9     3     4    2
    10     4     5    1
    11     5     6    2
    12     6     7    1
    13     7     8    2
    14     8     9    1
    15    15    16   ar
    16    16    17   ar
    17    17    12   ar
    18     9     1    1
    19     9     5    1
@<TRIPOS>MOLECULE
*****
 17 19 0 0 0
SMALL
GASTEIGER

@<TRIPOS>ATOM
      1 C          -9.9350  -17.3713   22.1108 C.2     1  UNL1        0.2246
      2 N         -10.0536  -16.5365   20.8702 N.2     1  UNL1       -0.1673
      3 C         -11.4017  -16.0718   20.4050 C.2     1  UNL1        0.3412
      4 N         -12.6314  -16.4419   21.1804 N.2     1  UNL1       -0.0117
      5 C         -12.5127  -17.2766   22.4210 C.2     1  UNL1        0.3660
      6 N         -13.5394  -17.7945   23.3842 N.2     1  UNL1       -0.0341
      7 C         -12.8257  -18.5793   24.4447 C.2     1  UNL1        0.2322
      8 C         -11.3579  -18.5465   24.1369 C.2     1  UNL1        0.0457
      9 C         -11.1645  -17.7413   22.8862 C.3     1  UNL1        0.2137
     10 O          -8.5868  -17.8360   22.5760 O.3     1  UNL1       -0.4389
     11 F          -5.3634  -14.4254   26.3148 F       1  UNL1       -0.2042
     12 C          -6.1693  -15.2781   25.3801 C.ar    1  UNL1        0.1403
     13 C          -7.6306  -15.4981   25.6371 C.ar    1  UNL1        0.0328
     14 C          -8.4365  -16.3508   24.7024 C.ar    1  UNL1        0.0398
     15 C          -7.7810  -16.9833   23.5107 C.ar    1  UNL1        0.1470
     16 C          -6.3196  -16.7634   23.2536 C.ar    1  UNL1        0.0398
     17 C          -5.5137  -15.9107   24.1883 C.ar    1  UNL1        0.0328
@<TRIPOS>BOND
     1    11    12    1
     2    12    13   ar
     3    13    14   ar
     4    14    15   ar
     5    15    10    1
     6    10     1    1
     7     1     2    2
     8     2     3    1
     9     3     4    2
    10     4     5    1
    11     5     6    2
    12     6     7    1
    13     7     8    2
    14     8     9    1
    15    15    16   ar
    16    16    17   ar
    17    17    12   ar
    18     9     1    1
    19     9     5    1
