@<TRIPOS>MOLECULE
*****
 32 34 0 0 0
SMALL
GASTEIGER

@<TRIPOS>ATOM
      1 S          -8.8640  -19.7896   22.6250 S.O2    1  UNL1        0.0736
      2 O          -8.5025  -19.3488   21.2376 O.2     1  UNL1       -0.1499
      3 O          -9.2255  -20.2303   24.0125 O.2     1  UNL1       -0.1499
      4 C         -10.1428  -19.0103   22.5394 C.ar    1  UNL1        0.1251
      5 C         -11.1668  -19.1274   23.6292 C.ar    1  UNL1        0.0240
      6 C         -12.4457  -18.3481   23.5436 C.ar    1  UNL1        0.0727
      7 C         -12.7005  -17.4519   22.3682 C.ar    1  UNL1        0.0078
      8 C         -11.6766  -17.3348   21.2784 C.ar    1  UNL1        0.0727
      9 C         -10.3977  -18.1141   21.3640 C.ar    1  UNL1        0.0240
     10 C         -13.4697  -18.4652   24.6335 C.3     1  UNL1        0.4186
     11 F         -14.4937  -18.5823   25.7233 F       1  UNL1       -0.1659
     12 F         -12.4142  -18.9724   25.5708 F       1  UNL1       -0.1659
     13 F         -14.5252  -17.9580   23.6962 F       1  UNL1       -0.1659
     14 C         -11.9314  -16.4385   20.1029 C.3     1  UNL1        0.4186
     15 F         -12.1862  -15.5423   18.9274 F       1  UNL1       -0.1659
     16 F         -10.7561  -17.0391   19.3902 F       1  UNL1       -0.1659
     17 F         -13.1067  -15.8380   20.8155 F       1  UNL1       -0.1659
     18 N          -7.5851  -20.5688   22.7107 N.pl3   1  UNL1       -0.2150
     19 H          -7.5511  -21.4032   23.2320 H       1  UNL1        0.1737
     20 C          -3.9041  -19.0926   20.5845 C.ar    1  UNL1        0.0002
     21 C          -4.6625  -20.2680   20.0428 C.ar    1  UNL1        0.0013
     22 C          -5.8895  -20.7600   20.7515 C.ar    1  UNL1        0.0159
     23 C          -6.3582  -20.0767   22.0020 C.ar    1  UNL1        0.0648
     24 C          -5.5998  -18.9014   22.5436 C.ar    1  UNL1        0.0159
     25 C          -4.3728  -18.4093   21.8348 C.ar    1  UNL1        0.0013
     26 C           1.1327  -17.8181   20.6653 C.3     1  UNL1        0.0521
     27 C          -0.1587  -17.9633   19.9161 C.ar    1  UNL1        0.0594
     28 C          -1.3857  -18.4553   20.6248 C.ar    1  UNL1        0.0147
     29 C          -2.6771  -18.6005   19.8757 C.ar    1  UNL1        0.0027
     30 C          -2.7415  -18.2537   18.4178 C.ar    1  UNL1        0.0207
     31 C          -1.5145  -17.7616   17.7091 C.ar    1  UNL1        0.0984
     32 N          -0.2231  -17.6164   18.4583 N.ar    1  UNL1       -0.2481
@<TRIPOS>BOND
     1    26    27    1
     2    27    28   ar
     3    28    29   ar
     4    29    20    1
     5    20    21   ar
     6    21    22   ar
     7    22    23   ar
     8    23    18    1
     9    18     1    1
    10     1     2    2
    11     1     3    2
    12     1     4    1
    13     4     5   ar
    14     5     6   ar
    15     6    10    1
    16    10    11    1
    17    10    12    1
    18    10    13    1
    19     6     7   ar
    20     7     8   ar
    21     8    14    1
    22    14    15    1
    23    14    16    1
    24    14    17    1
    25     8     9   ar
    26    23    24   ar
    27    24    25   ar
    28    29    30   ar
    29    30    31   ar
    30    31    32   ar
    31    32    27   ar
    32    25    20   ar
    33     9     4   ar
    34    18    19    1
@<TRIPOS>MOLECULE
*****
 32 34 0 0 0
SMALL
GASTEIGER

@<TRIPOS>ATOM
      1 S          -8.8650  -19.7999   22.6149 S.O2    1  UNL1        0.0736
      2 O          -9.1961  -20.1964   24.0231 O.2     1  UNL1       -0.1499
      3 O          -8.5338  -19.4034   21.2067 O.2     1  UNL1       -0.1499
      4 C         -10.1411  -19.0156   22.5356 C.ar    1  UNL1        0.1251
      5 C         -10.3949  -18.1126   21.3651 C.ar    1  UNL1        0.0240
      6 C         -11.6711  -17.3283   21.2858 C.ar    1  UNL1        0.0727
      7 C         -12.6934  -17.4469   22.3770 C.ar    1  UNL1        0.0078
      8 C         -12.4395  -18.3499   23.5475 C.ar    1  UNL1        0.0727
      9 C         -11.1634  -19.1343   23.6268 C.ar    1  UNL1        0.0240
     10 C         -11.9249  -16.4252   20.1153 C.3     1  UNL1        0.4186
     11 F         -12.1788  -15.5222   18.9448 F       1  UNL1       -0.1659
     12 F         -10.7680  -17.0432   19.3876 F       1  UNL1       -0.1659
     13 F         -13.0819  -15.8072   20.8429 F       1  UNL1       -0.1659
     14 C         -13.4619  -18.4687   24.6388 C.3     1  UNL1        0.4186
     15 F         -14.4841  -18.5874   25.7301 F       1  UNL1       -0.1659
     16 F         -12.4027  -18.9671   25.5768 F       1  UNL1       -0.1659
     17 F         -14.5210  -17.9702   23.7009 F       1  UNL1       -0.1659
     18 N          -7.5888  -20.5842   22.6942 N.pl3   1  UNL1       -0.2150
     19 H          -7.5575  -21.4227   23.2092 H       1  UNL1        0.1737
     20 C          -3.9033  -19.1047   20.5781 C.ar    1  UNL1        0.0002
     21 C          -4.3878  -18.4090   21.8155 C.ar    1  UNL1        0.0013
     22 C          -5.6163  -18.9022   22.5209 C.ar    1  UNL1        0.0159
     23 C          -6.3603  -20.0911   21.9888 C.ar    1  UNL1        0.0648
     24 C          -5.8758  -20.7868   20.7514 C.ar    1  UNL1        0.0159
     25 C          -4.6472  -20.2936   20.0460 C.ar    1  UNL1        0.0013
     26 C           1.1252  -17.7995   20.6793 C.3     1  UNL1        0.0521
     27 C          -0.1605  -17.9589   19.9234 C.ar    1  UNL1        0.0594
     28 C          -1.3890  -18.4521   20.6286 C.ar    1  UNL1        0.0147
     29 C          -2.6747  -18.6115   19.8727 C.ar    1  UNL1        0.0027
     30 C          -2.7320  -18.2778   18.4115 C.ar    1  UNL1        0.0207
     31 C          -1.5035  -17.7846   17.7062 C.ar    1  UNL1        0.0984
     32 N          -0.2177  -17.6252   18.4621 N.ar    1  UNL1       -0.2481
@<TRIPOS>BOND
     1    26    27    1
     2    27    28   ar
     3    28    29   ar
     4    29    20    1
     5    20    21   ar
     6    21    22   ar
     7    22    23   ar
     8    23    18    1
     9    18     1    1
    10     1     2    2
    11     1     3    2
    12     1     4    1
    13     4     5   ar
    14     5     6   ar
    15     6    10    1
    16    10    11    1
    17    10    12    1
    18    10    13    1
    19     6     7   ar
    20     7     8   ar
    21     8    14    1
    22    14    15    1
    23    14    16    1
    24    14    17    1
    25     8     9   ar
    26    23    24   ar
    27    24    25   ar
    28    29    30   ar
    29    30    31   ar
    30    31    32   ar
    31    32    27   ar
    32    25    20   ar
    33     9     4   ar
    34    18    19    1
@<TRIPOS>MOLECULE
*****
 32 34 0 0 0
SMALL
GASTEIGER

@<TRIPOS>ATOM
      1 S          -1.1588    3.3349   20.6283 S.O2    1  UNL1        0.0736
      2 O          -0.6970    3.1767   22.0466 O.2     1  UNL1       -0.1499
      3 O          -1.6207    3.4931   19.2100 O.2     1  UNL1       -0.1499
      4 C          -2.5790    3.4311   21.1015 C.ar    1  UNL1        0.1251
      5 C          -3.6978    3.5083   20.1055 C.ar    1  UNL1        0.0240
      6 C          -5.1180    3.6045   20.5787 C.ar    1  UNL1        0.0727
      7 C          -5.4193    3.6236   22.0480 C.ar    1  UNL1        0.0078
      8 C          -4.3004    3.5465   23.0440 C.ar    1  UNL1        0.0727
      9 C          -2.8803    3.4502   22.5708 C.ar    1  UNL1        0.0240
     10 C          -6.2369    3.6816   19.5826 C.3     1  UNL1        0.4186
     11 F          -7.3557    3.7587   18.5864 F       1  UNL1       -0.1659
     12 F          -7.1232    4.2951   20.6256 F       1  UNL1       -0.1659
     13 F          -5.3505    3.0681   18.5395 F       1  UNL1       -0.1659
     14 C          -4.6017    3.5656   24.5134 C.3     1  UNL1        0.4186
     15 F          -4.9029    3.5847   25.9827 F       1  UNL1       -0.1659
     16 F          -3.1813    3.1852   24.8095 F       1  UNL1       -0.1659
     17 F          -6.0221    3.9460   24.2173 F       1  UNL1       -0.1659
     18 N           0.2613    3.2387   20.1551 N.pl3   1  UNL1       -0.2150
     19 H           0.6864    4.0093   19.7139 H       1  UNL1        0.1737
     20 C           2.5786   -0.5723   20.7522 C.ar    1  UNL1        0.0002
     21 C           1.2121   -0.6143   20.1351 C.ar    1  UNL1        0.0013
     22 C           0.4397    0.6560   19.9360 C.ar    1  UNL1        0.0159
     23 C           1.0337    1.9684   20.3541 C.ar    1  UNL1        0.0648
     24 C           2.4002    2.0104   20.9713 C.ar    1  UNL1        0.0159
     25 C           3.1727    0.7401   21.1704 C.ar    1  UNL1        0.0013
     26 C           4.5138   -5.0062   18.8561 C.3     1  UNL1        0.0521
     27 C           4.3186   -4.0596   20.0032 C.ar    1  UNL1        0.0594
     28 C           3.5462   -2.7892   19.8042 C.ar    1  UNL1        0.0147
     29 C           3.3510   -1.8426   20.9513 C.ar    1  UNL1        0.0027
     30 C           3.9283   -2.1664   22.2974 C.ar    1  UNL1        0.0207
     31 C           4.7006   -3.4367   22.4963 C.ar    1  UNL1        0.0984
     32 N           4.8958   -4.3833   21.3492 N.ar    1  UNL1       -0.2481
@<TRIPOS>BOND
     1    26    27    1
     2    27    28   ar
     3    28    29   ar
     4    29    20    1
     5    20    21   ar
     6    21    22   ar
     7    22    23   ar
     8    23    18    1
     9    18     1    1
    10     1     2    2
    11     1     3    2
    12     1     4    1
    13     4     5   ar
    14     5     6   ar
    15     6    10    1
    16    10    11    1
    17    10    12    1
    18    10    13    1
    19     6     7   ar
    20     7     8   ar
    21     8    14    1
    22    14    15    1
    23    14    16    1
    24    14    17    1
    25     8     9   ar
    26    23    24   ar
    27    24    25   ar
    28    29    30   ar
    29    30    31   ar
    30    31    32   ar
    31    32    27   ar
    32    25    20   ar
    33     9     4   ar
    34    18    19    1
@<TRIPOS>MOLECULE
*****
 32 34 0 0 0
SMALL
GASTEIGER

@<TRIPOS>ATOM
      1 S          -1.1396    3.3535   20.6706 S.O2    1  UNL1        0.0736
      2 O          -1.5879    3.4877   19.2454 O.2     1  UNL1       -0.1499
      3 O          -0.6913    3.2192   22.0957 O.2     1  UNL1       -0.1499
      4 C          -2.5654    3.4446   21.1276 C.ar    1  UNL1        0.1251
      5 C          -2.8829    3.4707   22.5934 C.ar    1  UNL1        0.0240
      6 C          -4.3086    3.5618   23.0505 C.ar    1  UNL1        0.0727
      7 C          -5.4169    3.6268   22.0418 C.ar    1  UNL1        0.0078
      8 C          -5.0994    3.6007   20.5760 C.ar    1  UNL1        0.0727
      9 C          -3.6736    3.5096   20.1190 C.ar    1  UNL1        0.0240
     10 C          -4.6261    3.5879   24.5163 C.3     1  UNL1        0.4186
     11 F          -4.9436    3.6140   25.9821 F       1  UNL1       -0.1659
     12 F          -3.2111    3.2010   24.8297 F       1  UNL1       -0.1659
     13 F          -6.0410    3.9747   24.2029 F       1  UNL1       -0.1659
     14 C          -6.2077    3.6657   19.5673 C.3     1  UNL1        0.4186
     15 F          -7.3159    3.7307   18.5585 F       1  UNL1       -0.1659
     16 F          -5.2947    3.0877   18.5270 F       1  UNL1       -0.1659
     17 F          -7.1207    4.2437   20.6076 F       1  UNL1       -0.1659
     18 N           0.2861    3.2624   20.2135 N.pl3   1  UNL1       -0.2150
     19 H           0.7181    4.0394   19.7905 H       1  UNL1        0.1737
     20 C           2.5891   -0.5626   20.7754 C.ar    1  UNL1        0.0002
     21 C           1.1993   -0.5998   20.2124 C.ar    1  UNL1        0.0013
     22 C           0.4316    0.6752   20.0250 C.ar    1  UNL1        0.0159
     23 C           1.0538    1.9874   20.4008 C.ar    1  UNL1        0.0648
     24 C           2.4436    2.0245   20.9639 C.ar    1  UNL1        0.0159
     25 C           3.2112    0.7495   21.1512 C.ar    1  UNL1        0.0013
     26 C           4.5248   -4.9765   18.8336 C.3     1  UNL1        0.0521
     27 C           4.3245   -4.0446   19.9918 C.ar    1  UNL1        0.0594
     28 C           3.5569   -2.7696   19.8046 C.ar    1  UNL1        0.0147
     29 C           3.3567   -1.8377   20.9628 C.ar    1  UNL1        0.0027
     30 C           3.9241   -2.1808   22.3082 C.ar    1  UNL1        0.0207
     31 C           4.6917   -3.4558   22.4955 C.ar    1  UNL1        0.0984
     32 N           4.8919   -4.3877   21.3373 N.ar    1  UNL1       -0.2481
@<TRIPOS>BOND
     1    26    27    1
     2    27    28   ar
     3    28    29   ar
     4    29    20    1
     5    20    21   ar
     6    21    22   ar
     7    22    23   ar
     8    23    18    1
     9    18     1    1
    10     1     2    2
    11     1     3    2
    12     1     4    1
    13     4     5   ar
    14     5     6   ar
    15     6    10    1
    16    10    11    1
    17    10    12    1
    18    10    13    1
    19     6     7   ar
    20     7     8   ar
    21     8    14    1
    22    14    15    1
    23    14    16    1
    24    14    17    1
    25     8     9   ar
    26    23    24   ar
    27    24    25   ar
    28    29    30   ar
    29    30    31   ar
    30    31    32   ar
    31    32    27   ar
    32    25    20   ar
    33     9     4   ar
    34    18    19    1
@<TRIPOS>MOLECULE
*****
 32 34 0 0 0
SMALL
GASTEIGER

@<TRIPOS>ATOM
      1 S          -1.1882    3.2593   21.1827 S.O2    1  UNL1        0.0736
      2 O           0.0757    3.7630   21.8144 O.2     1  UNL1       -0.1499
      3 O          -2.4520    2.7556   20.5511 O.2     1  UNL1       -0.1499
      4 C          -1.8943    3.3782   22.5008 C.ar    1  UNL1        0.1251
      5 C          -3.3732    3.6257   22.5397 C.ar    1  UNL1        0.0240
      6 C          -4.0792    3.7446   23.8578 C.ar    1  UNL1        0.0727
      7 C          -3.3064    3.6161   25.1369 C.ar    1  UNL1        0.0078
      8 C          -1.8275    3.3686   25.0980 C.ar    1  UNL1        0.0727
      9 C          -1.1215    3.2497   23.7799 C.ar    1  UNL1        0.0240
     10 C          -5.5582    3.9921   23.8967 C.3     1  UNL1        0.4186
     11 F          -7.0371    4.2396   23.9356 F       1  UNL1       -0.1659
     12 F          -5.5281    4.3994   22.4534 F       1  UNL1       -0.1659
     13 F          -5.5884    3.5848   25.3400 F       1  UNL1       -0.1659
     14 C          -1.0547    3.2400   26.3771 C.3     1  UNL1        0.4186
     15 F          -0.2819    3.1114   27.6563 F       1  UNL1       -0.1659
     16 F          -2.3181    2.8881   27.1051 F       1  UNL1       -0.1659
     17 F           0.2087    3.5919   25.6492 F       1  UNL1       -0.1659
     18 N          -0.4821    3.1404   19.8647 N.pl3   1  UNL1       -0.2150
     19 H          -0.6620    3.7923   19.1492 H       1  UNL1        0.1737
     20 C           2.4589   -0.1962   19.1806 C.ar    1  UNL1        0.0002
     21 C           1.2368   -0.4334   20.0174 C.ar    1  UNL1        0.0013
     22 C           0.2565    0.6788   20.2455 C.ar    1  UNL1        0.0159
     23 C           0.4983    2.0282   19.6366 C.ar    1  UNL1        0.0648
     24 C           1.7203    2.2655   18.7998 C.ar    1  UNL1        0.0159
     25 C           2.7007    1.1532   18.5718 C.ar    1  UNL1        0.0013
     26 C           3.7617   -5.2071   19.6208 C.3     1  UNL1        0.0521
     27 C           4.0906   -3.8139   19.1727 C.ar    1  UNL1        0.0594
     28 C           3.1103   -2.7016   19.4007 C.ar    1  UNL1        0.0147
     29 C           3.4392   -1.3084   18.9526 C.ar    1  UNL1        0.0027
     30 C           4.7484   -1.0274   18.2765 C.ar    1  UNL1        0.0207
     31 C           5.7286   -2.1397   18.0486 C.ar    1  UNL1        0.0984
     32 N           5.3997   -3.5329   18.4966 N.ar    1  UNL1       -0.2481
@<TRIPOS>BOND
     1    26    27    1
     2    27    28   ar
     3    28    29   ar
     4    29    20    1
     5    20    21   ar
     6    21    22   ar
     7    22    23   ar
     8    23    18    1
     9    18     1    1
    10     1     2    2
    11     1     3    2
    12     1     4    1
    13     4     5   ar
    14     5     6   ar
    15     6    10    1
    16    10    11    1
    17    10    12    1
    18    10    13    1
    19     6     7   ar
    20     7     8   ar
    21     8    14    1
    22    14    15    1
    23    14    16    1
    24    14    17    1
    25     8     9   ar
    26    23    24   ar
    27    24    25   ar
    28    29    30   ar
    29    30    31   ar
    30    31    32   ar
    31    32    27   ar
    32    25    20   ar
    33     9     4   ar
    34    18    19    1
@<TRIPOS>MOLECULE
*****
 32 34 0 0 0
SMALL
GASTEIGER

@<TRIPOS>ATOM
      1 S          -1.3368    3.2515   21.3242 S.O2    1  UNL1        0.0736
      2 O          -0.0258    3.7172   21.8848 O.2     1  UNL1       -0.1499
      3 O          -2.6478    2.7857   20.7636 O.2     1  UNL1       -0.1499
      4 C          -1.9642    3.3853   22.6802 C.ar    1  UNL1        0.1251
      5 C          -1.1179    3.2677   23.9130 C.ar    1  UNL1        0.0240
      6 C          -1.7452    3.4015   25.2689 C.ar    1  UNL1        0.0727
      7 C          -3.2189    3.6529   25.3920 C.ar    1  UNL1        0.0078
      8 C          -4.0651    3.7705   24.1592 C.ar    1  UNL1        0.0727
      9 C          -3.4378    3.6367   22.8032 C.ar    1  UNL1        0.0240
     10 C          -0.8989    3.2839   26.5018 C.3     1  UNL1        0.4186
     11 F          -0.0526    3.1663   27.7346 F       1  UNL1       -0.1659
     12 F           0.2298    3.9717   25.7926 F       1  UNL1       -0.1659
     13 F          -2.0276    2.5961   27.2110 F       1  UNL1       -0.1659
     14 C          -5.5388    4.0220   24.2822 C.3     1  UNL1        0.4186
     15 F          -7.0124    4.2734   24.4052 F       1  UNL1       -0.1659
     16 F          -5.7767    3.2444   23.0218 F       1  UNL1       -0.1659
     17 F          -5.3010    4.7996   25.5426 F       1  UNL1       -0.1659
     18 N          -0.7095    3.1176   19.9683 N.pl3   1  UNL1       -0.2150
     19 H          -0.9692    3.7307   19.2431 H       1  UNL1        0.1737
     20 C           2.3599   -0.0859   19.2154 C.ar    1  UNL1        0.0002
     21 C           2.4796    1.2433   18.5306 C.ar    1  UNL1        0.0013
     22 C           1.4565    2.3112   18.7816 C.ar    1  UNL1        0.0159
     23 C           0.3136    2.0498   19.7174 C.ar    1  UNL1        0.0648
     24 C           0.1939    0.7206   20.4021 C.ar    1  UNL1        0.0159
     25 C           1.2171   -0.3472   20.1511 C.ar    1  UNL1        0.0013
     26 C           3.8350   -5.0602   19.4980 C.3     1  UNL1        0.0521
     27 C           4.1205   -3.6409   19.1057 C.ar    1  UNL1        0.0594
     28 C           3.0974   -2.5730   19.3567 C.ar    1  UNL1        0.0147
     29 C           3.3830   -1.1537   18.9644 C.ar    1  UNL1        0.0027
     30 C           4.6917   -0.8022   18.3211 C.ar    1  UNL1        0.0207
     31 C           5.7147   -1.8700   18.0702 C.ar    1  UNL1        0.0984
     32 N           5.4292   -3.2893   18.4625 N.ar    1  UNL1       -0.2481
@<TRIPOS>BOND
     1    26    27    1
     2    27    28   ar
     3    28    29   ar
     4    29    20    1
     5    20    21   ar
     6    21    22   ar
     7    22    23   ar
     8    23    18    1
     9    18     1    1
    10     1     2    2
    11     1     3    2
    12     1     4    1
    13     4     5   ar
    14     5     6   ar
    15     6    10    1
    16    10    11    1
    17    10    12    1
    18    10    13    1
    19     6     7   ar
    20     7     8   ar
    21     8    14    1
    22    14    15    1
    23    14    16    1
    24    14    17    1
    25     8     9   ar
    26    23    24   ar
    27    24    25   ar
    28    29    30   ar
    29    30    31   ar
    30    31    32   ar
    31    32    27   ar
    32    25    20   ar
    33     9     4   ar
    34    18    19    1
@<TRIPOS>MOLECULE
*****
 32 34 0 0 0
SMALL
GASTEIGER

@<TRIPOS>ATOM
      1 S           4.8782   -1.3490   23.3156 S.O2    1  UNL1        0.0736
      2 O           6.1843   -1.1351   22.6097 O.2     1  UNL1       -0.1499
      3 O           3.5721   -1.5629   24.0215 O.2     1  UNL1       -0.1499
      4 C           4.2235   -1.6743   22.0058 C.ar    1  UNL1        0.1251
      5 C           4.6212   -2.9105   21.2551 C.ar    1  UNL1        0.0240
      6 C           3.9666   -3.2357   19.9453 C.ar    1  UNL1        0.0727
      7 C           2.9142   -2.3248   19.3862 C.ar    1  UNL1        0.0078
      8 C           2.5165   -1.0886   20.1369 C.ar    1  UNL1        0.0727
      9 C           3.1712   -0.7633   21.4467 C.ar    1  UNL1        0.0240
     10 C           4.3643   -4.4720   19.1946 C.3     1  UNL1        0.4186
     11 F           4.7620   -5.7082   18.4439 F       1  UNL1       -0.1659
     12 F           5.7834   -4.2887   19.6445 F       1  UNL1       -0.1659
     13 F           2.9452   -4.6553   18.7446 F       1  UNL1       -0.1659
     14 C           1.4640   -0.1776   19.5778 C.3     1  UNL1        0.4186
     15 F           0.4116    0.7334   19.0187 F       1  UNL1       -0.1659
     16 F           0.4679   -0.7294   20.5540 F       1  UNL1       -0.1659
     17 F           2.4602    0.3742   18.6015 F       1  UNL1       -0.1659
     18 N           5.5329   -1.0237   24.6254 N.pl3   1  UNL1       -0.2150
     19 H           5.5463   -0.0950   24.9518 H       1  UNL1        0.1737
     20 C           7.4357   -4.2929   27.0629 C.ar    1  UNL1        0.0002
     21 C           7.3228   -2.9069   27.6254 C.ar    1  UNL1        0.0013
     22 C           6.6885   -1.8172   26.8129 C.ar    1  UNL1        0.0159
     23 C           6.1672   -2.1135   25.4379 C.ar    1  UNL1        0.0648
     24 C           6.2801   -3.4994   24.8755 C.ar    1  UNL1        0.0159
     25 C           6.9144   -4.5892   25.6880 C.ar    1  UNL1        0.0013
     26 C           8.7449   -9.2870   27.6506 C.3     1  UNL1        0.0521
     27 C           8.7246   -7.8797   28.1693 C.ar    1  UNL1        0.0594
     28 C           8.0904   -6.7900   27.3568 C.ar    1  UNL1        0.0147
     29 C           8.0701   -5.3827   27.8755 C.ar    1  UNL1        0.0027
     30 C           8.6840   -5.0651   29.2067 C.ar    1  UNL1        0.0207
     31 C           9.3183   -6.1548   30.0192 C.ar    1  UNL1        0.0984
     32 N           9.3386   -7.5621   29.5005 N.ar    1  UNL1       -0.2481
@<TRIPOS>BOND
     1    26    27    1
     2    27    28   ar
     3    28    29   ar
     4    29    20    1
     5    20    21   ar
     6    21    22   ar
     7    22    23   ar
     8    23    18    1
     9    18     1    1
    10     1     2    2
    11     1     3    2
    12     1     4    1
    13     4     5   ar
    14     5     6   ar
    15     6    10    1
    16    10    11    1
    17    10    12    1
    18    10    13    1
    19     6     7   ar
    20     7     8   ar
    21     8    14    1
    22    14    15    1
    23    14    16    1
    24    14    17    1
    25     8     9   ar
    26    23    24   ar
    27    24    25   ar
    28    29    30   ar
    29    30    31   ar
    30    31    32   ar
    31    32    27   ar
    32    25    20   ar
    33     9     4   ar
    34    18    19    1
@<TRIPOS>MOLECULE
*****
 32 34 0 0 0
SMALL
GASTEIGER

@<TRIPOS>ATOM
      1 S           4.9119   -1.3181   23.3103 S.O2    1  UNL1        0.0736
      2 O           6.2106   -1.0886   22.5956 O.2     1  UNL1       -0.1499
      3 O           3.6133   -1.5476   24.0251 O.2     1  UNL1       -0.1499
      4 C           4.2476   -1.6319   22.0026 C.ar    1  UNL1        0.1251
      5 C           3.1920   -0.7155   21.4587 C.ar    1  UNL1        0.0240
      6 C           2.5276   -1.0292   20.1509 C.ar    1  UNL1        0.0727
      7 C           2.9190   -2.2593   19.3870 C.ar    1  UNL1        0.0078
      8 C           3.9746   -3.1757   19.9309 C.ar    1  UNL1        0.0727
      9 C           4.6389   -2.8620   21.2386 C.ar    1  UNL1        0.0240
     10 C           1.4720   -0.1127   19.6071 C.3     1  UNL1        0.4186
     11 F           0.4163    0.8037   19.0633 F       1  UNL1       -0.1659
     12 F           2.4657    0.4575   18.6389 F       1  UNL1       -0.1659
     13 F           0.4783   -0.6829   20.5753 F       1  UNL1       -0.1659
     14 C           4.3659   -4.4059   19.1670 C.3     1  UNL1        0.4186
     15 F           4.7572   -5.6361   18.4031 F       1  UNL1       -0.1659
     16 F           2.9269   -4.6485   18.8205 F       1  UNL1       -0.1659
     17 F           5.8050   -4.1633   19.5135 F       1  UNL1       -0.1659
     18 N           5.5762   -1.0044   24.6181 N.pl3   1  UNL1       -0.2150
     19 H           5.5905   -0.0788   24.9534 H       1  UNL1        0.1737
     20 C           7.5039   -4.2935   27.0088 C.ar    1  UNL1        0.0002
     21 C           7.4446   -2.9004   27.5616 C.ar    1  UNL1        0.0013
     22 C           6.8021   -1.8040   26.7647 C.ar    1  UNL1        0.0159
     23 C           6.2188   -2.1008   25.4150 C.ar    1  UNL1        0.0648
     24 C           6.2780   -3.4939   24.8622 C.ar    1  UNL1        0.0159
     25 C           6.9206   -4.5903   25.6591 C.ar    1  UNL1        0.0013
     26 C           8.5844   -9.3322   27.6757 C.3     1  UNL1        0.0521
     27 C           8.6867   -7.9092   28.1391 C.ar    1  UNL1        0.0594
     28 C           8.0442   -6.8129   27.3423 C.ar    1  UNL1        0.0147
     29 C           8.1465   -5.3899   27.8057 C.ar    1  UNL1        0.0027
     30 C           8.8913   -5.0634   29.0661 C.ar    1  UNL1        0.0207
     31 C           9.5338   -6.1598   29.8630 C.ar    1  UNL1        0.0984
     32 N           9.4316   -7.5827   29.3995 N.ar    1  UNL1       -0.2481
@<TRIPOS>BOND
     1    26    27    1
     2    27    28   ar
     3    28    29   ar
     4    29    20    1
     5    20    21   ar
     6    21    22   ar
     7    22    23   ar
     8    23    18    1
     9    18     1    1
    10     1     2    2
    11     1     3    2
    12     1     4    1
    13     4     5   ar
    14     5     6   ar
    15     6    10    1
    16    10    11    1
    17    10    12    1
    18    10    13    1
    19     6     7   ar
    20     7     8   ar
    21     8    14    1
    22    14    15    1
    23    14    16    1
    24    14    17    1
    25     8     9   ar
    26    23    24   ar
    27    24    25   ar
    28    29    30   ar
    29    30    31   ar
    30    31    32   ar
    31    32    27   ar
    32    25    20   ar
    33     9     4   ar
    34    18    19    1
@<TRIPOS>MOLECULE
*****
 32 34 0 0 0
SMALL
GASTEIGER

@<TRIPOS>ATOM
      1 S           1.9719    0.5477   20.5227 S.O2    1  UNL1        0.0736
      2 O           3.0648    1.5687   20.6372 O.2     1  UNL1       -0.1499
      3 O           0.8790   -0.4734   20.4082 O.2     1  UNL1       -0.1499
      4 C           2.9168   -0.3857   19.8256 C.ar    1  UNL1        0.1251
      5 C           2.8145   -1.8647   20.0532 C.ar    1  UNL1        0.0240
      6 C           3.7594   -2.7980   19.3561 C.ar    1  UNL1        0.0727
      7 C           4.8067   -2.2523   18.4313 C.ar    1  UNL1        0.0078
      8 C           4.9091   -0.7732   18.2036 C.ar    1  UNL1        0.0727
      9 C           3.9641    0.1601   18.9008 C.ar    1  UNL1        0.0240
     10 C           3.6571   -4.2771   19.5838 C.3     1  UNL1        0.4186
     11 F           3.5547   -5.7562   19.8115 F       1  UNL1       -0.1659
     12 F           2.4956   -4.3426   18.6369 F       1  UNL1       -0.1659
     13 F           4.8185   -4.2117   20.5307 F       1  UNL1       -0.1659
     14 C           5.9564   -0.2274   17.2788 C.3     1  UNL1        0.4186
     15 F           7.0037    0.3184   16.3540 F       1  UNL1       -0.1659
     16 F           6.7686   -1.4750   17.4624 F       1  UNL1       -0.1659
     17 F           5.1441    1.0202   17.0951 F       1  UNL1       -0.1659
     18 N           1.0270    1.4810   21.2199 N.pl3   1  UNL1       -0.2150
     19 H           0.4916    2.1207   20.6970 H       1  UNL1        0.1737
     20 C           0.6390    1.3569   25.7014 C.ar    1  UNL1        0.0002
     21 C          -0.3246    2.1687   24.8873 C.ar    1  UNL1        0.0013
     22 C          -0.1953    2.2100   23.3935 C.ar    1  UNL1        0.0159
     23 C           0.8976    1.4396   22.7137 C.ar    1  UNL1        0.0648
     24 C           1.8612    0.6279   23.5277 C.ar    1  UNL1        0.0159
     25 C           1.7318    0.5865   25.0216 C.ar    1  UNL1        0.0013
     26 C           2.4986    2.5156   30.4130 C.3     1  UNL1        0.0521
     27 C           1.4395    1.8949   29.5510 C.ar    1  UNL1        0.0594
     28 C           1.5688    1.9362   28.0572 C.ar    1  UNL1        0.0147
     29 C           0.5096    1.3156   27.1953 C.ar    1  UNL1        0.0027
     30 C          -0.6789    0.6536   27.8271 C.ar    1  UNL1        0.0207
     31 C          -0.8082    0.6123   29.3210 C.ar    1  UNL1        0.0984
     32 N           0.2510    1.2330   30.1829 N.ar    1  UNL1       -0.2481
@<TRIPOS>BOND
     1    26    27    1
     2    27    28   ar
     3    28    29   ar
     4    29    20    1
     5    20    21   ar
     6    21    22   ar
     7    22    23   ar
     8    23    18    1
     9    18     1    1
    10     1     2    2
    11     1     3    2
    12     1     4    1
    13     4     5   ar
    14     5     6   ar
    15     6    10    1
    16    10    11    1
    17    10    12    1
    18    10    13    1
    19     6     7   ar
    20     7     8   ar
    21     8    14    1
    22    14    15    1
    23    14    16    1
    24    14    17    1
    25     8     9   ar
    26    23    24   ar
    27    24    25   ar
    28    29    30   ar
    29    30    31   ar
    30    31    32   ar
    31    32    27   ar
    32    25    20   ar
    33     9     4   ar
    34    18    19    1
