@<TRIPOS>MOLECULE
*****
 35 38 0 0 0
SMALL
GASTEIGER

@<TRIPOS>ATOM
      1 C         -11.3814  -17.3302   21.0466 C.3     1  UNL1        0.1556
      2 O         -12.8668  -17.2037   20.8805 O.3     1  UNL1       -0.3805
      3 H         -13.2130  -18.0007   20.4494 H       1  UNL1        0.2105
      4 C         -10.6756  -18.5643   20.5681 C.3     1  UNL1        0.1007
      5 N          -9.3802  -18.4454   19.8210 N.3     1  UNL1       -0.2972
      6 H          -9.6055  -18.5131   18.8285 H       1  UNL1        0.1233
      7 C          -8.0704  -18.8306   21.4446 C.3     1  UNL1        0.0161
      8 C          -8.2721  -19.4224   20.0811 C.3     1  UNL1        0.0461
      9 C          -8.4738  -20.0142   18.7177 C.3     1  UNL1        0.0161
     10 C          -7.1640  -20.3993   20.3412 C.3     1  UNL1        0.0408
     11 C          -5.7791  -19.9023   20.6332 C.ar    1  UNL1       -0.0209
     12 C          -5.2107  -20.0342   22.0150 C.ar    1  UNL1       -0.0042
     13 C          -3.8259  -19.5373   22.3070 C.ar    1  UNL1       -0.0003
     14 C          -3.0094  -18.9082   21.2171 C.ar    1  UNL1       -0.0000
     15 C          -1.6246  -18.4112   21.5091 C.ar    1  UNL1       -0.0000
     16 C          -0.8083  -17.7823   20.4192 C.ar    1  UNL1       -0.0000
     17 C          -1.3767  -17.6503   19.0374 C.ar    1  UNL1       -0.0000
     18 C          -2.7615  -18.1472   18.7454 C.ar    1  UNL1       -0.0000
     19 C          -3.5778  -18.7762   19.8353 C.ar    1  UNL1       -0.0003
     20 C          -4.9627  -19.2733   19.5433 C.ar    1  UNL1       -0.0042
     21 C         -10.6018  -16.2226   21.6911 C.3     1  UNL1        0.1729
     22 O         -10.6551  -16.0348   23.1783 O.3     1  UNL1       -0.3492
     23 C          -9.8373  -16.9161   24.0754 C.3     1  UNL1        0.1374
     24 C          -8.5754  -16.3919   24.6941 C.ar    1  UNL1        0.0046
     25 C          -8.5583  -15.9939   26.1402 C.ar    1  UNL1       -0.0019
     26 C          -7.2965  -15.4697   26.7590 C.ar    1  UNL1       -0.0002
     27 C          -6.0516  -15.3436   25.9316 C.ar    1  UNL1        0.0011
     28 C          -6.0687  -15.7417   24.4855 C.ar    1  UNL1        0.0138
     29 C          -7.3307  -16.2658   23.8668 C.ar    1  UNL1       -0.0008
     30 C          -4.8239  -15.6156   23.6581 C.2     1  UNL1        0.0729
     31 O          -3.7514  -16.6600   23.7528 O.co2   1  UNL1       -0.5446
     32 O          -4.6516  -14.4450   22.7360 O.co2   1  UNL1       -0.5446
     33 C         -10.2815  -18.3215   24.3536 C.3     1  UNL1        0.0315
     34 C         -11.3823  -19.3177   24.5673 C.3     1  UNL1        0.0028
     35 C          -9.9499  -19.7596   24.6218 C.3     1  UNL1        0.0028
@<TRIPOS>UNITY_ATOM_ATTR
31 1
charge -1
@<TRIPOS>BOND
     1     7     8    1
     2     8     9    1
     3     8    10    1
     4    10    11    1
     5    11    12   ar
     6    12    13   ar
     7    13    14   ar
     8    14    15   ar
     9    15    16   ar
    10    16    17   ar
    11    17    18   ar
    12    18    19   ar
    13    19    20   ar
    14     8     5    1
    15     5     4    1
    16     4     1    1
    17     1     2    1
    18     1    21    1
    19    21    22    1
    20    22    23    1
    21    23    24    1
    22    24    25   ar
    23    25    26   ar
    24    26    27   ar
    25    27    28   ar
    26    28    30    1
    27    30    31   ar
    28    30    32   ar
    29    28    29   ar
    30    23    33    1
    31    33    34    1
    32    34    35    1
    33    20    11   ar
    34    29    24   ar
    35    35    33    1
    36    19    14   ar
    37     5     6    1
    38     2     3    1
@<TRIPOS>MOLECULE
*****
 35 38 0 0 0
SMALL
GASTEIGER

@<TRIPOS>ATOM
      1 C          -3.5712  -17.0006   23.2867 C.3     1  UNL1        0.1556
      2 O          -3.5487  -18.2260   24.1515 O.3     1  UNL1       -0.3805
      3 H          -2.7595  -18.7517   23.9470 H       1  UNL1        0.2105
      4 C          -2.4683  -16.7593   22.2990 C.3     1  UNL1        0.1007
      5 N          -1.9775  -17.8821   21.4338 N.3     1  UNL1       -0.2972
      6 H          -1.4032  -17.4615   20.7033 H       1  UNL1        0.1233
      7 C          -3.4189  -17.6366   19.8968 C.3     1  UNL1        0.0161
      8 C          -2.9597  -18.7840   20.7469 C.3     1  UNL1        0.0461
      9 C          -2.5005  -19.9314   21.5969 C.3     1  UNL1        0.0161
     10 C          -3.9418  -19.6860   20.0599 C.3     1  UNL1        0.0408
     11 C          -5.3740  -19.7128   20.5052 C.ar    1  UNL1       -0.0209
     12 C          -5.7040  -19.8407   21.9628 C.ar    1  UNL1       -0.0042
     13 C          -7.1361  -19.8675   22.4081 C.ar    1  UNL1       -0.0003
     14 C          -8.2384  -19.7664   21.3956 C.ar    1  UNL1       -0.0000
     15 C          -9.6705  -19.7932   21.8409 C.ar    1  UNL1       -0.0000
     16 C         -10.7726  -19.6920   20.8285 C.ar    1  UNL1       -0.0000
     17 C         -10.4426  -19.5641   19.3708 C.ar    1  UNL1       -0.0000
     18 C          -9.0105  -19.5373   18.9256 C.ar    1  UNL1       -0.0000
     19 C          -7.9084  -19.6384   19.9380 C.ar    1  UNL1       -0.0003
     20 C          -6.4762  -19.6116   19.4928 C.ar    1  UNL1       -0.0042
     21 C          -4.6965  -16.0164   23.4096 C.3     1  UNL1        0.1729
     22 O          -6.0851  -16.4102   23.0014 O.3     1  UNL1       -0.3492
     23 C          -7.2346  -16.1848   23.9384 C.3     1  UNL1        0.1374
     24 C          -8.6404  -16.4208   23.4714 C.ar    1  UNL1        0.0046
     25 C          -9.6169  -17.1315   24.3609 C.ar    1  UNL1       -0.0019
     26 C         -11.0226  -17.3675   23.8939 C.ar    1  UNL1       -0.0002
     27 C         -11.4519  -16.8929   22.5372 C.ar    1  UNL1        0.0011
     28 C         -10.4754  -16.1822   21.6476 C.ar    1  UNL1        0.0138
     29 C          -9.0696  -15.9462   22.1147 C.ar    1  UNL1       -0.0008
     30 C         -10.9046  -15.7076   20.2910 C.2     1  UNL1        0.0729
     31 O         -12.1384  -16.2746   19.6537 O.co2   1  UNL1       -0.5446
     32 O         -10.0999  -14.6659   19.5716 O.co2   1  UNL1       -0.5446
     33 C          -6.9783  -15.7233   25.3424 C.3     1  UNL1        0.0315
     34 C          -7.4678  -15.4776   26.7388 C.3     1  UNL1        0.0028
     35 C          -6.0448  -15.1697   26.3779 C.3     1  UNL1        0.0028
@<TRIPOS>UNITY_ATOM_ATTR
31 1
charge -1
@<TRIPOS>BOND
     1     7     8    1
     2     8     9    1
     3     8    10    1
     4    10    11    1
     5    11    12   ar
     6    12    13   ar
     7    13    14   ar
     8    14    15   ar
     9    15    16   ar
    10    16    17   ar
    11    17    18   ar
    12    18    19   ar
    13    19    20   ar
    14     8     5    1
    15     5     4    1
    16     4     1    1
    17     1     2    1
    18     1    21    1
    19    21    22    1
    20    22    23    1
    21    23    24    1
    22    24    25   ar
    23    25    26   ar
    24    26    27   ar
    25    27    28   ar
    26    28    30    1
    27    30    31   ar
    28    30    32   ar
    29    28    29   ar
    30    23    33    1
    31    33    34    1
    32    34    35    1
    33    20    11   ar
    34    29    24   ar
    35    35    33    1
    36    19    14   ar
    37     5     6    1
    38     2     3    1
@<TRIPOS>MOLECULE
*****
 35 38 0 0 0
SMALL
GASTEIGER

@<TRIPOS>ATOM
      1 C         -11.0879  -19.4170   23.9198 C.3     1  UNL1        0.1556
      2 O         -10.7140  -19.7065   25.3433 O.3     1  UNL1       -0.3805
      3 H          -9.9756  -20.3352   25.3622 H       1  UNL1        0.2105
      4 C         -10.3405  -20.0768   22.7990 C.3     1  UNL1        0.1007
      5 N          -9.3346  -19.2957   22.0063 N.3     1  UNL1       -0.2972
      6 H          -9.7510  -19.1225   21.0914 H       1  UNL1        0.1233
      7 C          -7.9606  -19.2516   20.3907 C.3     1  UNL1        0.0161
      8 C          -7.9688  -19.8647   21.7596 C.3     1  UNL1        0.0461
      9 C          -7.9770  -20.4778   23.1286 C.3     1  UNL1        0.0161
     10 C          -6.6030  -20.4337   21.5130 C.3     1  UNL1        0.0408
     11 C          -5.4025  -19.5343   21.5249 C.ar    1  UNL1       -0.0209
     12 C          -5.1434  -18.6449   22.7046 C.ar    1  UNL1       -0.0042
     13 C          -3.9430  -17.7455   22.7166 C.ar    1  UNL1       -0.0003
     14 C          -3.0016  -17.7356   21.5487 C.ar    1  UNL1       -0.0000
     15 C          -1.8012  -16.8363   21.5606 C.ar    1  UNL1       -0.0000
     16 C          -0.8599  -16.8264   20.3929 C.ar    1  UNL1       -0.0000
     17 C          -1.1190  -17.7159   19.2131 C.ar    1  UNL1       -0.0000
     18 C          -2.3194  -18.6152   19.2012 C.ar    1  UNL1       -0.0000
     19 C          -3.2607  -18.6251   20.3690 C.ar    1  UNL1       -0.0003
     20 C          -4.4612  -19.5244   20.3571 C.ar    1  UNL1       -0.0042
     21 C         -12.2092  -18.4678   23.6170 C.3     1  UNL1        0.1729
     22 O         -11.9280  -17.0041   23.4484 O.3     1  UNL1       -0.3492
     23 C         -10.8178  -16.5528   22.5462 C.3     1  UNL1        0.1374
     24 C          -9.4859  -16.1781   23.1255 C.ar    1  UNL1        0.0046
     25 C          -8.3662  -15.7567   22.2207 C.ar    1  UNL1       -0.0019
     26 C          -7.0344  -15.3820   22.8000 C.ar    1  UNL1       -0.0002
     27 C          -6.8221  -15.4286   24.2842 C.ar    1  UNL1        0.0011
     28 C          -7.9418  -15.8500   25.1891 C.ar    1  UNL1        0.0138
     29 C          -9.2738  -16.2247   24.6097 C.ar    1  UNL1       -0.0008
     30 C          -7.7297  -15.8967   26.6732 C.2     1  UNL1        0.0729
     31 O          -6.6063  -15.1212   27.2950 O.co2   1  UNL1       -0.5446
     32 O          -8.6409  -16.7189   27.5356 O.co2   1  UNL1       -0.5446
     33 C         -11.0396  -16.4762   21.0646 C.3     1  UNL1        0.0315
     34 C         -11.2629  -15.6617   19.8250 C.3     1  UNL1        0.0028
     35 C         -11.2005  -17.1579   19.7383 C.3     1  UNL1        0.0028
@<TRIPOS>UNITY_ATOM_ATTR
31 1
charge -1
@<TRIPOS>BOND
     1     7     8    1
     2     8     9    1
     3     8    10    1
     4    10    11    1
     5    11    12   ar
     6    12    13   ar
     7    13    14   ar
     8    14    15   ar
     9    15    16   ar
    10    16    17   ar
    11    17    18   ar
    12    18    19   ar
    13    19    20   ar
    14     8     5    1
    15     5     4    1
    16     4     1    1
    17     1     2    1
    18     1    21    1
    19    21    22    1
    20    22    23    1
    21    23    24    1
    22    24    25   ar
    23    25    26   ar
    24    26    27   ar
    25    27    28   ar
    26    28    30    1
    27    30    31   ar
    28    30    32   ar
    29    28    29   ar
    30    23    33    1
    31    33    34    1
    32    34    35    1
    33    20    11   ar
    34    29    24   ar
    35    35    33    1
    36    19    14   ar
    37     5     6    1
    38     2     3    1
@<TRIPOS>MOLECULE
*****
 35 38 0 0 0
SMALL
GASTEIGER

@<TRIPOS>ATOM
      1 C          -3.3147  -16.6847   23.0080 C.3     1  UNL1        0.1556
      2 O          -3.1230  -15.5503   22.0454 O.3     1  UNL1       -0.3805
      3 H          -3.8968  -14.9661   22.0760 H       1  UNL1        0.2105
      4 C          -4.5683  -16.7693   23.8274 C.3     1  UNL1        0.1007
      5 N          -4.9819  -15.6117   24.6870 N.3     1  UNL1       -0.2972
      6 H          -4.4153  -15.6566   25.5340 H       1  UNL1        0.1233
      7 C          -6.8147  -15.1616   23.7183 C.3     1  UNL1        0.0161
      8 C          -6.4094  -15.4771   25.1276 C.3     1  UNL1        0.0461
      9 C          -6.0041  -15.7927   26.5370 C.3     1  UNL1        0.0161
     10 C          -7.8369  -15.3426   25.5683 C.3     1  UNL1        0.0408
     11 C          -8.9004  -16.1897   24.9346 C.ar    1  UNL1       -0.0209
     12 C          -9.1814  -17.5635   25.4674 C.ar    1  UNL1       -0.0042
     13 C         -10.2449  -18.4106   24.8338 C.ar    1  UNL1       -0.0003
     14 C         -11.0274  -17.8840   23.6674 C.ar    1  UNL1       -0.0000
     15 C         -12.0908  -18.7311   23.0339 C.ar    1  UNL1       -0.0000
     16 C         -12.8733  -18.2044   21.8675 C.ar    1  UNL1       -0.0000
     17 C         -12.5923  -16.8307   21.3348 C.ar    1  UNL1       -0.0000
     18 C         -11.5288  -15.9836   21.9683 C.ar    1  UNL1       -0.0000
     19 C         -10.7464  -16.5102   23.1347 C.ar    1  UNL1       -0.0003
     20 C          -9.6829  -15.6631   23.7683 C.ar    1  UNL1       -0.0042
     21 C          -2.2529  -17.7344   23.1511 C.3     1  UNL1        0.1729
     22 O          -2.3419  -19.0044   22.3578 O.3     1  UNL1       -0.3492
     23 C          -2.8887  -18.9795   20.9612 C.3     1  UNL1        0.1374
     24 C          -4.2325  -19.5793   20.6710 C.ar    1  UNL1        0.0046
     25 C          -4.3291  -20.9679   20.1120 C.ar    1  UNL1       -0.0019
     26 C          -5.6729  -21.5678   19.8219 C.ar    1  UNL1       -0.0002
     27 C          -6.9202  -20.7791   20.0908 C.ar    1  UNL1        0.0011
     28 C          -6.8236  -19.3905   20.6498 C.ar    1  UNL1        0.0138
     29 C          -5.4797  -18.7906   20.9399 C.ar    1  UNL1       -0.0008
     30 C          -8.0708  -18.6018   20.9187 C.2     1  UNL1        0.0729
     31 O          -7.9771  -17.1453   21.2648 O.co2   1  UNL1       -0.5446
     32 O          -9.4118  -19.2695   20.8414 O.co2   1  UNL1       -0.5446
     33 C          -2.0915  -18.3547   19.8547 C.3     1  UNL1        0.0315
     34 C          -2.0180  -17.7799   18.4712 C.3     1  UNL1        0.0028
     35 C          -0.7844  -17.8473   19.3219 C.3     1  UNL1        0.0028
@<TRIPOS>UNITY_ATOM_ATTR
31 1
charge -1
@<TRIPOS>BOND
     1     7     8    1
     2     8     9    1
     3     8    10    1
     4    10    11    1
     5    11    12   ar
     6    12    13   ar
     7    13    14   ar
     8    14    15   ar
     9    15    16   ar
    10    16    17   ar
    11    17    18   ar
    12    18    19   ar
    13    19    20   ar
    14     8     5    1
    15     5     4    1
    16     4     1    1
    17     1     2    1
    18     1    21    1
    19    21    22    1
    20    22    23    1
    21    23    24    1
    22    24    25   ar
    23    25    26   ar
    24    26    27   ar
    25    27    28   ar
    26    28    30    1
    27    30    31   ar
    28    30    32   ar
    29    28    29   ar
    30    23    33    1
    31    33    34    1
    32    34    35    1
    33    20    11   ar
    34    29    24   ar
    35    35    33    1
    36    19    14   ar
    37     5     6    1
    38     2     3    1
@<TRIPOS>MOLECULE
*****
 35 38 0 0 0
SMALL
GASTEIGER

@<TRIPOS>ATOM
      1 C          -8.6890  -15.6385   25.3550 C.3     1  UNL1        0.1556
      2 O          -8.4118  -15.1415   26.7429 O.3     1  UNL1       -0.3805
      3 H          -7.8219  -14.3727   26.6992 H       1  UNL1        0.2105
      4 C          -8.0748  -14.9471   24.1741 C.3     1  UNL1        0.1007
      5 N          -6.5923  -14.7236   24.1235 N.3     1  UNL1       -0.2972
      6 H          -6.3809  -14.3607   23.1940 H       1  UNL1        0.1233
      7 C          -6.2118  -16.5800   23.1702 C.3     1  UNL1        0.0161
      8 C          -5.6527  -15.8674   24.3659 C.3     1  UNL1        0.0461
      9 C          -5.0937  -15.1548   25.5615 C.3     1  UNL1        0.0161
     10 C          -4.7131  -17.0112   24.6083 C.3     1  UNL1        0.0408
     11 C          -3.8788  -17.5479   23.4831 C.ar    1  UNL1       -0.0209
     12 C          -4.0424  -18.9719   23.0411 C.ar    1  UNL1       -0.0042
     13 C          -3.2081  -19.5086   21.9160 C.ar    1  UNL1       -0.0003
     14 C          -2.2102  -18.6211   21.2327 C.ar    1  UNL1       -0.0000
     15 C          -1.3760  -19.1578   20.1076 C.ar    1  UNL1       -0.0000
     16 C          -0.3781  -18.2704   19.4244 C.ar    1  UNL1       -0.0000
     17 C          -0.2146  -16.8463   19.8663 C.ar    1  UNL1       -0.0000
     18 C          -1.0488  -16.3097   20.9915 C.ar    1  UNL1       -0.0000
     19 C          -2.0466  -17.1971   21.6747 C.ar    1  UNL1       -0.0003
     20 C          -2.8810  -16.6605   22.7999 C.ar    1  UNL1       -0.0042
     21 C          -9.5806  -16.8269   25.1481 C.3     1  UNL1        0.1729
     22 O          -9.2684  -17.8197   24.0679 O.3     1  UNL1       -0.3492
     23 C         -10.1835  -17.9560   22.8872 C.3     1  UNL1        0.1374
     24 C          -9.6907  -18.6035   21.6271 C.ar    1  UNL1        0.0046
     25 C         -10.6645  -18.9999   20.5572 C.ar    1  UNL1       -0.0019
     26 C         -10.1717  -19.6473   19.2971 C.ar    1  UNL1       -0.0002
     27 C          -8.7051  -19.8984   19.1069 C.ar    1  UNL1        0.0011
     28 C          -7.7313  -19.5021   20.1768 C.ar    1  UNL1        0.0138
     29 C          -8.2242  -18.8546   21.4369 C.ar    1  UNL1       -0.0008
     30 C          -6.2648  -19.7531   19.9866 C.2     1  UNL1        0.0729
     31 O          -5.3497  -18.6191   19.6308 O.co2   1  UNL1       -0.5446
     32 O          -5.7133  -21.1383   20.1523 O.co2   1  UNL1       -0.5446
     33 C         -11.5915  -17.4449   22.9667 C.3     1  UNL1        0.0315
     34 C         -13.0406  -17.6732   23.2795 C.3     1  UNL1        0.0028
     35 C         -12.5810  -16.3313   22.7916 C.3     1  UNL1        0.0028
@<TRIPOS>UNITY_ATOM_ATTR
31 1
charge -1
@<TRIPOS>BOND
     1     7     8    1
     2     8     9    1
     3     8    10    1
     4    10    11    1
     5    11    12   ar
     6    12    13   ar
     7    13    14   ar
     8    14    15   ar
     9    15    16   ar
    10    16    17   ar
    11    17    18   ar
    12    18    19   ar
    13    19    20   ar
    14     8     5    1
    15     5     4    1
    16     4     1    1
    17     1     2    1
    18     1    21    1
    19    21    22    1
    20    22    23    1
    21    23    24    1
    22    24    25   ar
    23    25    26   ar
    24    26    27   ar
    25    27    28   ar
    26    28    30    1
    27    30    31   ar
    28    30    32   ar
    29    28    29   ar
    30    23    33    1
    31    33    34    1
    32    34    35    1
    33    20    11   ar
    34    29    24   ar
    35    35    33    1
    36    19    14   ar
    37     5     6    1
    38     2     3    1
@<TRIPOS>MOLECULE
*****
 35 38 0 0 0
SMALL
GASTEIGER

@<TRIPOS>ATOM
      1 C          -9.2808  -17.9135   25.6026 C.3     1  UNL1        0.1556
      2 O          -9.2608  -17.8522   27.1012 O.3     1  UNL1       -0.3805
      3 H          -8.9442  -16.9803   27.3849 H       1  UNL1        0.2105
      4 C          -8.8474  -16.7245   24.7974 C.3     1  UNL1        0.1007
      5 N          -7.9742  -15.6754   25.4196 N.3     1  UNL1       -0.2972
      6 H          -8.4860  -14.7949   25.3632 H       1  UNL1        0.1233
      7 C          -7.1828  -15.2943   23.4886 C.3     1  UNL1        0.0161
      8 C          -6.6040  -15.4158   24.8671 C.3     1  UNL1        0.0461
      9 C          -6.0251  -15.5374   26.2455 C.3     1  UNL1        0.0161
     10 C          -5.2338  -15.1563   24.3146 C.3     1  UNL1        0.0408
     11 C          -4.5294  -16.2200   23.5256 C.ar    1  UNL1       -0.0209
     12 C          -4.9808  -17.6473   23.6209 C.ar    1  UNL1       -0.0042
     13 C          -4.2765  -18.7110   22.8320 C.ar    1  UNL1       -0.0003
     14 C          -3.1207  -18.3474   21.9476 C.ar    1  UNL1       -0.0000
     15 C          -2.4163  -19.4111   21.1587 C.ar    1  UNL1       -0.0000
     16 C          -1.2606  -19.0474   20.2744 C.ar    1  UNL1       -0.0000
     17 C          -0.8092  -17.6202   20.1791 C.ar    1  UNL1       -0.0000
     18 C          -1.5135  -16.5565   20.9680 C.ar    1  UNL1       -0.0000
     19 C          -2.6693  -16.9201   21.8523 C.ar    1  UNL1       -0.0003
     20 C          -3.3737  -15.8564   22.6413 C.ar    1  UNL1       -0.0042
     21 C          -9.7343  -19.1639   24.9091 C.3     1  UNL1        0.1729
     22 O          -8.8859  -19.7748   23.8335 O.3     1  UNL1       -0.3492
     23 C          -9.0048  -19.2904   22.4188 C.3     1  UNL1        0.1374
     24 C         -10.2443  -18.5727   21.9734 C.ar    1  UNL1        0.0046
     25 C         -11.5880  -19.0178   22.4698 C.ar    1  UNL1       -0.0019
     26 C         -12.8275  -18.3001   22.0244 C.ar    1  UNL1       -0.0002
     27 C         -12.7234  -17.1372   21.0825 C.ar    1  UNL1        0.0011
     28 C         -11.3797  -16.6922   20.5861 C.ar    1  UNL1        0.0138
     29 C         -10.1401  -17.4100   21.0316 C.ar    1  UNL1       -0.0008
     30 C         -11.2755  -15.5294   19.6443 C.2     1  UNL1        0.0729
     31 O         -12.3955  -15.2333   18.6914 O.co2   1  UNL1       -0.5446
     32 O         -10.0513  -14.6626   19.6553 O.co2   1  UNL1       -0.5446
     33 C          -7.8840  -19.5238   21.4495 C.3     1  UNL1        0.0315
     34 C          -7.1451  -19.1412   20.2015 C.3     1  UNL1        0.0028
     35 C          -6.6818  -20.3106   21.0188 C.3     1  UNL1        0.0028
@<TRIPOS>UNITY_ATOM_ATTR
31 1
charge -1
@<TRIPOS>BOND
     1     7     8    1
     2     8     9    1
     3     8    10    1
     4    10    11    1
     5    11    12   ar
     6    12    13   ar
     7    13    14   ar
     8    14    15   ar
     9    15    16   ar
    10    16    17   ar
    11    17    18   ar
    12    18    19   ar
    13    19    20   ar
    14     8     5    1
    15     5     4    1
    16     4     1    1
    17     1     2    1
    18     1    21    1
    19    21    22    1
    20    22    23    1
    21    23    24    1
    22    24    25   ar
    23    25    26   ar
    24    26    27   ar
    25    27    28   ar
    26    28    30    1
    27    30    31   ar
    28    30    32   ar
    29    28    29   ar
    30    23    33    1
    31    33    34    1
    32    34    35    1
    33    20    11   ar
    34    29    24   ar
    35    35    33    1
    36    19    14   ar
    37     5     6    1
    38     2     3    1
@<TRIPOS>MOLECULE
*****
 35 38 0 0 0
SMALL
GASTEIGER

@<TRIPOS>ATOM
      1 C          -8.4664  -16.2173   26.0130 C.3     1  UNL1        0.1556
      2 O          -8.8605  -17.1266   27.1391 O.3     1  UNL1       -0.3805
      3 H          -8.3641  -16.8866   27.9372 H       1  UNL1        0.2105
      4 C          -7.4438  -15.1435   26.2388 C.3     1  UNL1        0.1007
      5 N          -6.5134  -14.7487   25.1303 N.3     1  UNL1       -0.2972
      6 H          -7.0571  -14.7711   24.2676 H       1  UNL1        0.1233
      7 C          -5.2448  -15.9661   26.3172 C.3     1  UNL1        0.0161
      8 C          -5.2674  -15.5448   24.8777 C.3     1  UNL1        0.0461
      9 C          -5.2901  -15.1235   23.4383 C.3     1  UNL1        0.0161
     10 C          -4.0214  -16.3408   24.6251 C.3     1  UNL1        0.0408
     11 C          -3.9805  -17.3333   23.5012 C.ar    1  UNL1       -0.0209
     12 C          -2.7144  -17.5319   22.7217 C.ar    1  UNL1       -0.0042
     13 C          -2.6734  -18.5244   21.5978 C.ar    1  UNL1       -0.0003
     14 C          -3.8986  -19.3183   21.2532 C.ar    1  UNL1       -0.0000
     15 C          -3.8576  -20.3108   20.1293 C.ar    1  UNL1       -0.0000
     16 C          -5.0827  -21.1047   19.7847 C.ar    1  UNL1       -0.0000
     17 C          -6.3488  -20.9061   20.5642 C.ar    1  UNL1       -0.0000
     18 C          -6.3898  -19.9136   21.6881 C.ar    1  UNL1       -0.0000
     19 C          -5.1647  -19.1197   22.0326 C.ar    1  UNL1       -0.0003
     20 C          -5.2056  -18.1272   23.1566 C.ar    1  UNL1       -0.0042
     21 C          -9.0951  -16.3820   24.6611 C.3     1  UNL1        0.1729
     22 O          -8.5071  -17.3452   23.6729 O.3     1  UNL1       -0.3492
     23 C          -9.3315  -18.4874   23.1572 C.3     1  UNL1        0.1374
     24 C          -9.9134  -18.4289   21.7760 C.ar    1  UNL1        0.0046
     25 C          -9.9179  -19.6547   20.9114 C.ar    1  UNL1       -0.0019
     26 C         -10.4998  -19.5961   19.5302 C.ar    1  UNL1       -0.0002
     27 C         -11.0773  -18.3117   19.0134 C.ar    1  UNL1        0.0011
     28 C         -11.0728  -17.0859   19.8780 C.ar    1  UNL1        0.0138
     29 C         -10.4908  -17.1445   21.2593 C.ar    1  UNL1       -0.0008
     30 C         -11.6501  -15.8016   19.3613 C.2     1  UNL1        0.0729
     31 O         -13.1175  -15.5266   19.5072 O.co2   1  UNL1       -0.5446
     32 O         -10.7602  -14.7922   18.6985 O.co2   1  UNL1       -0.5446
     33 C          -9.5739  -19.6882   24.0229 C.3     1  UNL1        0.0315
     34 C          -9.2832  -21.1176   24.3726 C.3     1  UNL1        0.0028
     35 C         -10.2846  -20.3385   25.1727 C.3     1  UNL1        0.0028
@<TRIPOS>UNITY_ATOM_ATTR
31 1
charge -1
@<TRIPOS>BOND
     1     7     8    1
     2     8     9    1
     3     8    10    1
     4    10    11    1
     5    11    12   ar
     6    12    13   ar
     7    13    14   ar
     8    14    15   ar
     9    15    16   ar
    10    16    17   ar
    11    17    18   ar
    12    18    19   ar
    13    19    20   ar
    14     8     5    1
    15     5     4    1
    16     4     1    1
    17     1     2    1
    18     1    21    1
    19    21    22    1
    20    22    23    1
    21    23    24    1
    22    24    25   ar
    23    25    26   ar
    24    26    27   ar
    25    27    28   ar
    26    28    30    1
    27    30    31   ar
    28    30    32   ar
    29    28    29   ar
    30    23    33    1
    31    33    34    1
    32    34    35    1
    33    20    11   ar
    34    29    24   ar
    35    35    33    1
    36    19    14   ar
    37     5     6    1
    38     2     3    1
@<TRIPOS>MOLECULE
*****
 35 38 0 0 0
SMALL
GASTEIGER

@<TRIPOS>ATOM
      1 C           5.0502   -0.8597   17.2155 C.3     1  UNL1        0.1556
      2 O           3.8701   -1.1252   16.3283 O.3     1  UNL1       -0.3805
      3 H           3.6572   -2.0713   16.3480 H       1  UNL1        0.2105
      4 C           5.6990   -1.9896   17.9586 C.3     1  UNL1        0.1007
      5 N           4.9555   -3.2758   18.1660 N.3     1  UNL1       -0.2972
      6 H           4.0267   -3.1470   17.7645 H       1  UNL1        0.1233
      7 C           3.3426   -4.1751   19.2101 C.3     1  UNL1        0.0161
      8 C           4.7572   -3.8122   19.5527 C.3     1  UNL1        0.0461
      9 C           6.1717   -3.4494   19.8954 C.3     1  UNL1        0.0161
     10 C           4.5588   -4.3486   20.9394 C.3     1  UNL1        0.0408
     11 C           4.6479   -3.4273   22.1198 C.ar    1  UNL1       -0.0209
     12 C           5.6777   -3.6686   23.1835 C.ar    1  UNL1       -0.0042
     13 C           5.7668   -2.7473   24.3639 C.ar    1  UNL1       -0.0003
     14 C           4.8260   -1.5848   24.4806 C.ar    1  UNL1       -0.0000
     15 C           4.9151   -0.6635   25.6610 C.ar    1  UNL1       -0.0000
     16 C           3.9744    0.4989   25.7778 C.ar    1  UNL1       -0.0000
     17 C           2.9446    0.7402   24.7141 C.ar    1  UNL1       -0.0000
     18 C           2.8555   -0.1811   23.5337 C.ar    1  UNL1       -0.0000
     19 C           3.7962   -1.3435   23.4170 C.ar    1  UNL1       -0.0003
     20 C           3.7072   -2.2649   22.2366 C.ar    1  UNL1       -0.0042
     21 C           5.5814    0.5357   17.3594 C.3     1  UNL1        0.1729
     22 O           4.9680    1.4725   18.3575 O.3     1  UNL1       -0.3492
     23 C           4.5548    0.9649   19.7072 C.3     1  UNL1        0.1374
     24 C           3.1036    0.7376   20.0110 C.ar    1  UNL1        0.0046
     25 C           2.4812   -0.6001   19.7405 C.ar    1  UNL1       -0.0019
     26 C           1.0300   -0.8273   20.0444 C.ar    1  UNL1       -0.0002
     27 C           0.2012    0.2832   20.6188 C.ar    1  UNL1        0.0011
     28 C           0.8236    1.6209   20.8893 C.ar    1  UNL1        0.0138
     29 C           2.2748    1.8481   20.5854 C.ar    1  UNL1       -0.0008
     30 C          -0.0052    2.7314   21.4636 C.2     1  UNL1        0.0729
     31 O          -1.4941    2.7274   21.2816 O.co2   1  UNL1       -0.5446
     32 O           0.6549    3.8459   22.2200 O.co2   1  UNL1       -0.5446
     33 C           5.5929    0.6845   20.7530 C.3     1  UNL1        0.0315
     34 C           6.7428   -0.1379   21.2543 C.3     1  UNL1        0.0028
     35 C           6.2410    1.0214   22.0631 C.3     1  UNL1        0.0028
@<TRIPOS>UNITY_ATOM_ATTR
31 1
charge -1
@<TRIPOS>BOND
     1     7     8    1
     2     8     9    1
     3     8    10    1
     4    10    11    1
     5    11    12   ar
     6    12    13   ar
     7    13    14   ar
     8    14    15   ar
     9    15    16   ar
    10    16    17   ar
    11    17    18   ar
    12    18    19   ar
    13    19    20   ar
    14     8     5    1
    15     5     4    1
    16     4     1    1
    17     1     2    1
    18     1    21    1
    19    21    22    1
    20    22    23    1
    21    23    24    1
    22    24    25   ar
    23    25    26   ar
    24    26    27   ar
    25    27    28   ar
    26    28    30    1
    27    30    31   ar
    28    30    32   ar
    29    28    29   ar
    30    23    33    1
    31    33    34    1
    32    34    35    1
    33    20    11   ar
    34    29    24   ar
    35    35    33    1
    36    19    14   ar
    37     5     6    1
    38     2     3    1
@<TRIPOS>MOLECULE
*****
 35 38 0 0 0
SMALL
GASTEIGER

@<TRIPOS>ATOM
      1 C           7.9598   -2.5874   19.9478 C.3     1  UNL1        0.1556
      2 O           8.8058   -3.7948   20.2247 O.3     1  UNL1       -0.3805
      3 H           9.3236   -4.0149   19.4345 H       1  UNL1        0.2105
      4 C           8.0134   -1.9266   18.6023 C.3     1  UNL1        0.1007
      5 N           6.7840   -1.8709   17.7446 N.3     1  UNL1       -0.2972
      6 H           7.0675   -2.1495   16.8052 H       1  UNL1        0.1233
      7 C           7.3129    0.1819   17.6658 C.3     1  UNL1        0.0161
      8 C           6.0251   -0.5847   17.6043 C.3     1  UNL1        0.0461
      9 C           4.7373   -1.3513   17.5427 C.3     1  UNL1        0.0161
     10 C           5.2662    0.7015   17.4639 C.3     1  UNL1        0.0408
     11 C           4.8005    1.4348   18.6869 C.ar    1  UNL1       -0.0209
     12 C           3.6668    2.4121   18.5891 C.ar    1  UNL1       -0.0042
     13 C           3.2011    3.1454   19.8119 C.ar    1  UNL1       -0.0003
     14 C           3.8692    2.9014   21.1326 C.ar    1  UNL1       -0.0000
     15 C           3.4035    3.6347   22.3555 C.ar    1  UNL1       -0.0000
     16 C           4.0715    3.3907   23.6761 C.ar    1  UNL1       -0.0000
     17 C           5.2053    2.4134   23.7739 C.ar    1  UNL1       -0.0000
     18 C           5.6709    1.6801   22.5511 C.ar    1  UNL1       -0.0000
     19 C           5.0029    1.9241   21.2304 C.ar    1  UNL1       -0.0003
     20 C           5.4685    1.1908   20.0075 C.ar    1  UNL1       -0.0042
     21 C           7.0604   -2.0408   21.0165 C.3     1  UNL1        0.1729
     22 O           5.9623   -2.8928   21.5808 O.3     1  UNL1       -0.3492
     23 C           4.5845   -2.8279   20.9914 C.3     1  UNL1        0.1374
     24 C           3.6196   -1.7767   21.4539 C.ar    1  UNL1        0.0046
     25 C           3.6458   -1.3096   22.8791 C.ar    1  UNL1       -0.0019
     26 C           2.6809   -0.2584   23.3417 C.ar    1  UNL1       -0.0002
     27 C           1.6898    0.3257   22.3791 C.ar    1  UNL1        0.0011
     28 C           1.6637   -0.1413   20.9539 C.ar    1  UNL1        0.0138
     29 C           2.6286   -1.1926   20.4913 C.ar    1  UNL1       -0.0008
     30 C           0.6727    0.4428   19.9913 C.2     1  UNL1        0.0729
     31 O           0.9086    0.3343   18.5139 O.co2   1  UNL1       -0.5446
     32 O          -0.5543    1.1355   20.5060 O.co2   1  UNL1       -0.5446
     33 C           4.1716   -3.8141   19.9393 C.3     1  UNL1        0.0315
     34 C           4.5341   -4.8371   18.9040 C.3     1  UNL1        0.0028
     35 C           3.0939   -4.4994   19.1526 C.3     1  UNL1        0.0028
@<TRIPOS>UNITY_ATOM_ATTR
31 1
charge -1
@<TRIPOS>BOND
     1     7     8    1
     2     8     9    1
     3     8    10    1
     4    10    11    1
     5    11    12   ar
     6    12    13   ar
     7    13    14   ar
     8    14    15   ar
     9    15    16   ar
    10    16    17   ar
    11    17    18   ar
    12    18    19   ar
    13    19    20   ar
    14     8     5    1
    15     5     4    1
    16     4     1    1
    17     1     2    1
    18     1    21    1
    19    21    22    1
    20    22    23    1
    21    23    24    1
    22    24    25   ar
    23    25    26   ar
    24    26    27   ar
    25    27    28   ar
    26    28    30    1
    27    30    31   ar
    28    30    32   ar
    29    28    29   ar
    30    23    33    1
    31    33    34    1
    32    34    35    1
    33    20    11   ar
    34    29    24   ar
    35    35    33    1
    36    19    14   ar
    37     5     6    1
    38     2     3    1
