@<TRIPOS>MOLECULE
*****
 26 29 0 0 0
SMALL
GASTEIGER

@<TRIPOS>ATOM
      1 C         -12.2501  -18.3330   22.7472 C.2     1  UNL1        0.0919
      2 C         -12.3980  -17.7412   21.3769 C.2     1  UNL1        0.0183
      3 C         -11.2628  -17.8194   20.3996 C.2     1  UNL1        0.0511
      4 C          -9.9797  -18.4895   20.7926 C.2     1  UNL1        0.2322
      5 N          -8.6974  -18.7175   20.0484 N.2     1  UNL1       -0.0308
      6 C          -7.7570  -19.4502   20.9587 C.2     1  UNL1        0.3767
      7 N          -8.4581  -19.6751   22.2656 N.2     1  UNL1       -0.0346
      8 C          -9.8317  -19.0813   22.1629 C.2     1  UNL1        0.2191
      9 C         -10.9670  -19.0030   23.1402 C.3     1  UNL1        0.1226
     10 C          -6.3607  -19.8823   20.6214 C.ar    1  UNL1        0.1075
     11 C          -6.0963  -21.2941   20.1891 C.ar    1  UNL1        0.1065
     12 N          -4.7001  -21.7261   19.8518 N.ar    1  UNL1       -0.2421
     13 C          -3.5683  -20.7464   19.9467 C.ar    1  UNL1        0.0988
     14 C          -3.8327  -19.3345   20.3789 C.ar    1  UNL1        0.0194
     15 C          -5.2289  -18.9025   20.7163 C.ar    1  UNL1        0.0108
     16 C          -2.7008  -18.3548   20.4738 C.ar    1  UNL1        0.0015
     17 C          -2.7744  -17.2158   21.4471 C.ar    1  UNL1        0.0000
     18 C          -1.6425  -16.2361   21.5420 C.ar    1  UNL1        0.0000
     19 C          -0.4371  -16.3953   20.6636 C.ar    1  UNL1        0.0000
     20 C          -0.3635  -17.5343   19.6903 C.ar    1  UNL1        0.0000
     21 C          -1.4954  -18.5140   19.5955 C.ar    1  UNL1        0.0000
     22 S         -13.3854  -18.2548   23.7245 S.O2    1  UNL1        0.0054
     23 O         -14.3348  -17.9694   22.5988 O.2     1  UNL1       -0.1689
     24 O         -12.4360  -18.5401   24.8502 O.2     1  UNL1       -0.1689
     25 C         -14.2953  -18.5270   26.1427 C.3     1  UNL1        0.0276
     26 C         -14.5206  -18.1765   24.7018 C.3     1  UNL1        0.1556
@<TRIPOS>BOND
     1    25    26    1
     2    26    22    1
     3    22    23    2
     4    22    24    2
     5    22     1    1
     6     1     2    2
     7     2     3    1
     8     3     4    2
     9     4     5    1
    10     5     6    2
    11     6    10    1
    12    10    11   ar
    13    11    12   ar
    14    12    13   ar
    15    13    14   ar
    16    14    16    1
    17    16    17   ar
    18    17    18   ar
    19    18    19   ar
    20    19    20   ar
    21    20    21   ar
    22    14    15   ar
    23     6     7    1
    24     7     8    2
    25     8     9    1
    26     9     1    1
    27     8     4    1
    28    15    10   ar
    29    21    16   ar
@<TRIPOS>MOLECULE
*****
 26 29 0 0 0
SMALL
GASTEIGER

@<TRIPOS>ATOM
      1 C           7.3018   -5.6145   26.9894 C.2     1  UNL1        0.0919
      2 C           8.0540   -6.6673   26.2307 C.2     1  UNL1        0.0183
      3 C           8.1728   -6.5755   24.7382 C.2     1  UNL1        0.0511
      4 C           7.5394   -5.4308   24.0045 C.2     1  UNL1        0.2322
      5 N           7.4892   -5.0771   22.5476 N.2     1  UNL1       -0.0308
      6 C           6.7060   -3.8057   22.4060 C.2     1  UNL1        0.3767
      7 N           6.2721   -3.3735   23.7753 N.2     1  UNL1       -0.0346
      8 C           6.7872   -4.3779   24.7632 C.2     1  UNL1        0.2191
      9 C           6.6684   -4.4698   26.2557 C.3     1  UNL1        0.1226
     10 C           6.4089   -3.0917   21.1206 C.ar    1  UNL1        0.1075
     11 C           7.4098   -3.1105   20.0036 C.ar    1  UNL1        0.1065
     12 N           7.1128   -2.3966   18.7182 N.ar    1  UNL1       -0.2421
     13 C           5.8148   -1.6639   18.5500 C.ar    1  UNL1        0.0988
     14 C           4.8139   -1.6451   19.6670 C.ar    1  UNL1        0.0194
     15 C           5.1109   -2.3590   20.9523 C.ar    1  UNL1        0.0108
     16 C           3.5158   -0.9124   19.4987 C.ar    1  UNL1        0.0015
     17 C           2.3382   -1.2657   20.3580 C.ar    1  UNL1        0.0000
     18 C           1.0403   -0.5330   20.1896 C.ar    1  UNL1        0.0000
     19 C           0.9199    0.5531   19.1620 C.ar    1  UNL1        0.0000
     20 C           2.0975    0.9064   18.3027 C.ar    1  UNL1        0.0000
     21 C           3.3955    0.1736   18.4711 C.ar    1  UNL1        0.0000
     22 S           7.1830   -5.7063   28.4819 S.O2    1  UNL1        0.0054
     23 O           6.3250   -4.4760   28.4893 O.2     1  UNL1       -0.1689
     24 O           8.0410   -6.9367   28.4744 O.2     1  UNL1       -0.1689
     25 C           6.8710   -4.5538   30.7893 C.3     1  UNL1        0.0276
     26 C           7.0643   -5.7982   29.9743 C.3     1  UNL1        0.1556
@<TRIPOS>BOND
     1    25    26    1
     2    26    22    1
     3    22    23    2
     4    22    24    2
     5    22     1    1
     6     1     2    2
     7     2     3    1
     8     3     4    2
     9     4     5    1
    10     5     6    2
    11     6    10    1
    12    10    11   ar
    13    11    12   ar
    14    12    13   ar
    15    13    14   ar
    16    14    16    1
    17    16    17   ar
    18    17    18   ar
    19    18    19   ar
    20    19    20   ar
    21    20    21   ar
    22    14    15   ar
    23     6     7    1
    24     7     8    2
    25     8     9    1
    26     9     1    1
    27     8     4    1
    28    15    10   ar
    29    21    16   ar
@<TRIPOS>MOLECULE
*****
 26 29 0 0 0
SMALL
GASTEIGER

@<TRIPOS>ATOM
      1 C           3.1583   -0.8006   19.0162 C.2     1  UNL1        0.0919
      2 C           3.6455    0.3985   18.2581 C.2     1  UNL1        0.0183
      3 C           2.8549    1.6730   18.2820 C.2     1  UNL1        0.0511
      4 C           1.5772    1.7485   19.0641 C.2     1  UNL1        0.2322
      5 N           0.5921    2.8604   19.2724 N.2     1  UNL1       -0.0308
      6 C          -0.5039    2.3484   20.1593 C.2     1  UNL1        0.3767
      7 N          -0.1962    0.9202   20.4992 N.2     1  UNL1       -0.0346
      8 C           1.0900    0.5495   19.8222 C.2     1  UNL1        0.2191
      9 C           1.8805   -0.7251   19.7983 C.3     1  UNL1        0.1226
     10 C          -1.6981    3.1280   20.6247 C.ar    1  UNL1        0.1075
     11 C          -2.5662    3.8365   19.6276 C.ar    1  UNL1        0.1065
     12 N          -3.7603    4.6160   20.0928 N.ar    1  UNL1       -0.2421
     13 C          -4.0862    4.6869   21.5553 C.ar    1  UNL1        0.0988
     14 C          -3.2180    3.9784   22.5524 C.ar    1  UNL1        0.0194
     15 C          -2.0240    3.1989   22.0871 C.ar    1  UNL1        0.0108
     16 C          -3.5440    4.0494   24.0149 C.ar    1  UNL1        0.0015
     17 C          -2.5511    3.5640   25.0290 C.ar    1  UNL1        0.0000
     18 C          -2.8771    3.6350   26.4914 C.ar    1  UNL1        0.0000
     19 C          -4.1959    4.1914   26.9397 C.ar    1  UNL1        0.0000
     20 C          -5.1888    4.6769   25.9256 C.ar    1  UNL1        0.0000
     21 C          -4.8628    4.6059   24.4632 C.ar    1  UNL1        0.0000
     22 S           3.9488   -2.0752   18.9923 S.O2    1  UNL1        0.0054
     23 O           3.4917   -2.3848   20.3870 O.2     1  UNL1       -0.1689
     24 O           4.4058   -1.7655   17.5976 O.2     1  UNL1       -0.1689
     25 C           4.0307   -4.6718   18.9641 C.3     1  UNL1        0.0276
     26 C           4.7393   -3.3497   18.9684 C.3     1  UNL1        0.1556
@<TRIPOS>BOND
     1    25    26    1
     2    26    22    1
     3    22    23    2
     4    22    24    2
     5    22     1    1
     6     1     2    2
     7     2     3    1
     8     3     4    2
     9     4     5    1
    10     5     6    2
    11     6    10    1
    12    10    11   ar
    13    11    12   ar
    14    12    13   ar
    15    13    14   ar
    16    14    16    1
    17    16    17   ar
    18    17    18   ar
    19    18    19   ar
    20    19    20   ar
    21    20    21   ar
    22    14    15   ar
    23     6     7    1
    24     7     8    2
    25     8     9    1
    26     9     1    1
    27     8     4    1
    28    15    10   ar
    29    21    16   ar
@<TRIPOS>MOLECULE
*****
 26 29 0 0 0
SMALL
GASTEIGER

@<TRIPOS>ATOM
      1 C         -11.2418   -4.7129   18.9658 C.2     1  UNL1        0.0919
      2 C         -10.6324   -3.4208   18.5087 C.2     1  UNL1        0.0183
      3 C         -11.4467   -2.1611   18.5226 C.2     1  UNL1        0.0511
      4 C         -12.8704   -2.1936   18.9938 C.2     1  UNL1        0.2322
      5 N         -13.9110   -1.1206   19.1189 N.2     1  UNL1       -0.0308
      6 C         -15.1635   -1.7495   19.6533 C.2     1  UNL1        0.3767
      7 N         -14.8971   -3.2113   19.8585 N.2     1  UNL1       -0.0346
      8 C         -13.4798   -3.4858   19.4509 C.2     1  UNL1        0.2191
      9 C         -12.6655   -4.7454   19.4369 C.3     1  UNL1        0.1226
     10 C         -16.4557   -1.0410   19.9334 C.ar    1  UNL1        0.1075
     11 C         -17.7545   -1.6466   19.4901 C.ar    1  UNL1        0.1065
     12 N         -19.0466   -0.9381   19.7701 N.ar    1  UNL1       -0.2421
     13 C         -19.0400    0.3759   20.4935 C.ar    1  UNL1        0.0988
     14 C         -17.7412    0.9814   20.9368 C.ar    1  UNL1        0.0194
     15 C         -16.4491    0.2730   20.6568 C.ar    1  UNL1        0.0108
     16 C         -17.7346    2.2955   21.6602 C.ar    1  UNL1        0.0015
     17 C         -17.3689    2.3495   23.1139 C.ar    1  UNL1        0.0000
     18 C         -17.3623    3.6636   23.8373 C.ar    1  UNL1        0.0000
     19 C         -17.7215    4.9236   23.1069 C.ar    1  UNL1        0.0000
     20 C         -18.0872    4.8695   21.6532 C.ar    1  UNL1        0.0000
     21 C         -18.0938    3.5555   20.9299 C.ar    1  UNL1        0.0000
     22 S         -10.4274   -5.9725   18.9518 S.O2    1  UNL1        0.0054
     23 O         -11.6053   -6.7280   18.4114 O.2     1  UNL1       -0.1689
     24 O          -9.2496   -5.2171   19.4922 O.2     1  UNL1       -0.1689
     25 C          -9.8672   -8.2779   17.8930 C.3     1  UNL1        0.0276
     26 C          -9.6131   -7.2322   18.9378 C.3     1  UNL1        0.1556
@<TRIPOS>BOND
     1    25    26    1
     2    26    22    1
     3    22    23    2
     4    22    24    2
     5    22     1    1
     6     1     2    2
     7     2     3    1
     8     3     4    2
     9     4     5    1
    10     5     6    2
    11     6    10    1
    12    10    11   ar
    13    11    12   ar
    14    12    13   ar
    15    13    14   ar
    16    14    16    1
    17    16    17   ar
    18    17    18   ar
    19    18    19   ar
    20    19    20   ar
    21    20    21   ar
    22    14    15   ar
    23     6     7    1
    24     7     8    2
    25     8     9    1
    26     9     1    1
    27     8     4    1
    28    15    10   ar
    29    21    16   ar
@<TRIPOS>MOLECULE
*****
 26 29 0 0 0
SMALL
GASTEIGER

@<TRIPOS>ATOM
      1 C           6.5298   -3.7700   30.2686 C.2     1  UNL1        0.0919
      2 C           6.9395   -5.2109   30.1918 C.2     1  UNL1        0.0183
      3 C           7.1409   -5.8632   28.8562 C.2     1  UNL1        0.0511
      4 C           6.9328   -5.0746   27.5973 C.2     1  UNL1        0.2322
      5 N           7.0557   -5.4450   26.1490 N.2     1  UNL1       -0.0308
      6 C           6.7220   -4.2330   25.3306 C.2     1  UNL1        0.3767
      7 N           6.3928   -3.1136   26.2731 N.2     1  UNL1       -0.0346
      8 C           6.5231   -3.6337   27.6741 C.2     1  UNL1        0.2191
      9 C           6.3217   -2.9814   29.0097 C.3     1  UNL1        0.1226
     10 C           6.7181   -4.1544   23.8326 C.ar    1  UNL1        0.1075
     11 C           7.7561   -4.8923   23.0402 C.ar    1  UNL1        0.1065
     12 N           7.7523   -4.8137   21.5423 N.ar    1  UNL1       -0.2421
     13 C           6.7105   -3.9971   20.8368 C.ar    1  UNL1        0.0988
     14 C           5.6724   -3.2592   21.6293 C.ar    1  UNL1        0.0194
     15 C           5.6763   -3.3378   23.1272 C.ar    1  UNL1        0.0108
     16 C           4.6305   -2.4426   20.9237 C.ar    1  UNL1        0.0015
     17 C           4.6272   -2.3633   19.4258 C.ar    1  UNL1        0.0000
     18 C           3.5854   -1.5467   18.7204 C.ar    1  UNL1        0.0000
     19 C           2.5469   -0.8094   19.5128 C.ar    1  UNL1        0.0000
     20 C           2.5502   -0.8887   21.0107 C.ar    1  UNL1        0.0000
     21 C           3.5920   -1.7053   21.7161 C.ar    1  UNL1        0.0000
     22 S           6.3284   -3.1177   31.6042 S.O2    1  UNL1        0.0054
     23 O           6.0131   -1.8193   30.9225 O.2     1  UNL1       -0.1689
     24 O           6.6436   -4.4161   32.2859 O.2     1  UNL1       -0.1689
     25 C           4.7446   -2.1062   33.3982 C.3     1  UNL1        0.0276
     26 C           6.1269   -2.4654   32.9398 C.3     1  UNL1        0.1556
@<TRIPOS>BOND
     1    25    26    1
     2    26    22    1
     3    22    23    2
     4    22    24    2
     5    22     1    1
     6     1     2    2
     7     2     3    1
     8     3     4    2
     9     4     5    1
    10     5     6    2
    11     6    10    1
    12    10    11   ar
    13    11    12   ar
    14    12    13   ar
    15    13    14   ar
    16    14    16    1
    17    16    17   ar
    18    17    18   ar
    19    18    19   ar
    20    19    20   ar
    21    20    21   ar
    22    14    15   ar
    23     6     7    1
    24     7     8    2
    25     8     9    1
    26     9     1    1
    27     8     4    1
    28    15    10   ar
    29    21    16   ar
@<TRIPOS>MOLECULE
*****
 26 29 0 0 0
SMALL
GASTEIGER

@<TRIPOS>ATOM
      1 C         -12.4344   -5.2286   19.1579 C.2     1  UNL1        0.0919
      2 C         -13.5925   -6.1781   19.2424 C.2     1  UNL1        0.0183
      3 C         -14.9814   -5.6506   19.4489 C.2     1  UNL1        0.0511
      4 C         -15.2123   -4.1735   19.5709 C.2     1  UNL1        0.2322
      5 N         -16.4595   -3.3662   19.7774 N.2     1  UNL1       -0.0308
      6 C         -16.0723   -1.9177   19.8205 C.2     1  UNL1        0.3767
      7 N         -14.5857   -1.8297   19.6406 N.2     1  UNL1       -0.0346
      8 C         -14.0542   -3.2240   19.4864 C.2     1  UNL1        0.2191
      9 C         -12.6653   -3.7515   19.2799 C.3     1  UNL1        0.1226
     10 C         -17.0075   -0.7603   20.0101 C.ar    1  UNL1        0.1075
     11 C         -18.3829   -0.8018   19.4130 C.ar    1  UNL1        0.1065
     12 N         -19.3181    0.3555   19.6026 N.ar    1  UNL1       -0.2421
     13 C         -18.8779    1.5543   20.3894 C.ar    1  UNL1        0.0988
     14 C         -17.5025    1.5958   20.9866 C.ar    1  UNL1        0.0194
     15 C         -16.5673    0.4385   20.7969 C.ar    1  UNL1        0.0108
     16 C         -17.0624    2.7947   21.7734 C.ar    1  UNL1        0.0015
     17 C         -16.3975    3.9454   21.0779 C.ar    1  UNL1        0.0000
     18 C         -15.9574    5.1442   21.8648 C.ar    1  UNL1        0.0000
     19 C         -16.1821    5.1923   23.3470 C.ar    1  UNL1        0.0000
     20 C         -16.8470    4.0415   24.0425 C.ar    1  UNL1        0.0000
     21 C         -17.2871    2.8427   23.2557 C.ar    1  UNL1        0.0000
     22 S         -11.0455   -5.7561   18.9514 S.O2    1  UNL1        0.0054
     23 O         -10.5159   -4.3529   18.9292 O.2     1  UNL1       -0.1689
     24 O         -11.5752   -7.1593   18.9736 O.2     1  UNL1       -0.1689
     25 C          -9.4171   -7.7632   18.6879 C.3     1  UNL1        0.0276
     26 C          -9.6566   -6.2836   18.7449 C.3     1  UNL1        0.1556
@<TRIPOS>BOND
     1    25    26    1
     2    26    22    1
     3    22    23    2
     4    22    24    2
     5    22     1    1
     6     1     2    2
     7     2     3    1
     8     3     4    2
     9     4     5    1
    10     5     6    2
    11     6    10    1
    12    10    11   ar
    13    11    12   ar
    14    12    13   ar
    15    13    14   ar
    16    14    16    1
    17    16    17   ar
    18    17    18   ar
    19    18    19   ar
    20    19    20   ar
    21    20    21   ar
    22    14    15   ar
    23     6     7    1
    24     7     8    2
    25     8     9    1
    26     9     1    1
    27     8     4    1
    28    15    10   ar
    29    21    16   ar
@<TRIPOS>MOLECULE
*****
 26 29 0 0 0
SMALL
GASTEIGER

@<TRIPOS>ATOM
      1 C           3.6195    0.2815   18.3944 C.2     1  UNL1        0.0919
      2 C           3.1081   -0.8939   19.1735 C.2     1  UNL1        0.0183
      3 C           1.8225   -0.7845   19.9386 C.2     1  UNL1        0.0511
      4 C           1.0484    0.5001   19.9246 C.2     1  UNL1        0.2322
      5 N          -0.2406    0.9024   20.5778 N.2     1  UNL1       -0.0308
      6 C          -0.5259    2.3264   20.2024 C.2     1  UNL1        0.3767
      7 N           0.5868    2.8042   19.3172 N.2     1  UNL1       -0.0346
      8 C           1.5597    1.6755   19.1456 C.2     1  UNL1        0.2191
      9 C           2.8453    1.5661   18.3805 C.3     1  UNL1        0.1226
     10 C          -1.7152    3.1312   20.6361 C.ar    1  UNL1        0.1075
     11 C          -2.5481    3.8483   19.6153 C.ar    1  UNL1        0.1065
     12 N          -3.7373    4.6531   20.0489 N.ar    1  UNL1       -0.2421
     13 C          -4.0936    4.7408   21.5033 C.ar    1  UNL1        0.0988
     14 C          -3.2606    4.0237   22.5241 C.ar    1  UNL1        0.0194
     15 C          -2.0714    3.2189   22.0905 C.ar    1  UNL1        0.0108
     16 C          -3.6170    4.1114   23.9786 C.ar    1  UNL1        0.0015
     17 C          -2.6367    3.6583   25.0196 C.ar    1  UNL1        0.0000
     18 C          -2.9931    3.7460   26.4739 C.ar    1  UNL1        0.0000
     19 C          -4.3297    4.2869   26.8873 C.ar    1  UNL1        0.0000
     20 C          -5.3099    4.7401   25.8464 C.ar    1  UNL1        0.0000
     21 C          -4.9536    4.6523   24.3920 C.ar    1  UNL1        0.0000
     22 S           4.9050    0.1722   17.6293 S.O2    1  UNL1        0.0054
     23 O           4.3091   -0.9135   16.7830 O.2     1  UNL1       -0.1689
     24 O           5.5010    1.2578   18.4756 O.2     1  UNL1       -0.1689
     25 C           6.9121    1.3037   16.4289 C.3     1  UNL1        0.0276
     26 C           6.1906    0.0628   16.8642 C.3     1  UNL1        0.1556
@<TRIPOS>BOND
     1    25    26    1
     2    26    22    1
     3    22    23    2
     4    22    24    2
     5    22     1    1
     6     1     2    2
     7     2     3    1
     8     3     4    2
     9     4     5    1
    10     5     6    2
    11     6    10    1
    12    10    11   ar
    13    11    12   ar
    14    12    13   ar
    15    13    14   ar
    16    14    16    1
    17    16    17   ar
    18    17    18   ar
    19    18    19   ar
    20    19    20   ar
    21    20    21   ar
    22    14    15   ar
    23     6     7    1
    24     7     8    2
    25     8     9    1
    26     9     1    1
    27     8     4    1
    28    15    10   ar
    29    21    16   ar
@<TRIPOS>MOLECULE
*****
 26 29 0 0 0
SMALL
GASTEIGER

@<TRIPOS>ATOM
      1 C           2.9588   -1.3176   20.5807 C.2     1  UNL1        0.0919
      2 C           3.4794   -2.2764   19.5513 C.2     1  UNL1        0.0183
      3 C           4.4858   -3.3191   19.9386 C.2     1  UNL1        0.0511
      4 C           4.9717   -3.4029   21.3552 C.2     1  UNL1        0.2322
      5 N           5.9519   -4.3178   22.0276 N.2     1  UNL1       -0.0308
      6 C           6.0372   -3.9244   23.4726 C.2     1  UNL1        0.3767
      7 N           5.1096   -2.7664   23.6933 N.2     1  UNL1       -0.0346
      8 C           4.4511   -2.4441   22.3846 C.2     1  UNL1        0.2191
      9 C           3.4447   -1.4015   21.9973 C.3     1  UNL1        0.1226
     10 C           6.8988   -4.5748   24.5141 C.ar    1  UNL1        0.1075
     11 C           8.0157   -5.4867   24.1008 C.ar    1  UNL1        0.1065
     12 N           8.8773   -6.1372   25.1422 N.ar    1  UNL1       -0.2421
     13 C           8.6219   -5.8757   26.5970 C.ar    1  UNL1        0.0988
     14 C           7.5050   -4.9638   27.0103 C.ar    1  UNL1        0.0194
     15 C           6.6434   -4.3134   25.9689 C.ar    1  UNL1        0.0108
     16 C           7.2496   -4.7023   28.4652 C.ar    1  UNL1        0.0015
     17 C           7.2778   -5.8359   29.4471 C.ar    1  UNL1        0.0000
     18 C           7.0225   -5.5744   30.9019 C.ar    1  UNL1        0.0000
     19 C           6.7389   -4.1793   31.3747 C.ar    1  UNL1        0.0000
     20 C           6.7107   -3.0458   30.3927 C.ar    1  UNL1        0.0000
     21 C           6.9661   -3.3073   28.9380 C.ar    1  UNL1        0.0000
     22 S           1.9524   -0.2749   20.1935 S.O2    1  UNL1        0.0054
     23 O           2.3954   -0.3782   18.7641 O.2     1  UNL1       -0.1689
     24 O           1.5095   -0.1716   21.6228 O.2     1  UNL1       -0.1689
     25 C           0.9359    1.3188   18.4112 C.3     1  UNL1        0.0276
     26 C           0.9460    0.7678   19.8062 C.3     1  UNL1        0.1556
@<TRIPOS>BOND
     1    25    26    1
     2    26    22    1
     3    22    23    2
     4    22    24    2
     5    22     1    1
     6     1     2    2
     7     2     3    1
     8     3     4    2
     9     4     5    1
    10     5     6    2
    11     6    10    1
    12    10    11   ar
    13    11    12   ar
    14    12    13   ar
    15    13    14   ar
    16    14    16    1
    17    16    17   ar
    18    17    18   ar
    19    18    19   ar
    20    19    20   ar
    21    20    21   ar
    22    14    15   ar
    23     6     7    1
    24     7     8    2
    25     8     9    1
    26     9     1    1
    27     8     4    1
    28    15    10   ar
    29    21    16   ar
@<TRIPOS>MOLECULE
*****
 26 29 0 0 0
SMALL
GASTEIGER

@<TRIPOS>ATOM
      1 C           1.4347    0.8478   28.9229 C.2     1  UNL1        0.0919
      2 C           0.0261    1.3618   28.9646 C.2     1  UNL1        0.0183
      3 C          -0.6949    1.6780   27.6878 C.2     1  UNL1        0.0511
      4 C          -0.0074    1.4803   26.3694 C.2     1  UNL1        0.2322
      5 N          -0.4611    1.7042   24.9574 N.2     1  UNL1       -0.0308
      6 C           0.6671    1.3286   24.0429 C.2     1  UNL1        0.3767
      7 N           1.8180    0.8726   24.8899 N.2     1  UNL1       -0.0346
      8 C           1.4011    0.9663   26.3278 C.2     1  UNL1        0.2191
      9 C           2.1222    0.6501   27.6045 C.3     1  UNL1        0.1226
     10 C           0.6477    1.3970   22.5446 C.ar    1  UNL1        0.1075
     11 C          -0.2811    2.3477   21.8492 C.ar    1  UNL1        0.1065
     12 N          -0.3006    2.4162   20.3509 N.ar    1  UNL1       -0.2421
     13 C           0.6088    1.5340   19.5480 C.ar    1  UNL1        0.0988
     14 C           1.5376    0.5833   20.2434 C.ar    1  UNL1        0.0194
     15 C           1.5570    0.5148   21.7416 C.ar    1  UNL1        0.0108
     16 C           2.4470   -0.2989   19.4404 C.ar    1  UNL1        0.0015
     17 C           2.8988   -1.6160   19.9981 C.ar    1  UNL1        0.0000
     18 C           3.8081   -2.4982   19.1951 C.ar    1  UNL1        0.0000
     19 C           4.2656   -2.0633   17.8344 C.ar    1  UNL1        0.0000
     20 C           3.8138   -0.7462   17.2767 C.ar    1  UNL1        0.0000
     21 C           2.9045    0.1360   18.0797 C.ar    1  UNL1        0.0000
     22 S           2.1558    0.5316   30.1996 S.O2    1  UNL1        0.0054
     23 O           0.9745    1.0161   30.9869 O.2     1  UNL1       -0.1689
     24 O           3.3371    0.0470   29.4124 O.2     1  UNL1       -0.1689
     25 C           2.8223    1.1766   32.6265 C.3     1  UNL1        0.0276
     26 C           2.8768    0.2153   31.4764 C.3     1  UNL1        0.1556
@<TRIPOS>BOND
     1    25    26    1
     2    26    22    1
     3    22    23    2
     4    22    24    2
     5    22     1    1
     6     1     2    2
     7     2     3    1
     8     3     4    2
     9     4     5    1
    10     5     6    2
    11     6    10    1
    12    10    11   ar
    13    11    12   ar
    14    12    13   ar
    15    13    14   ar
    16    14    16    1
    17    16    17   ar
    18    17    18   ar
    19    18    19   ar
    20    19    20   ar
    21    20    21   ar
    22    14    15   ar
    23     6     7    1
    24     7     8    2
    25     8     9    1
    26     9     1    1
    27     8     4    1
    28    15    10   ar
    29    21    16   ar
