@<TRIPOS>MOLECULE
*****
 22 23 0 0 0
SMALL
GASTEIGER

@<TRIPOS>ATOM
      1 O          -8.9850  -20.7716   17.9016 O.2     1  UNL1       -0.2866
      2 C          -8.8031  -19.9977   19.1736 C.2     1  UNL1        0.1957
      3 C          -9.9908  -19.6731   20.0304 C.2     1  UNL1        0.0420
      4 C          -9.7912  -19.1437   21.4196 C.2     1  UNL1        0.0033
      5 C         -10.9789  -18.8191   22.2764 C.ar    1  UNL1        0.0003
      6 C         -12.1581  -18.1057   21.6845 C.ar    1  UNL1        0.0031
      7 C         -13.3457  -17.7811   22.5414 C.ar    1  UNL1        0.0366
      8 C         -13.3541  -18.1699   23.9901 C.ar    1  UNL1        0.1337
      9 O         -14.5418  -17.8454   24.8469 O.3     1  UNL1       -0.5055
     10 C         -12.1748  -18.8833   24.5819 C.ar    1  UNL1        0.0366
     11 C         -10.9872  -19.2079   23.7251 C.ar    1  UNL1        0.0031
     12 H         -15.2785  -17.3997   24.4771 H       1  UNL1        0.2922
     13 C          -7.4335  -19.5483   19.5888 C.2     1  UNL1        0.0420
     14 C          -6.6077  -20.4054   20.5016 C.2     1  UNL1        0.0033
     15 C          -5.2380  -19.9561   20.9168 C.ar    1  UNL1        0.0003
     16 C          -5.0413  -19.2721   22.2372 C.ar    1  UNL1        0.0031
     17 C          -3.6718  -18.8228   22.6524 C.ar    1  UNL1        0.0366
     18 C          -2.4990  -19.0575   21.7473 C.ar    1  UNL1        0.1337
     19 O          -1.1294  -18.6082   22.1625 O.3     1  UNL1       -0.5055
     20 C          -2.6957  -19.7415   20.4269 C.ar    1  UNL1        0.0366
     21 C          -4.0652  -20.1908   20.0116 C.ar    1  UNL1        0.0031
     22 H          -1.0065  -18.1809   22.9873 H       1  UNL1        0.2922
@<TRIPOS>BOND
     1     1     2    2
     2     2     3    1
     3     3     4    2
     4     4     5    1
     5     5     6   ar
     6     6     7   ar
     7     7     8   ar
     8     8     9    1
     9     8    10   ar
    10    10    11   ar
    11     2    13    1
    12    13    14    2
    13    14    15    1
    14    15    16   ar
    15    16    17   ar
    16    17    18   ar
    17    18    19    1
    18    18    20   ar
    19    20    21   ar
    20    11     5   ar
    21    21    15   ar
    22     9    12    1
    23    19    22    1
@<TRIPOS>MOLECULE
*****
 22 23 0 0 0
SMALL
GASTEIGER

@<TRIPOS>ATOM
      1 O          -5.4667  -14.7157   26.0470 O.2     1  UNL1       -0.2866
      2 C          -6.0026  -15.4434   24.8498 C.2     1  UNL1        0.1957
      3 C          -7.4582  -15.7987   24.7776 C.2     1  UNL1        0.0420
      4 C          -7.9492  -16.7382   23.7164 C.2     1  UNL1        0.0033
      5 C          -9.4048  -17.0935   23.6442 C.ar    1  UNL1        0.0003
      6 C         -10.3150  -16.3428   22.7180 C.ar    1  UNL1        0.0031
      7 C         -11.7705  -16.6981   22.6459 C.ar    1  UNL1        0.0366
      8 C         -12.3157  -17.8042   23.5000 C.ar    1  UNL1        0.1337
      9 O         -13.7713  -18.1595   23.4278 O.3     1  UNL1       -0.5055
     10 C         -11.4055  -18.5549   24.4262 C.ar    1  UNL1        0.0366
     11 C          -9.9500  -18.1995   24.4983 C.ar    1  UNL1        0.0031
     12 H         -14.3399  -17.6905   22.8493 H       1  UNL1        0.2922
     13 C          -5.0831  -15.8157   23.7247 C.2     1  UNL1        0.0420
     14 C          -4.1896  -17.0138   23.8517 C.2     1  UNL1        0.0033
     15 C          -3.2699  -17.3862   22.7267 C.ar    1  UNL1        0.0003
     16 C          -3.1932  -18.8099   22.2607 C.ar    1  UNL1        0.0031
     17 C          -2.2737  -19.1824   21.1357 C.ar    1  UNL1        0.0366
     18 C          -1.4308  -18.1311   20.4767 C.ar    1  UNL1        0.1337
     19 O          -0.5111  -18.5035   19.3517 O.3     1  UNL1       -0.5055
     20 C          -1.5075  -16.7074   20.9427 C.ar    1  UNL1        0.0366
     21 C          -2.4270  -16.3349   22.0677 C.ar    1  UNL1        0.0031
     22 H          -0.4632  -19.3928   19.0606 H       1  UNL1        0.2922
@<TRIPOS>BOND
     1     1     2    2
     2     2     3    1
     3     3     4    2
     4     4     5    1
     5     5     6   ar
     6     6     7   ar
     7     7     8   ar
     8     8     9    1
     9     8    10   ar
    10    10    11   ar
    11     2    13    1
    12    13    14    2
    13    14    15    1
    14    15    16   ar
    15    16    17   ar
    16    17    18   ar
    17    18    19    1
    18    18    20   ar
    19    20    21   ar
    20    11     5   ar
    21    21    15   ar
    22     9    12    1
    23    19    22    1
@<TRIPOS>MOLECULE
*****
 22 23 0 0 0
SMALL
GASTEIGER

@<TRIPOS>ATOM
      1 O         -10.2120   -6.8924   18.9656 O.2     1  UNL1       -0.2866
      2 C         -11.4366   -6.0335   18.8532 C.2     1  UNL1        0.1957
      3 C         -12.7869   -6.6081   19.1642 C.2     1  UNL1        0.0420
      4 C         -13.3847   -7.6484   18.2640 C.2     1  UNL1        0.0033
      5 C         -14.7350   -8.2231   18.5750 C.ar    1  UNL1        0.0003
      6 C         -15.7089   -7.4422   19.4067 C.ar    1  UNL1        0.0031
      7 C         -17.0591   -8.0169   19.7176 C.ar    1  UNL1        0.0366
      8 C         -17.4353   -9.3724   19.1969 C.ar    1  UNL1        0.1337
      9 O         -18.7856   -9.9470   19.5079 O.3     1  UNL1       -0.5055
     10 C         -16.4614  -10.1532   18.3653 C.ar    1  UNL1        0.0366
     11 C         -15.1112   -9.5785   18.0543 C.ar    1  UNL1        0.0031
     12 H         -19.3940   -9.4593   20.0274 H       1  UNL1        0.2922
     13 C         -11.3110   -4.6000   18.4298 C.2     1  UNL1        0.0420
     14 C         -12.3559   -3.6036   18.8364 C.2     1  UNL1        0.0033
     15 C         -12.2304   -2.1701   18.4131 C.ar    1  UNL1        0.0003
     16 C         -11.0046   -1.7086   17.6820 C.ar    1  UNL1        0.0031
     17 C         -10.8790   -0.2751   17.2586 C.ar    1  UNL1        0.0366
     18 C         -11.9791    0.6969   17.5663 C.ar    1  UNL1        0.1337
     19 O         -11.8536    2.1305   17.1430 O.3     1  UNL1       -0.5055
     20 C         -13.2049    0.2355   18.2974 C.ar    1  UNL1        0.0366
     21 C         -13.3305   -1.1980   18.7208 C.ar    1  UNL1        0.0031
     22 H         -11.0878    2.4188   16.6863 H       1  UNL1        0.2922
@<TRIPOS>BOND
     1     1     2    2
     2     2     3    1
     3     3     4    2
     4     4     5    1
     5     5     6   ar
     6     6     7   ar
     7     7     8   ar
     8     8     9    1
     9     8    10   ar
    10    10    11   ar
    11     2    13    1
    12    13    14    2
    13    14    15    1
    14    15    16   ar
    15    16    17   ar
    16    17    18   ar
    17    18    19    1
    18    18    20   ar
    19    20    21   ar
    20    11     5   ar
    21    21    15   ar
    22     9    12    1
    23    19    22    1
@<TRIPOS>MOLECULE
*****
 22 23 0 0 0
SMALL
GASTEIGER

@<TRIPOS>ATOM
      1 O         -10.1188   -6.7031   19.0311 O.2     1  UNL1       -0.2866
      2 C         -11.3727   -5.8950   18.8739 C.2     1  UNL1        0.1957
      3 C         -11.2949   -4.4749   18.3969 C.2     1  UNL1        0.0420
      4 C         -12.2615   -3.4541   18.9199 C.2     1  UNL1        0.0033
      5 C         -12.1837   -2.0340   18.4430 C.ar    1  UNL1        0.0003
      6 C         -13.3197   -1.0908   18.7071 C.ar    1  UNL1        0.0031
      7 C         -13.2419    0.3292   18.2302 C.ar    1  UNL1        0.0366
      8 C         -12.0280    0.8060   17.4891 C.ar    1  UNL1        0.1337
      9 O         -11.9502    2.2261   17.0122 O.3     1  UNL1       -0.5055
     10 C         -10.8920   -0.1372   17.2250 C.ar    1  UNL1        0.0366
     11 C         -10.9698   -1.5572   17.7019 C.ar    1  UNL1        0.0031
     12 H         -12.6598    2.8153   17.1772 H       1  UNL1        0.2922
     13 C         -12.7043   -6.5069   19.1936 C.2     1  UNL1        0.0420
     14 C         -13.3234   -7.4924   18.2473 C.2     1  UNL1        0.0033
     15 C         -14.6551   -8.1043   18.5670 C.ar    1  UNL1        0.0003
     16 C         -15.0074   -9.4585   18.0264 C.ar    1  UNL1        0.0031
     17 C         -16.3390  -10.0704   18.3460 C.ar    1  UNL1        0.0366
     18 C         -17.3184   -9.3283   19.2062 C.ar    1  UNL1        0.1337
     19 O         -18.6501   -9.9402   19.5259 O.3     1  UNL1       -0.5055
     20 C         -16.9661   -7.9741   19.7468 C.ar    1  UNL1        0.0366
     21 C         -15.6345   -7.3622   19.4271 C.ar    1  UNL1        0.0031
     22 H         -18.8702  -10.7861   19.1882 H       1  UNL1        0.2922
@<TRIPOS>BOND
     1     1     2    2
     2     2     3    1
     3     3     4    2
     4     4     5    1
     5     5     6   ar
     6     6     7   ar
     7     7     8   ar
     8     8     9    1
     9     8    10   ar
    10    10    11   ar
    11     2    13    1
    12    13    14    2
    13    14    15    1
    14    15    16   ar
    15    16    17   ar
    16    17    18   ar
    17    18    19    1
    18    18    20   ar
    19    20    21   ar
    20    11     5   ar
    21    21    15   ar
    22     9    12    1
    23    19    22    1
@<TRIPOS>MOLECULE
*****
 22 23 0 0 0
SMALL
GASTEIGER

@<TRIPOS>ATOM
      1 O         -10.2873   -5.9068   19.3078 O.2     1  UNL1       -0.2866
      2 C         -11.7117   -5.7290   18.8728 C.2     1  UNL1        0.1957
      3 C         -12.2179   -4.3668   18.5009 C.2     1  UNL1        0.0420
      4 C         -12.6522   -3.4101   19.5715 C.2     1  UNL1        0.0033
      5 C         -13.1584   -2.0479   19.1996 C.ar    1  UNL1        0.0003
      6 C         -14.5953   -1.6906   19.4392 C.ar    1  UNL1        0.0031
      7 C         -15.1014   -0.3284   19.0674 C.ar    1  UNL1        0.0366
      8 C         -14.1706    0.6765   18.4560 C.ar    1  UNL1        0.1337
      9 O         -14.6768    2.0387   18.0842 O.3     1  UNL1       -0.5055
     10 C         -12.7336    0.3192   18.2164 C.ar    1  UNL1        0.0366
     11 C         -12.2275   -1.0430   18.5882 C.ar    1  UNL1        0.0031
     12 H         -15.5744    2.2619   18.2338 H       1  UNL1        0.2922
     13 C         -12.6300   -6.9134   18.8095 C.2     1  UNL1        0.0420
     14 C         -14.1121   -6.7209   18.9370 C.2     1  UNL1        0.0033
     15 C         -15.0304   -7.9053   18.8738 C.ar    1  UNL1        0.0003
     16 C         -16.3289   -7.8885   19.6245 C.ar    1  UNL1        0.0031
     17 C         -17.2472   -9.0728   19.5612 C.ar    1  UNL1        0.0366
     18 C         -16.8671  -10.2739   18.7473 C.ar    1  UNL1        0.1337
     19 O         -17.7854  -11.4583   18.6840 O.3     1  UNL1       -0.5055
     20 C         -15.5685  -10.2908   17.9966 C.ar    1  UNL1        0.0366
     21 C         -14.6502   -9.1065   18.0598 C.ar    1  UNL1        0.0031
     22 H         -18.5965  -11.4478   19.1530 H       1  UNL1        0.2922
@<TRIPOS>BOND
     1     1     2    2
     2     2     3    1
     3     3     4    2
     4     4     5    1
     5     5     6   ar
     6     6     7   ar
     7     7     8   ar
     8     8     9    1
     9     8    10   ar
    10    10    11   ar
    11     2    13    1
    12    13    14    2
    13    14    15    1
    14    15    16   ar
    15    16    17   ar
    16    17    18   ar
    17    18    19    1
    18    18    20   ar
    19    20    21   ar
    20    11     5   ar
    21    21    15   ar
    22     9    12    1
    23    19    22    1
@<TRIPOS>MOLECULE
*****
 22 23 0 0 0
SMALL
GASTEIGER

@<TRIPOS>ATOM
      1 O           8.7407  -12.6900   28.1227 O.2     1  UNL1       -0.2866
      2 C           7.4029  -12.0128   28.0802 C.2     1  UNL1        0.1957
      3 C           7.3216  -10.5182   27.9813 C.2     1  UNL1        0.0420
      4 C           8.5434   -9.7223   27.6298 C.2     1  UNL1        0.0033
      5 C           8.4621   -8.2277   27.5310 C.ar    1  UNL1        0.0003
      6 C           9.0969   -7.3707   28.5857 C.ar    1  UNL1        0.0031
      7 C           9.0155   -5.8762   28.4868 C.ar    1  UNL1        0.0366
      8 C           8.2995   -5.2387   27.3332 C.ar    1  UNL1        0.1337
      9 O           8.2181   -3.7441   27.2343 O.3     1  UNL1       -0.5055
     10 C           7.6647   -6.0958   26.2784 C.ar    1  UNL1        0.0366
     11 C           7.7460   -7.5903   26.3773 C.ar    1  UNL1        0.0031
     12 H           8.6147   -3.2088   27.8932 H       1  UNL1        0.2922
     13 C           6.1465  -12.8302   28.1365 C.2     1  UNL1        0.0420
     14 C           4.8275  -12.1616   28.3874 C.2     1  UNL1        0.0033
     15 C           3.5709  -12.9789   28.4438 C.ar    1  UNL1        0.0003
     16 C           3.4966  -14.2909   27.7205 C.ar    1  UNL1        0.0031
     17 C           2.2402  -15.1083   27.7769 C.ar    1  UNL1        0.0366
     18 C           1.0580  -14.6137   28.5564 C.ar    1  UNL1        0.1337
     19 O          -0.1985  -15.4310   28.6128 O.3     1  UNL1       -0.5055
     20 C           1.1323  -13.3016   29.2797 C.ar    1  UNL1        0.0366
     21 C           2.3888  -12.4843   29.2234 C.ar    1  UNL1        0.0031
     22 H          -0.2449  -16.2506   28.1610 H       1  UNL1        0.2922
@<TRIPOS>BOND
     1     1     2    2
     2     2     3    1
     3     3     4    2
     4     4     5    1
     5     5     6   ar
     6     6     7   ar
     7     7     8   ar
     8     8     9    1
     9     8    10   ar
    10    10    11   ar
    11     2    13    1
    12    13    14    2
    13    14    15    1
    14    15    16   ar
    15    16    17   ar
    16    17    18   ar
    17    18    19    1
    18    18    20   ar
    19    20    21   ar
    20    11     5   ar
    21    21    15   ar
    22     9    12    1
    23    19    22    1
@<TRIPOS>MOLECULE
*****
 22 23 0 0 0
SMALL
GASTEIGER

@<TRIPOS>ATOM
      1 O          -0.2691    4.5407   17.8896 O.2     1  UNL1       -0.2866
      2 C          -0.0942    3.3869   18.8321 C.2     1  UNL1        0.1957
      3 C          -0.8577    3.3505   20.1228 C.2     1  UNL1        0.0420
      4 C          -2.3504    3.4980   20.1156 C.2     1  UNL1        0.0033
      5 C          -3.1139    3.4616   21.4063 C.ar    1  UNL1        0.0003
      6 C          -2.3976    3.6704   22.7075 C.ar    1  UNL1        0.0031
      7 C          -3.1611    3.6340   23.9981 C.ar    1  UNL1        0.0366
      8 C          -4.6409    3.3887   23.9875 C.ar    1  UNL1        0.1337
      9 O          -5.4044    3.3522   25.2781 O.3     1  UNL1       -0.5055
     10 C          -5.3572    3.1798   22.6862 C.ar    1  UNL1        0.0366
     11 C          -4.5937    3.2163   21.3956 C.ar    1  UNL1        0.0031
     12 H          -4.9570    3.4827   26.0910 H       1  UNL1        0.2922
     13 C           0.8442    2.2697   18.4840 C.2     1  UNL1        0.0420
     14 C           1.1268    1.1885   19.4845 C.2     1  UNL1        0.0033
     15 C           2.0653    0.0712   19.1364 C.ar    1  UNL1        0.0003
     16 C           2.8785    0.1394   17.8778 C.ar    1  UNL1        0.0031
     17 C           3.8168   -0.9778   17.5297 C.ar    1  UNL1        0.0366
     18 C           3.9420   -2.1632   18.4401 C.ar    1  UNL1        0.1337
     19 O           4.8804   -3.2806   18.0920 O.3     1  UNL1       -0.5055
     20 C           3.1288   -2.2315   19.6987 C.ar    1  UNL1        0.0366
     21 C           2.1904   -1.1142   20.0468 C.ar    1  UNL1        0.0031
     22 H           5.3884   -3.2380   17.3059 H       1  UNL1        0.2922
@<TRIPOS>BOND
     1     1     2    2
     2     2     3    1
     3     3     4    2
     4     4     5    1
     5     5     6   ar
     6     6     7   ar
     7     7     8   ar
     8     8     9    1
     9     8    10   ar
    10    10    11   ar
    11     2    13    1
    12    13    14    2
    13    14    15    1
    14    15    16   ar
    15    16    17   ar
    16    17    18   ar
    17    18    19    1
    18    18    20   ar
    19    20    21   ar
    20    11     5   ar
    21    21    15   ar
    22     9    12    1
    23    19    22    1
@<TRIPOS>MOLECULE
*****
 22 23 0 0 0
SMALL
GASTEIGER

@<TRIPOS>ATOM
      1 O         -11.0247    0.2648   16.8496 O.2     1  UNL1       -0.2866
      2 C         -11.6297   -0.8227   17.6871 C.2     1  UNL1        0.1957
      3 C         -12.7713   -0.5120   18.6092 C.2     1  UNL1        0.0420
      4 C         -13.9475    0.2729   18.1086 C.2     1  UNL1        0.0033
      5 C         -15.0891    0.5836   19.0307 C.ar    1  UNL1        0.0003
      6 C         -15.9257   -0.5288   19.5898 C.ar    1  UNL1        0.0031
      7 C         -17.0673   -0.2180   20.5118 C.ar    1  UNL1        0.0366
      8 C         -17.3723    1.2051   20.8747 C.ar    1  UNL1        0.1337
      9 O         -18.5139    1.5158   21.7968 O.3     1  UNL1       -0.5055
     10 C         -16.5357    2.3175   20.3156 C.ar    1  UNL1        0.0366
     11 C         -15.3941    2.0067   19.3936 C.ar    1  UNL1        0.0031
     12 H         -19.0365    0.8210   22.1461 H       1  UNL1        0.2922
     13 C         -11.0930   -2.2208   17.6026 C.2     1  UNL1        0.0420
     14 C         -11.8096   -3.3422   18.2946 C.2     1  UNL1        0.0033
     15 C         -11.2729   -4.7405   18.2101 C.ar    1  UNL1        0.0003
     16 C         -10.1304   -5.1596   19.0870 C.ar    1  UNL1        0.0031
     17 C          -9.5938   -6.5577   19.0025 C.ar    1  UNL1        0.0366
     18 C         -10.1997   -7.5368   18.0412 C.ar    1  UNL1        0.1337
     19 O          -9.6630   -8.9350   17.9567 O.3     1  UNL1       -0.5055
     20 C         -11.3422   -7.1177   17.1643 C.ar    1  UNL1        0.0366
     21 C         -11.8789   -5.7195   17.2487 C.ar    1  UNL1        0.0031
     22 H          -8.9493   -9.1968   18.5044 H       1  UNL1        0.2922
@<TRIPOS>BOND
     1     1     2    2
     2     2     3    1
     3     3     4    2
     4     4     5    1
     5     5     6   ar
     6     6     7   ar
     7     7     8   ar
     8     8     9    1
     9     8    10   ar
    10    10    11   ar
    11     2    13    1
    12    13    14    2
    13    14    15    1
    14    15    16   ar
    15    16    17   ar
    16    17    18   ar
    17    18    19    1
    18    18    20   ar
    19    20    21   ar
    20    11     5   ar
    21    21    15   ar
    22     9    12    1
    23    19    22    1
@<TRIPOS>MOLECULE
*****
 22 23 0 0 0
SMALL
GASTEIGER

@<TRIPOS>ATOM
      1 O          -0.7892    3.0903   22.9886 O.2     1  UNL1       -0.2866
      2 C           0.2403    1.9996   22.9641 C.2     1  UNL1        0.1957
      3 C           0.8173    1.5421   21.6573 C.2     1  UNL1        0.0420
      4 C           1.7655    0.3804   21.6218 C.2     1  UNL1        0.0033
      5 C           2.3425   -0.0772   20.3149 C.ar    1  UNL1        0.0003
      6 C           2.2766    0.8165   19.1121 C.ar    1  UNL1        0.0031
      7 C           2.8536    0.3590   17.8053 C.ar    1  UNL1        0.0366
      8 C           3.4965   -0.9922   17.7014 C.ar    1  UNL1        0.1337
      9 O           4.0735   -1.4498   16.3945 O.3     1  UNL1       -0.5055
     10 C           3.5624   -1.8859   18.9042 C.ar    1  UNL1        0.0366
     11 C           2.9854   -1.4284   20.2110 C.ar    1  UNL1        0.0031
     12 H           4.0323   -0.8915   15.6431 H       1  UNL1        0.2922
     13 C           0.6927    1.3665   24.2464 C.2     1  UNL1        0.0420
     14 C          -0.0312    1.6640   25.5260 C.2     1  UNL1        0.0033
     15 C           0.4213    1.0309   26.8084 C.ar    1  UNL1        0.0003
     16 C          -0.5909    0.5569   27.8088 C.ar    1  UNL1        0.0031
     17 C          -0.1385   -0.0763   29.0911 C.ar    1  UNL1        0.0366
     18 C           1.3261   -0.2354   29.3731 C.ar    1  UNL1        0.1337
     19 O           1.7785   -0.8685   30.6555 O.3     1  UNL1       -0.5055
     20 C           2.3383    0.2386   28.3728 C.ar    1  UNL1        0.0366
     21 C           1.8859    0.8718   27.0904 C.ar    1  UNL1        0.0031
     22 H           1.1463   -1.1646   31.2804 H       1  UNL1        0.2922
@<TRIPOS>BOND
     1     1     2    2
     2     2     3    1
     3     3     4    2
     4     4     5    1
     5     5     6   ar
     6     6     7   ar
     7     7     8   ar
     8     8     9    1
     9     8    10   ar
    10    10    11   ar
    11     2    13    1
    12    13    14    2
    13    14    15    1
    14    15    16   ar
    15    16    17   ar
    16    17    18   ar
    17    18    19    1
    18    18    20   ar
    19    20    21   ar
    20    11     5   ar
    21    21    15   ar
    22     9    12    1
    23    19    22    1
