@<TRIPOS>MOLECULE
*****
 35 38 0 0 0
SMALL
GASTEIGER

@<TRIPOS>ATOM
      1 N           6.7945  -10.6336   27.6326 N.3     1  UNL1       -0.1591
      2 C           8.2485  -10.5613   27.9939 C.3     1  UNL1        0.0991
      3 C           9.0538   -9.3510   27.6242 C.3     1  UNL1        0.0627
      4 C           8.4051   -8.2130   26.8933 C.3     1  UNL1        0.1688
      5 C           6.9511   -8.2853   26.5321 C.3     1  UNL1        0.0627
      6 C           6.1458   -9.4956   26.9017 C.3     1  UNL1        0.0991
      7 S           5.9891  -11.8439   28.0023 S.O2    1  UNL1        0.0459
      8 O           7.2065  -12.4653   28.6200 O.2     1  UNL1       -0.1572
      9 O           4.7717  -11.2225   27.3845 O.2     1  UNL1       -0.1572
     10 C           5.1838  -13.0541   28.3719 C.3     1  UNL1        0.1958
     11 C           4.1826  -12.0156   29.7679 C.3     1  UNL1        0.0310
     12 C           3.7187  -12.9195   28.6644 C.3     1  UNL1        0.1509
     13 N           2.3507  -12.5959   29.1875 N.am    1  UNL1       -0.2825
     14 C           1.3476  -13.3280   28.3462 C.2     1  UNL1        0.3068
     15 O          -0.1421  -13.2907   28.5178 O.2     1  UNL1       -0.2524
     16 N           2.0957  -14.1041   27.3031 N.am    1  UNL1       -0.2383
     17 C           3.5611  -13.8516   27.4997 C.2     1  UNL1        0.2469
     18 O           4.6737  -14.4297   26.6763 O.2     1  UNL1       -0.2729
     19 H           2.1469  -12.0065   29.9493 H       1  UNL1        0.1514
     20 H           1.6952  -14.6783   26.6109 H       1  UNL1        0.1591
     21 O           9.2105   -7.0027   26.5237 O.3     1  UNL1       -0.4791
     22 C           8.9481   -6.2943   25.2278 C.ar    1  UNL1        0.1386
     23 C           8.2839   -4.9494   25.2294 C.ar    1  UNL1        0.0400
     24 C           8.0215   -4.2410   23.9335 C.ar    1  UNL1        0.0400
     25 C           8.4233   -4.8775   22.6360 C.ar    1  UNL1        0.1393
     26 C           9.0875   -6.2224   22.6345 C.ar    1  UNL1        0.0400
     27 C           9.3499   -6.9308   23.9303 C.ar    1  UNL1        0.0400
     28 O           8.1608   -4.1691   21.3402 O.3     1  UNL1       -0.4690
     29 C           7.0996   -3.1117   21.2650 C.3     1  UNL1        0.2508
     30 C           5.8151   -3.3883   20.5413 C.ar    1  UNL1        0.1026
     31 C           4.7495   -2.3347   20.4754 C.ar    1  UNL1        0.0185
     32 C           3.4651   -2.6113   19.7518 C.ar    1  UNL1        0.0029
     33 C           3.2463   -3.9415   19.0941 C.ar    1  UNL1        0.0207
     34 C           4.3119   -4.9951   19.1600 C.ar    1  UNL1        0.0986
     35 N           5.5963   -4.7185   19.8837 N.ar    1  UNL1       -0.2445
@<TRIPOS>BOND
     1    12    11    1
     2    12    10    1
     3    10     7    1
     4     7     8    2
     5     7     9    2
     6     7     1    1
     7     1     2    1
     8     2     3    1
     9     3     4    1
    10     4    21    1
    11    21    22    1
    12    22    23   ar
    13    23    24   ar
    14    24    25   ar
    15    25    28    1
    16    28    29    1
    17    29    30    1
    18    30    31   ar
    19    31    32   ar
    20    32    33   ar
    21    33    34   ar
    22    34    35   ar
    23    25    26   ar
    24    26    27   ar
    25     4     5    1
    26     5     6    1
    27    12    13    1
    28    13    14   am
    29    14    15    2
    30    14    16   am
    31    16    17   am
    32    17    18    2
    33    17    12    1
    34     6     1    1
    35    27    22   ar
    36    35    30   ar
    37    13    19    1
    38    16    20    1
@<TRIPOS>MOLECULE
*****
 35 38 0 0 0
SMALL
GASTEIGER

@<TRIPOS>ATOM
      1 N           2.9783    0.5615   18.3240 N.3     1  UNL1       -0.1591
      2 C           3.5793    1.9336   18.4032 C.3     1  UNL1        0.0991
      3 C           2.6975    3.1270   18.6224 C.3     1  UNL1        0.0627
      4 C           1.2148    2.9485   18.7624 C.3     1  UNL1        0.1688
      5 C           0.6138    1.5764   18.6832 C.3     1  UNL1        0.0627
      6 C           1.4956    0.3830   18.4641 C.3     1  UNL1        0.0991
      7 S           3.8601   -0.6320   18.1049 S.O2    1  UNL1        0.0459
      8 O           3.2399   -0.8424   16.7554 O.2     1  UNL1       -0.1572
      9 O           4.4803   -0.4217   19.4543 O.2     1  UNL1       -0.1572
     10 C           4.7418   -1.8255   17.8857 C.3     1  UNL1        0.1958
     11 C           3.6490   -2.8437   19.2268 C.3     1  UNL1        0.0310
     12 C           5.1304   -2.6940   19.0453 C.3     1  UNL1        0.1509
     13 N           5.2093   -3.5938   20.2428 N.am    1  UNL1       -0.2825
     14 C           6.6584   -3.8186   20.5590 C.2     1  UNL1        0.3068
     15 O           7.1963   -4.6570   21.6804 O.2     1  UNL1       -0.2524
     16 N           7.4749   -3.0578   19.5568 N.am    1  UNL1       -0.2383
     17 C           6.5306   -2.3627   18.6213 C.2     1  UNL1        0.2469
     18 O           6.9184   -1.4897   17.4648 O.2     1  UNL1       -0.2729
     19 H           4.4444   -3.9706   20.7349 H       1  UNL1        0.1514
     20 H           8.4580   -3.0210   19.5196 H       1  UNL1        0.1591
     21 O           0.3330    4.1420   18.9816 O.3     1  UNL1       -0.4791
     22 C          -0.9588    3.9930   19.7292 C.ar    1  UNL1        0.1386
     23 C          -2.2631    4.0401   18.9899 C.ar    1  UNL1        0.0400
     24 C          -3.5549    3.8910   19.7376 C.ar    1  UNL1        0.0400
     25 C          -3.5424    3.6949   21.2246 C.ar    1  UNL1        0.1393
     26 C          -2.2381    3.6477   21.9640 C.ar    1  UNL1        0.0400
     27 C          -0.9463    3.7968   21.2163 C.ar    1  UNL1        0.0400
     28 O          -4.8342    3.5458   21.9723 O.3     1  UNL1       -0.4690
     29 C          -4.8394    2.9514   23.3495 C.3     1  UNL1        0.2508
     30 C          -5.0456    3.8325   24.5459 C.ar    1  UNL1        0.1026
     31 C          -4.0822    3.7756   25.6942 C.ar    1  UNL1        0.0185
     32 C          -4.2883    4.6566   26.8905 C.ar    1  UNL1        0.0029
     33 C          -5.4578    5.5946   26.9385 C.ar    1  UNL1        0.0207
     34 C          -6.4212    5.6515   25.7902 C.ar    1  UNL1        0.0986
     35 N          -6.2151    4.7705   24.5939 N.ar    1  UNL1       -0.2445
@<TRIPOS>BOND
     1    12    11    1
     2    12    10    1
     3    10     7    1
     4     7     8    2
     5     7     9    2
     6     7     1    1
     7     1     2    1
     8     2     3    1
     9     3     4    1
    10     4    21    1
    11    21    22    1
    12    22    23   ar
    13    23    24   ar
    14    24    25   ar
    15    25    28    1
    16    28    29    1
    17    29    30    1
    18    30    31   ar
    19    31    32   ar
    20    32    33   ar
    21    33    34   ar
    22    34    35   ar
    23    25    26   ar
    24    26    27   ar
    25     4     5    1
    26     5     6    1
    27    12    13    1
    28    13    14   am
    29    14    15    2
    30    14    16   am
    31    16    17   am
    32    17    18    2
    33    17    12    1
    34     6     1    1
    35    27    22   ar
    36    35    30   ar
    37    13    19    1
    38    16    20    1
@<TRIPOS>MOLECULE
*****
 35 38 0 0 0
SMALL
GASTEIGER

@<TRIPOS>ATOM
      1 N           3.0275    0.4445   18.3141 N.3     1  UNL1       -0.1591
      2 C           1.5351    0.3164   18.2351 C.3     1  UNL1        0.0991
      3 C           0.6669    1.5214   18.4451 C.3     1  UNL1        0.0627
      4 C           1.2910    2.8544   18.7341 C.3     1  UNL1        0.1688
      5 C           2.7834    2.9824   18.8131 C.3     1  UNL1        0.0627
      6 C           3.6517    1.7775   18.6031 C.3     1  UNL1        0.0991
      7 S           3.8959   -0.7605   18.1041 S.O2    1  UNL1        0.0459
      8 O           4.4348   -0.6147   19.4962 O.2     1  UNL1       -0.1572
      9 O           3.3569   -0.9064   16.7119 O.2     1  UNL1       -0.1572
     10 C           4.7642   -1.9655   17.8941 C.3     1  UNL1        0.1958
     11 C           3.7026   -3.0263   19.2273 C.3     1  UNL1        0.0310
     12 C           5.1775   -2.8055   19.0661 C.3     1  UNL1        0.1509
     13 N           5.2825   -3.6916   20.2718 N.am    1  UNL1       -0.2825
     14 C           6.7359   -3.8428   20.6107 C.2     1  UNL1        0.3068
     15 O           7.2975   -4.6458   21.7465 O.2     1  UNL1       -0.2524
     16 N           7.5291   -3.0501   19.6145 N.am    1  UNL1       -0.2383
     17 C           6.5660   -2.4090   18.6599 C.2     1  UNL1        0.2469
     18 O           6.9278   -1.5263   17.5023 O.2     1  UNL1       -0.2729
     19 H           4.5297   -4.1020   20.7557 H       1  UNL1        0.1514
     20 H           8.5097   -2.9654   19.5913 H       1  UNL1        0.1591
     21 O           0.4227    4.0594   18.9441 O.3     1  UNL1       -0.4791
     22 C          -1.0487    3.8912   19.1821 C.ar    1  UNL1        0.1386
     23 C          -2.0203    4.1158   18.0616 C.ar    1  UNL1        0.0400
     24 C          -3.4917    3.9476   18.2997 C.ar    1  UNL1        0.0400
     25 C          -3.9915    3.5549   19.6583 C.ar    1  UNL1        0.1393
     26 C          -3.0200    3.3304   20.7789 C.ar    1  UNL1        0.0400
     27 C          -1.5486    3.4985   20.5408 C.ar    1  UNL1        0.0400
     28 O          -5.4629    3.3868   19.8964 O.3     1  UNL1       -0.4690
     29 C          -6.3030    4.5728   20.2673 C.3     1  UNL1        0.2508
     30 C          -6.6644    4.8165   21.7026 C.ar    1  UNL1        0.1026
     31 C          -5.9509    4.0725   22.7923 C.ar    1  UNL1        0.0185
     32 C          -6.3122    4.3162   24.2276 C.ar    1  UNL1        0.0029
     33 C          -7.3869    5.3038   24.5732 C.ar    1  UNL1        0.0207
     34 C          -8.1004    6.0478   23.4834 C.ar    1  UNL1        0.0986
     35 N          -7.7391    5.8041   22.0482 N.ar    1  UNL1       -0.2445
@<TRIPOS>BOND
     1    12    11    1
     2    12    10    1
     3    10     7    1
     4     7     8    2
     5     7     9    2
     6     7     1    1
     7     1     2    1
     8     2     3    1
     9     3     4    1
    10     4    21    1
    11    21    22    1
    12    22    23   ar
    13    23    24   ar
    14    24    25   ar
    15    25    28    1
    16    28    29    1
    17    29    30    1
    18    30    31   ar
    19    31    32   ar
    20    32    33   ar
    21    33    34   ar
    22    34    35   ar
    23    25    26   ar
    24    26    27   ar
    25     4     5    1
    26     5     6    1
    27    12    13    1
    28    13    14   am
    29    14    15    2
    30    14    16   am
    31    16    17   am
    32    17    18    2
    33    17    12    1
    34     6     1    1
    35    27    22   ar
    36    35    30   ar
    37    13    19    1
    38    16    20    1
@<TRIPOS>MOLECULE
*****
 35 38 0 0 0
SMALL
GASTEIGER

@<TRIPOS>ATOM
      1 N           8.1806   -5.2221   25.5853 N.3     1  UNL1       -0.1591
      2 C           8.2774   -3.7684   25.2286 C.3     1  UNL1        0.0991
      3 C           8.6404   -3.3618   23.8312 C.3     1  UNL1        0.0627
      4 C           8.9066   -4.4088   22.7905 C.3     1  UNL1        0.1688
      5 C           8.8098   -5.8625   23.1473 C.3     1  UNL1        0.0627
      6 C           8.4468   -6.2692   24.5447 C.3     1  UNL1        0.0991
      7 S           7.8175   -5.6289   26.9828 S.O2    1  UNL1        0.0459
      8 O           8.8808   -4.7196   27.5236 O.2     1  UNL1       -0.1572
      9 O           6.7542   -6.5382   26.4420 O.2     1  UNL1       -0.1572
     10 C           7.4545   -6.0356   28.3802 C.3     1  UNL1        0.1958
     11 C           6.2224   -4.4523   28.3103 C.3     1  UNL1        0.0310
     12 C           7.1036   -4.9911   29.3981 C.3     1  UNL1        0.1509
     13 N           6.5685   -3.8341   30.1885 N.am    1  UNL1       -0.2825
     14 C           7.1924   -3.8762   31.5520 C.2     1  UNL1        0.3068
     15 O           6.9399   -2.9056   32.6675 O.2     1  UNL1       -0.2524
     16 N           8.1130   -5.0592   31.6042 N.am    1  UNL1       -0.2383
     17 C           8.0582   -5.7483   30.2730 C.2     1  UNL1        0.2469
     18 O           8.8235   -6.9786   29.8849 O.2     1  UNL1       -0.2729
     19 H           5.9215   -3.1646   29.8686 H       1  UNL1        0.1514
     20 H           8.6577   -5.3350   32.3766 H       1  UNL1        0.1591
     21 O           9.2697   -4.0021   21.3931 O.3     1  UNL1       -0.4791
     22 C           8.2033   -3.5370   20.4463 C.ar    1  UNL1        0.1386
     23 C           6.8016   -4.0533   20.5833 C.ar    1  UNL1        0.0400
     24 C           5.7351   -3.5882   19.6365 C.ar    1  UNL1        0.0400
     25 C           6.0703   -2.6069   18.5527 C.ar    1  UNL1        0.1393
     26 C           7.4720   -2.0906   18.4157 C.ar    1  UNL1        0.0400
     27 C           8.5385   -2.5557   19.3625 C.ar    1  UNL1        0.0400
     28 O           5.0039   -2.1419   17.6060 O.3     1  UNL1       -0.4690
     29 C           4.4904   -0.7348   17.6872 C.3     1  UNL1        0.2508
     30 C           3.2315   -0.4386   18.4471 C.ar    1  UNL1        0.1026
     31 C           2.8660   -1.2650   19.6443 C.ar    1  UNL1        0.0185
     32 C           1.6071   -0.9689   20.4042 C.ar    1  UNL1        0.0029
     33 C           0.7137    0.1538   19.9668 C.ar    1  UNL1        0.0207
     34 C           1.0791    0.9803   18.7696 C.ar    1  UNL1        0.0986
     35 N           2.3380    0.6841   18.0097 N.ar    1  UNL1       -0.2445
@<TRIPOS>BOND
     1    12    11    1
     2    12    10    1
     3    10     7    1
     4     7     8    2
     5     7     9    2
     6     7     1    1
     7     1     2    1
     8     2     3    1
     9     3     4    1
    10     4    21    1
    11    21    22    1
    12    22    23   ar
    13    23    24   ar
    14    24    25   ar
    15    25    28    1
    16    28    29    1
    17    29    30    1
    18    30    31   ar
    19    31    32   ar
    20    32    33   ar
    21    33    34   ar
    22    34    35   ar
    23    25    26   ar
    24    26    27   ar
    25     4     5    1
    26     5     6    1
    27    12    13    1
    28    13    14   am
    29    14    15    2
    30    14    16   am
    31    16    17   am
    32    17    18    2
    33    17    12    1
    34     6     1    1
    35    27    22   ar
    36    35    30   ar
    37    13    19    1
    38    16    20    1
@<TRIPOS>MOLECULE
*****
 35 38 0 0 0
SMALL
GASTEIGER

@<TRIPOS>ATOM
      1 N         -14.1906   -1.8415   18.9985 N.3     1  UNL1       -0.1591
      2 C         -13.6927   -0.5616   18.3952 C.3     1  UNL1        0.0991
      3 C         -14.4646    0.7096   18.5903 C.3     1  UNL1        0.0627
      4 C         -15.7344    0.7009   19.3888 C.3     1  UNL1        0.1688
      5 C         -16.2323   -0.5789   19.9920 C.3     1  UNL1        0.0627
      6 C         -15.4604   -1.8501   19.7969 C.3     1  UNL1        0.0991
      7 S         -13.4186   -3.1128   18.8033 S.O2    1  UNL1        0.0459
      8 O         -12.2149   -2.4788   19.4351 O.2     1  UNL1       -0.1572
      9 O         -14.6223   -3.7468   18.1716 O.2     1  UNL1       -0.1572
     10 C         -12.6467   -4.3840   18.6082 C.3     1  UNL1        0.1958
     11 C         -13.6389   -5.0708   20.2124 C.3     1  UNL1        0.0310
     12 C         -13.2932   -5.7061   18.8983 C.3     1  UNL1        0.1509
     13 N         -14.0120   -6.8953   19.4630 N.am    1  UNL1       -0.2825
     14 C         -13.9753   -7.9892   18.4372 C.2     1  UNL1        0.3068
     15 O         -14.5748   -9.3563   18.5843 O.2     1  UNL1       -0.2524
     16 N         -13.2339   -7.4759   17.2386 N.am    1  UNL1       -0.2383
     17 C         -12.8123   -6.0649   17.5235 C.2     1  UNL1        0.2469
     18 O         -12.0446   -5.1698   16.5964 O.2     1  UNL1       -0.2729
     19 H         -14.4337   -6.9486   20.3510 H       1  UNL1        0.1514
     20 H         -13.0553   -7.9772   16.4102 H       1  UNL1        0.1591
     21 O         -16.5064    1.9722   19.5839 O.3     1  UNL1       -0.4791
     22 C         -16.4782    2.6706   20.9111 C.ar    1  UNL1        0.1386
     23 C         -17.2821    2.1340   22.0581 C.ar    1  UNL1        0.0400
     24 C         -17.2538    2.8325   23.3854 C.ar    1  UNL1        0.0400
     25 C         -16.4217    4.0674   23.5655 C.ar    1  UNL1        0.1393
     26 C         -15.6178    4.6040   22.4184 C.ar    1  UNL1        0.0400
     27 C         -15.6460    3.9056   21.0912 C.ar    1  UNL1        0.0400
     28 O         -16.3935    4.7658   24.8926 O.3     1  UNL1       -0.4690
     29 C         -17.6064    5.5027   25.3783 C.3     1  UNL1        0.2508
     30 C         -17.8939    5.5875   26.8481 C.ar    1  UNL1        0.1026
     31 C         -16.7782    5.8458   27.8168 C.ar    1  UNL1        0.0185
     32 C         -17.0655    5.9306   29.2866 C.ar    1  UNL1        0.0029
     33 C         -18.4687    5.7571   29.7876 C.ar    1  UNL1        0.0207
     34 C         -19.5844    5.4987   28.8189 C.ar    1  UNL1        0.0986
     35 N         -19.2970    5.4139   27.3491 N.ar    1  UNL1       -0.2445
@<TRIPOS>BOND
     1    12    11    1
     2    12    10    1
     3    10     7    1
     4     7     8    2
     5     7     9    2
     6     7     1    1
     7     1     2    1
     8     2     3    1
     9     3     4    1
    10     4    21    1
    11    21    22    1
    12    22    23   ar
    13    23    24   ar
    14    24    25   ar
    15    25    28    1
    16    28    29    1
    17    29    30    1
    18    30    31   ar
    19    31    32   ar
    20    32    33   ar
    21    33    34   ar
    22    34    35   ar
    23    25    26   ar
    24    26    27   ar
    25     4     5    1
    26     5     6    1
    27    12    13    1
    28    13    14   am
    29    14    15    2
    30    14    16   am
    31    16    17   am
    32    17    18    2
    33    17    12    1
    34     6     1    1
    35    27    22   ar
    36    35    30   ar
    37    13    19    1
    38    16    20    1
@<TRIPOS>MOLECULE
*****
 35 38 0 0 0
SMALL
GASTEIGER

@<TRIPOS>ATOM
      1 N           6.4603   -3.2019   20.8515 N.3     1  UNL1       -0.1591
      2 C           6.5486   -1.7061   20.7813 C.3     1  UNL1        0.0991
      3 C           5.5896   -0.9378   19.9211 C.3     1  UNL1        0.0627
      4 C           4.5424   -1.6652   19.1311 C.3     1  UNL1        0.1688
      5 C           4.4541   -3.1609   19.2012 C.3     1  UNL1        0.0627
      6 C           5.4131   -3.9293   20.0615 C.3     1  UNL1        0.0991
      7 S           7.4193   -3.9703   21.7117 S.O2    1  UNL1        0.0459
      8 O           6.2659   -4.6082   22.4277 O.2     1  UNL1       -0.1572
      9 O           8.5727   -3.3324   20.9958 O.2     1  UNL1       -0.1572
     10 C           8.3782   -4.7387   22.5719 C.3     1  UNL1        0.1958
     11 C           8.0052   -3.4551   24.0696 C.3     1  UNL1        0.0310
     12 C           8.0759   -4.9528   24.0255 C.3     1  UNL1        0.1509
     13 N           7.7589   -4.8537   25.4882 N.am    1  UNL1       -0.2825
     14 C           7.6968   -6.2455   26.0443 C.2     1  UNL1        0.3068
     15 O           7.4070   -6.6135   27.4693 O.2     1  UNL1       -0.2524
     16 N           7.9756   -7.2047   24.9252 N.am    1  UNL1       -0.2383
     17 C           8.2099   -6.4057   23.6775 C.2     1  UNL1        0.2469
     18 O           8.5231   -6.9620   22.3202 O.2     1  UNL1       -0.2729
     19 H           7.6164   -4.0214   25.9944 H       1  UNL1        0.1514
     20 H           8.0004   -8.1862   24.9970 H       1  UNL1        0.1591
     21 O           3.5833   -0.8968   18.2708 O.3     1  UNL1       -0.4791
     22 C           2.4303   -0.1703   18.8974 C.ar    1  UNL1        0.1386
     23 C           1.6971   -0.7827   20.0539 C.ar    1  UNL1        0.0400
     24 C           0.5441   -0.0561   20.6804 C.ar    1  UNL1        0.0400
     25 C           0.1242    1.2829   20.1506 C.ar    1  UNL1        0.1393
     26 C           0.8574    1.8954   18.9941 C.ar    1  UNL1        0.0400
     27 C           2.0105    1.1688   18.3676 C.ar    1  UNL1        0.0400
     28 O          -1.0288    2.0095   20.7771 O.3     1  UNL1       -0.4690
     29 C          -1.5934    3.2318   20.1161 C.3     1  UNL1        0.2508
     30 C          -3.0754    3.4643   20.1100 C.ar    1  UNL1        0.1026
     31 C          -3.8545    3.3700   21.3883 C.ar    1  UNL1        0.0185
     32 C          -5.3364    3.6025   21.3823 C.ar    1  UNL1        0.0029
     33 C          -6.0390    3.9293   20.0980 C.ar    1  UNL1        0.0207
     34 C          -5.2598    4.0236   18.8197 C.ar    1  UNL1        0.0986
     35 N          -3.7780    3.7911   18.8258 N.ar    1  UNL1       -0.2445
@<TRIPOS>BOND
     1    12    11    1
     2    12    10    1
     3    10     7    1
     4     7     8    2
     5     7     9    2
     6     7     1    1
     7     1     2    1
     8     2     3    1
     9     3     4    1
    10     4    21    1
    11    21    22    1
    12    22    23   ar
    13    23    24   ar
    14    24    25   ar
    15    25    28    1
    16    28    29    1
    17    29    30    1
    18    30    31   ar
    19    31    32   ar
    20    32    33   ar
    21    33    34   ar
    22    34    35   ar
    23    25    26   ar
    24    26    27   ar
    25     4     5    1
    26     5     6    1
    27    12    13    1
    28    13    14   am
    29    14    15    2
    30    14    16   am
    31    16    17   am
    32    17    18    2
    33    17    12    1
    34     6     1    1
    35    27    22   ar
    36    35    30   ar
    37    13    19    1
    38    16    20    1
@<TRIPOS>MOLECULE
*****
 35 38 0 0 0
SMALL
GASTEIGER

@<TRIPOS>ATOM
      1 N         -14.3444   -0.7629   18.5432 N.3     1  UNL1       -0.1591
      2 C         -15.4590   -1.1479   19.4702 C.3     1  UNL1        0.0991
      3 C         -16.3552   -0.0912   20.0449 C.3     1  UNL1        0.0627
      4 C         -16.1367    1.3504   19.6926 C.3     1  UNL1        0.1688
      5 C         -15.0221    1.7353   18.7656 C.3     1  UNL1        0.0627
      6 C         -14.1259    0.6786   18.1909 C.3     1  UNL1        0.0991
      7 S         -13.4482   -1.8196   17.9684 S.O2    1  UNL1        0.0459
      8 O         -13.3771   -1.0576   16.6784 O.2     1  UNL1       -0.1572
      9 O         -13.5192   -2.5817   19.2585 O.2     1  UNL1       -0.1572
     10 C         -12.5520   -2.8762   17.3937 C.3     1  UNL1        0.1958
     11 C         -11.0698   -1.9223   18.3543 C.3     1  UNL1        0.0310
     12 C         -11.3822   -3.3798   18.1860 C.3     1  UNL1        0.1509
     13 N         -10.1470   -3.5786   19.0136 N.am    1  UNL1       -0.2825
     14 C          -9.9406   -5.0538   19.1911 C.2     1  UNL1        0.3068
     15 O          -8.8228   -5.7022   19.9528 O.2     1  UNL1       -0.2524
     16 N         -11.0481   -5.7665   18.4733 N.am    1  UNL1       -0.2383
     17 C         -11.9391   -4.7320   17.8521 C.2     1  UNL1        0.2469
     18 O         -13.1706   -5.0022   17.0396 O.2     1  UNL1       -0.2729
     19 H          -9.5727   -2.8661   19.3765 H       1  UNL1        0.1514
     20 H         -11.1690   -6.7421   18.4193 H       1  UNL1        0.1591
     21 O         -17.0329    2.4070   20.2674 O.3     1  UNL1       -0.4791
     22 C         -16.6853    3.0555   21.5745 C.ar    1  UNL1        0.1386
     23 C         -15.6667    4.1557   21.6185 C.ar    1  UNL1        0.0400
     24 C         -15.3192    4.8042   22.9258 C.ar    1  UNL1        0.0400
     25 C         -15.9902    4.3524   24.1889 C.ar    1  UNL1        0.1393
     26 C         -17.0088    3.2522   24.1449 C.ar    1  UNL1        0.0400
     27 C         -17.3564    2.6038   22.8378 C.ar    1  UNL1        0.0400
     28 O         -15.6427    5.0009   25.4960 O.3     1  UNL1       -0.4690
     29 C         -16.4775    6.1330   26.0171 C.3     1  UNL1        0.2508
     30 C         -17.4217    5.9044   27.1601 C.ar    1  UNL1        0.1026
     31 C         -16.9290    6.0121   28.5728 C.ar    1  UNL1        0.0185
     32 C         -17.8731    5.7835   29.7158 C.ar    1  UNL1        0.0029
     33 C         -19.3098    5.4474   29.4460 C.ar    1  UNL1        0.0207
     34 C         -19.8024    5.3398   28.0333 C.ar    1  UNL1        0.0986
     35 N         -18.8584    5.5683   26.8904 N.ar    1  UNL1       -0.2445
@<TRIPOS>BOND
     1    12    11    1
     2    12    10    1
     3    10     7    1
     4     7     8    2
     5     7     9    2
     6     7     1    1
     7     1     2    1
     8     2     3    1
     9     3     4    1
    10     4    21    1
    11    21    22    1
    12    22    23   ar
    13    23    24   ar
    14    24    25   ar
    15    25    28    1
    16    28    29    1
    17    29    30    1
    18    30    31   ar
    19    31    32   ar
    20    32    33   ar
    21    33    34   ar
    22    34    35   ar
    23    25    26   ar
    24    26    27   ar
    25     4     5    1
    26     5     6    1
    27    12    13    1
    28    13    14   am
    29    14    15    2
    30    14    16   am
    31    16    17   am
    32    17    18    2
    33    17    12    1
    34     6     1    1
    35    27    22   ar
    36    35    30   ar
    37    13    19    1
    38    16    20    1
@<TRIPOS>MOLECULE
*****
 35 38 0 0 0
SMALL
GASTEIGER

@<TRIPOS>ATOM
      1 N           6.5898   -3.9674   21.3256 N.3     1  UNL1       -0.1591
      2 C           7.9340   -4.6311   21.2735 C.3     1  UNL1        0.0991
      3 C           8.5812   -5.1146   22.5373 C.3     1  UNL1        0.0627
      4 C           7.8843   -4.9343   23.8533 C.3     1  UNL1        0.1688
      5 C           6.5401   -4.2706   23.9055 C.3     1  UNL1        0.0627
      6 C           5.8929   -3.7872   22.6416 C.3     1  UNL1        0.0991
      7 S           5.9425   -3.4839   20.0617 S.O2    1  UNL1        0.0459
      8 O           5.5095   -4.8852   19.7475 O.2     1  UNL1       -0.1572
      9 O           6.3756   -2.0826   20.3760 O.2     1  UNL1       -0.1572
     10 C           5.2952   -3.0005   18.7979 C.3     1  UNL1        0.1958
     11 C           3.6255   -2.7174   19.8757 C.3     1  UNL1        0.0310
     12 C           4.3103   -1.8701   18.8446 C.3     1  UNL1        0.1509
     13 N           3.1823   -0.9169   19.1068 N.am    1  UNL1       -0.2825
     14 C           3.3758    0.2832   18.2280 C.2     1  UNL1        0.3068
     15 O           2.4791    1.4841   18.1655 O.2     1  UNL1       -0.2524
     16 N           4.6235    0.0717   17.4227 N.am    1  UNL1       -0.2383
     17 C           5.2011   -1.2592   17.8037 C.2     1  UNL1        0.2469
     18 O           6.4500   -1.8715   17.2425 O.2     1  UNL1       -0.2729
     19 H           2.4444   -1.0547   19.7438 H       1  UNL1        0.1514
     20 H           4.9976    0.6966   16.7603 H       1  UNL1        0.1591
     21 O           8.5316   -5.4178   25.1172 O.3     1  UNL1       -0.4791
     22 C           7.9776   -5.0056   26.4487 C.ar    1  UNL1        0.1386
     23 C           6.9293   -5.8447   27.1173 C.ar    1  UNL1        0.0400
     24 C           6.3753   -5.4324   28.4489 C.ar    1  UNL1        0.0400
     25 C           6.8696   -4.1810   29.1119 C.ar    1  UNL1        0.1393
     26 C           7.9179   -3.3419   28.4434 C.ar    1  UNL1        0.0400
     27 C           8.4719   -3.7541   27.1119 C.ar    1  UNL1        0.0400
     28 O           6.3156   -3.7688   30.4435 O.3     1  UNL1       -0.4690
     29 C           7.1124   -2.8694   31.3414 C.3     1  UNL1        0.2508
     30 C           6.4402   -2.1581   32.4783 C.ar    1  UNL1        0.1026
     31 C           5.0337   -2.5143   32.8591 C.ar    1  UNL1        0.0185
     32 C           4.3616   -1.8031   33.9960 C.ar    1  UNL1        0.0029
     33 C           5.0959   -0.7359   34.7520 C.ar    1  UNL1        0.0207
     34 C           6.5024   -0.3797   34.3712 C.ar    1  UNL1        0.0986
     35 N           7.1746   -1.0909   33.2344 N.ar    1  UNL1       -0.2445
@<TRIPOS>BOND
     1    12    11    1
     2    12    10    1
     3    10     7    1
     4     7     8    2
     5     7     9    2
     6     7     1    1
     7     1     2    1
     8     2     3    1
     9     3     4    1
    10     4    21    1
    11    21    22    1
    12    22    23   ar
    13    23    24   ar
    14    24    25   ar
    15    25    28    1
    16    28    29    1
    17    29    30    1
    18    30    31   ar
    19    31    32   ar
    20    32    33   ar
    21    33    34   ar
    22    34    35   ar
    23    25    26   ar
    24    26    27   ar
    25     4     5    1
    26     5     6    1
    27    12    13    1
    28    13    14   am
    29    14    15    2
    30    14    16   am
    31    16    17   am
    32    17    18    2
    33    17    12    1
    34     6     1    1
    35    27    22   ar
    36    35    30   ar
    37    13    19    1
    38    16    20    1
@<TRIPOS>MOLECULE
*****
 35 38 0 0 0
SMALL
GASTEIGER

@<TRIPOS>ATOM
      1 N           7.1992   -3.9105   25.4318 N.3     1  UNL1       -0.1591
      2 C           6.1218   -3.3007   24.5848 C.3     1  UNL1        0.0991
      3 C           6.1020   -3.5463   23.1052 C.3     1  UNL1        0.0627
      4 C           7.1595   -4.4016   22.4726 C.3     1  UNL1        0.1688
      5 C           8.2368   -5.0113   23.3196 C.3     1  UNL1        0.0627
      6 C           8.2567   -4.7658   24.7992 C.3     1  UNL1        0.0991
      7 S           7.2191   -3.6649   26.9115 S.O2    1  UNL1        0.0459
      8 O           6.0938   -2.6842   26.7638 O.2     1  UNL1       -0.1572
      9 O           8.3444   -4.6456   27.0592 O.2     1  UNL1       -0.1572
     10 C           7.2389   -3.4194   28.3911 C.3     1  UNL1        0.1958
     11 C           6.1097   -5.0722   28.2400 C.3     1  UNL1        0.0310
     12 C           6.9827   -4.5503   29.3426 C.3     1  UNL1        0.1509
     13 N           6.5440   -5.7904   30.0635 N.am    1  UNL1       -0.2825
     14 C           7.1994   -5.7984   31.4128 C.2     1  UNL1        0.3068
     15 O           7.0391   -6.8559   32.4645 O.2     1  UNL1       -0.2524
     16 N           8.0431   -4.5634   31.5257 N.am    1  UNL1       -0.2383
     17 C           7.9092   -3.7920   30.2462 C.2     1  UNL1        0.2469
     18 O           8.5835   -2.4908   29.9266 O.2     1  UNL1       -0.2729
     19 H           5.9331   -6.4782   29.7128 H       1  UNL1        0.1514
     20 H           8.5890   -4.3045   32.3030 H       1  UNL1        0.1591
     21 O           7.1396   -4.6471   20.9929 O.3     1  UNL1       -0.4791
     22 C           6.2745   -3.8035   20.1042 C.ar    1  UNL1        0.1386
     23 C           6.8141   -2.5314   19.5207 C.ar    1  UNL1        0.0400
     24 C           5.9489   -1.6877   18.6319 C.ar    1  UNL1        0.0400
     25 C           4.5442   -2.1162   18.3268 C.ar    1  UNL1        0.1393
     26 C           4.0046   -3.3882   18.9104 C.ar    1  UNL1        0.0400
     27 C           4.8697   -4.2319   19.7991 C.ar    1  UNL1        0.0400
     28 O           3.6791   -1.2725   17.4382 O.3     1  UNL1       -0.4690
     29 C           3.2863    0.1101   17.8672 C.3     1  UNL1        0.2508
     30 C           2.6237    0.3233   19.1960 C.ar    1  UNL1        0.1026
     31 C           1.1873   -0.0635   19.3884 C.ar    1  UNL1        0.0185
     32 C           0.5247    0.1497   20.7171 C.ar    1  UNL1        0.0029
     33 C           1.2986    0.7495   21.8534 C.ar    1  UNL1        0.0207
     34 C           2.7350    1.1362   21.6610 C.ar    1  UNL1        0.0986
     35 N           3.3976    0.9231   20.3323 N.ar    1  UNL1       -0.2445
@<TRIPOS>BOND
     1    12    11    1
     2    12    10    1
     3    10     7    1
     4     7     8    2
     5     7     9    2
     6     7     1    1
     7     1     2    1
     8     2     3    1
     9     3     4    1
    10     4    21    1
    11    21    22    1
    12    22    23   ar
    13    23    24   ar
    14    24    25   ar
    15    25    28    1
    16    28    29    1
    17    29    30    1
    18    30    31   ar
    19    31    32   ar
    20    32    33   ar
    21    33    34   ar
    22    34    35   ar
    23    25    26   ar
    24    26    27   ar
    25     4     5    1
    26     5     6    1
    27    12    13    1
    28    13    14   am
    29    14    15    2
    30    14    16   am
    31    16    17   am
    32    17    18    2
    33    17    12    1
    34     6     1    1
    35    27    22   ar
    36    35    30   ar
    37    13    19    1
    38    16    20    1
