@<TRIPOS>MOLECULE
*****
 33 36 0 0 0
SMALL
GASTEIGER

@<TRIPOS>ATOM
      1 N          -6.0227  -21.4934   19.7248 N.pl3   1  UNL1       -0.3287
      2 C          -5.5602  -20.3921   20.6321 C.ar    1  UNL1        0.1959
      3 N          -4.1361  -20.0797   20.9847 N.ar    1  UNL1       -0.2123
      4 C          -4.1363  -18.9043   21.9166 C.ar    1  UNL1        0.1184
      5 C          -3.0237  -18.1576   22.5907 C.ar    1  UNL1        0.0271
      6 C          -3.3353  -16.9969   23.4881 C.ar    1  UNL1        0.0594
      7 C          -4.7596  -16.5828   23.7115 C.ar    1  UNL1        0.2262
      8 N          -5.8722  -17.3294   23.0374 N.ar    1  UNL1       -0.1926
      9 C          -5.5606  -18.4902   22.1400 C.ar    1  UNL1        0.1668
     10 N          -6.4406  -19.4097   21.3461 N.ar    1  UNL1       -0.2824
     11 H          -5.3649  -22.0902   19.3001 H       1  UNL1        0.1451
     12 H          -6.9840  -21.6194   19.5540 H       1  UNL1        0.1451
     13 O          -5.0712  -15.4219   24.6089 O.3     1  UNL1       -0.4613
     14 C          -6.3550  -15.3968   25.3843 C.3     1  UNL1        0.1995
     15 C          -6.4906  -15.5497   26.8703 C.3     1  UNL1        0.0783
     16 C          -7.9480  -15.4618   27.2142 C.3     1  UNL1        0.1461
     17 O          -8.7131  -15.2545   25.9407 O.3     1  UNL1       -0.3498
     18 C          -7.7285  -15.2143   24.8098 C.3     1  UNL1        0.1855
     19 C          -7.9381  -19.3562   21.2782 C.3     1  UNL1        0.1438
     20 C          -8.6616  -18.0982   21.6575 C.3     1  UNL1        0.1561
     21 O          -8.0477  -16.7618   21.3622 O.3     1  UNL1       -0.3780
     22 H          -8.6409  -16.0585   21.6695 H       1  UNL1        0.2109
     23 C          -9.9991  -18.1765   22.3321 C.ar    1  UNL1        0.0167
     24 C         -10.0878  -18.5608   23.7793 C.ar    1  UNL1       -0.0011
     25 C         -11.4253  -18.6391   24.4538 C.ar    1  UNL1        0.0037
     26 C         -12.6741  -18.3331   23.6812 C.ar    1  UNL1        0.0722
     27 C         -12.5853  -17.9488   22.2340 C.ar    1  UNL1        0.0150
     28 C         -11.2478  -17.8705   21.5594 C.ar    1  UNL1        0.0559
     29 CL        -11.1591  -17.4862   20.1122 Cl      1  UNL1       -0.0825
     30 C         -14.0116  -18.4113   24.3557 C.3     1  UNL1        0.4186
     31 F         -15.3491  -18.4896   25.0303 F       1  UNL1       -0.1659
     32 F         -13.3325  -18.5771   25.6829 F       1  UNL1       -0.1659
     33 F         -14.6905  -18.2456   23.0285 F       1  UNL1       -0.1659
@<TRIPOS>BOND
     1     1     2    1
     2     2     3   ar
     3     3     4   ar
     4     4     5   ar
     5     5     6   ar
     6     6     7   ar
     7     7    13    1
     8    13    14    1
     9    14    15    1
    10    15    16    1
    11    16    17    1
    12    17    18    1
    13     7     8   ar
    14     8     9   ar
    15     9    10   ar
    16    10    19    1
    17    19    20    1
    18    20    21    1
    19    20    23    1
    20    23    24   ar
    21    24    25   ar
    22    25    26   ar
    23    26    30    1
    24    30    31    1
    25    30    32    1
    26    30    33    1
    27    26    27   ar
    28    27    28   ar
    29    28    29    1
    30    10     2   ar
    31    28    23   ar
    32     9     4   ar
    33    18    14    1
    34     1    11    1
    35     1    12    1
    36    21    22    1
@<TRIPOS>MOLECULE
*****
 33 36 0 0 0
SMALL
GASTEIGER

@<TRIPOS>ATOM
      1 N          -9.1145  -20.6295   18.4010 N.pl3   1  UNL1       -0.3287
      2 C          -9.3676  -19.9130   19.6943 C.ar    1  UNL1        0.1959
      3 N         -10.6684  -19.8728   20.4401 N.ar    1  UNL1       -0.2123
      4 C         -10.4690  -19.0458   21.6756 C.ar    1  UNL1        0.1184
      5 C         -11.4002  -18.6608   22.7867 C.ar    1  UNL1        0.0271
      6 C         -10.9073  -17.8048   23.9156 C.ar    1  UNL1        0.0594
      7 C          -9.4833  -17.3340   23.9333 C.ar    1  UNL1        0.2262
      8 N          -8.5521  -17.7191   22.8223 N.ar    1  UNL1       -0.1926
      9 C          -9.0450  -18.5750   21.6934 C.ar    1  UNL1        0.1668
     10 N          -8.3643  -19.1109   20.4689 N.ar    1  UNL1       -0.2824
     11 H          -9.8409  -21.1323   17.9665 H       1  UNL1        0.1451
     12 H          -8.2220  -20.5970   17.9867 H       1  UNL1        0.1451
     13 O          -8.9904  -16.4780   25.0623 O.3     1  UNL1       -0.4613
     14 C          -7.6072  -15.8996   25.0164 C.3     1  UNL1        0.1995
     15 C          -6.6327  -15.8532   26.1558 C.3     1  UNL1        0.0783
     16 C          -5.3788  -15.1910   25.6667 C.3     1  UNL1        0.1461
     17 O          -5.5784  -14.8281   24.2249 O.3     1  UNL1       -0.3498
     18 C          -6.9556  -15.2660   23.8231 C.3     1  UNL1        0.1855
     19 C          -6.9317  -18.8845   20.0862 C.3     1  UNL1        0.1438
     20 C          -5.8305  -19.4360   20.9423 C.3     1  UNL1        0.1561
     21 O          -6.1357  -20.4766   21.9787 O.3     1  UNL1       -0.3780
     22 H          -5.3188  -20.7228   22.4401 H       1  UNL1        0.2109
     23 C          -4.4239  -18.9470   20.7622 C.ar    1  UNL1        0.0167
     24 C          -3.7241  -19.1424   19.4499 C.ar    1  UNL1       -0.0011
     25 C          -2.3176  -18.6533   19.2699 C.ar    1  UNL1        0.0037
     26 C          -1.6108  -17.9689   20.4021 C.ar    1  UNL1        0.0722
     27 C          -2.3105  -17.7735   21.7144 C.ar    1  UNL1        0.0150
     28 C          -3.7171  -18.2625   21.8945 C.ar    1  UNL1        0.0559
     29 CL         -4.4168  -18.0671   23.2068 Cl      1  UNL1       -0.0825
     30 C          -0.2042  -17.4798   20.2221 C.3     1  UNL1        0.4186
     31 F           1.2024  -16.9907   20.0421 F       1  UNL1       -0.1659
     32 F          -0.6123  -16.1240   20.7171 F       1  UNL1       -0.1659
     33 F           0.2039  -18.8357   19.7270 F       1  UNL1       -0.1659
@<TRIPOS>BOND
     1     1     2    1
     2     2     3   ar
     3     3     4   ar
     4     4     5   ar
     5     5     6   ar
     6     6     7   ar
     7     7    13    1
     8    13    14    1
     9    14    15    1
    10    15    16    1
    11    16    17    1
    12    17    18    1
    13     7     8   ar
    14     8     9   ar
    15     9    10   ar
    16    10    19    1
    17    19    20    1
    18    20    21    1
    19    20    23    1
    20    23    24   ar
    21    24    25   ar
    22    25    26   ar
    23    26    30    1
    24    30    31    1
    25    30    32    1
    26    30    33    1
    27    26    27   ar
    28    27    28   ar
    29    28    29    1
    30    10     2   ar
    31    28    23   ar
    32     9     4   ar
    33    18    14    1
    34     1    11    1
    35     1    12    1
    36    21    22    1
@<TRIPOS>MOLECULE
*****
 33 36 0 0 0
SMALL
GASTEIGER

@<TRIPOS>ATOM
      1 N          -4.4386  -21.5694   19.7689 N.pl3   1  UNL1       -0.3287
      2 C          -4.2634  -20.3037   20.5546 C.ar    1  UNL1        0.1959
      3 N          -2.9935  -19.5165   20.6865 N.ar    1  UNL1       -0.2123
      4 C          -3.2726  -18.3292   21.5597 C.ar    1  UNL1        0.1184
      5 C          -2.3996  -17.2063   22.0361 C.ar    1  UNL1        0.0271
      6 C          -2.9692  -16.1369   22.9204 C.ar    1  UNL1        0.0594
      7 C          -4.4117  -16.1904   23.3281 C.ar    1  UNL1        0.2262
      8 N          -5.2847  -17.3132   22.8516 N.ar    1  UNL1       -0.1926
      9 C          -4.7151  -18.3826   21.9674 C.ar    1  UNL1        0.1668
     10 N          -5.3275  -19.6029   21.3462 N.ar    1  UNL1       -0.2824
     11 H          -3.6762  -21.9544   19.2793 H       1  UNL1        0.1451
     12 H          -5.3160  -22.0152   19.7429 H       1  UNL1        0.1451
     13 O          -4.9813  -15.1209   24.2124 O.3     1  UNL1       -0.4613
     14 C          -6.3443  -15.2926   24.8144 C.3     1  UNL1        0.1995
     15 C          -6.6403  -15.6147   26.2492 C.3     1  UNL1        0.0783
     16 C          -8.1296  -15.6935   26.4089 C.3     1  UNL1        0.1461
     17 O          -8.7543  -15.4202   25.0728 O.3     1  UNL1       -0.3498
     18 C          -7.6509  -15.1724   24.0874 C.3     1  UNL1        0.1855
     19 C          -6.7535  -20.0449   21.4913 C.3     1  UNL1        0.1438
     20 C          -7.8472  -19.2895   20.7963 C.3     1  UNL1        0.1561
     21 O          -7.6560  -18.8231   19.3834 O.3     1  UNL1       -0.3780
     22 H          -8.4521  -18.3550   19.0869 H       1  UNL1        0.2109
     23 C          -9.1323  -19.0004   21.5139 C.ar    1  UNL1        0.0167
     24 C          -9.1096  -18.5865   22.9555 C.ar    1  UNL1       -0.0011
     25 C         -10.3946  -18.2974   23.6732 C.ar    1  UNL1        0.0037
     26 C         -11.7024  -18.4223   22.9493 C.ar    1  UNL1        0.0722
     27 C         -11.7252  -18.8362   21.5077 C.ar    1  UNL1        0.0150
     28 C         -10.4401  -19.1252   20.7901 C.ar    1  UNL1        0.0559
     29 CL        -10.4629  -19.5392   19.3485 Cl      1  UNL1       -0.0825
     30 C         -12.9876  -18.1332   23.6669 C.3     1  UNL1        0.4186
     31 F         -14.2727  -17.8441   24.3844 F       1  UNL1       -0.1659
     32 F         -13.6139  -17.7054   22.3728 F       1  UNL1       -0.1659
     33 F         -12.3612  -18.5610   24.9609 F       1  UNL1       -0.1659
@<TRIPOS>BOND
     1     1     2    1
     2     2     3   ar
     3     3     4   ar
     4     4     5   ar
     5     5     6   ar
     6     6     7   ar
     7     7    13    1
     8    13    14    1
     9    14    15    1
    10    15    16    1
    11    16    17    1
    12    17    18    1
    13     7     8   ar
    14     8     9   ar
    15     9    10   ar
    16    10    19    1
    17    19    20    1
    18    20    21    1
    19    20    23    1
    20    23    24   ar
    21    24    25   ar
    22    25    26   ar
    23    26    30    1
    24    30    31    1
    25    30    32    1
    26    30    33    1
    27    26    27   ar
    28    27    28   ar
    29    28    29    1
    30    10     2   ar
    31    28    23   ar
    32     9     4   ar
    33    18    14    1
    34     1    11    1
    35     1    12    1
    36    21    22    1
@<TRIPOS>MOLECULE
*****
 33 36 0 0 0
SMALL
GASTEIGER

@<TRIPOS>ATOM
      1 N          -8.4429  -14.4241   24.9272 N.pl3   1  UNL1       -0.3287
      2 C          -7.3201  -15.3317   24.5201 C.ar    1  UNL1        0.1959
      3 N          -6.0816  -15.6146   25.3178 N.ar    1  UNL1       -0.2123
      4 C          -5.2347  -16.5734   24.5346 C.ar    1  UNL1        0.1184
      5 C          -3.9049  -17.2045   24.8229 C.ar    1  UNL1        0.0271
      6 C          -3.2901  -18.1453   23.8296 C.ar    1  UNL1        0.0594
      7 C          -4.0051  -18.4550   22.5479 C.ar    1  UNL1        0.2262
      8 N          -5.3350  -17.8240   22.2595 N.ar    1  UNL1       -0.1926
      9 C          -5.9498  -16.8832   23.2529 C.ar    1  UNL1        0.1668
     10 N          -7.2386  -16.1157   23.2440 N.ar    1  UNL1       -0.2824
     11 H          -8.4049  -13.9502   25.7893 H       1  UNL1        0.1451
     12 H          -9.2177  -14.3023   24.3323 H       1  UNL1        0.1451
     13 O          -3.3902  -19.3959   21.5545 O.3     1  UNL1       -0.4613
     14 C          -2.4554  -18.8724   20.5048 C.3     1  UNL1        0.1995
     15 C          -1.1054  -18.2662   20.7496 C.3     1  UNL1        0.0783
     16 C          -0.5220  -17.8823   19.4221 C.3     1  UNL1        0.1461
     17 O          -1.5115  -18.2512   18.3567 O.3     1  UNL1       -0.3498
     18 C          -2.7064  -18.8631   19.0259 C.3     1  UNL1        0.1855
     19 C          -8.2655  -16.1298   22.1507 C.3     1  UNL1        0.1438
     20 C          -9.0065  -17.3949   21.8341 C.3     1  UNL1        0.1561
     21 O          -8.4137  -18.3939   20.8850 O.3     1  UNL1       -0.3780
     22 H          -9.0163  -19.1482   20.7915 H       1  UNL1        0.2109
     23 C         -10.3404  -17.6612   22.4664 C.ar    1  UNL1        0.0167
     24 C         -10.4133  -18.2617   23.8390 C.ar    1  UNL1       -0.0011
     25 C         -11.7471  -18.5280   24.4714 C.ar    1  UNL1        0.0037
     26 C         -13.0082  -18.1938   23.7311 C.ar    1  UNL1        0.0722
     27 C         -12.9354  -17.5933   22.3585 C.ar    1  UNL1        0.0150
     28 C         -11.6015  -17.3270   21.7262 C.ar    1  UNL1        0.0559
     29 CL        -11.5287  -16.7265   20.3535 Cl      1  UNL1       -0.0825
     30 C         -14.3422  -18.4601   24.3634 C.3     1  UNL1        0.4186
     31 F         -15.6761  -18.7263   24.9956 F       1  UNL1       -0.1659
     32 F         -14.9811  -18.4808   23.0064 F       1  UNL1       -0.1659
     33 F         -13.7031  -18.4393   25.7203 F       1  UNL1       -0.1659
@<TRIPOS>BOND
     1     1     2    1
     2     2     3   ar
     3     3     4   ar
     4     4     5   ar
     5     5     6   ar
     6     6     7   ar
     7     7    13    1
     8    13    14    1
     9    14    15    1
    10    15    16    1
    11    16    17    1
    12    17    18    1
    13     7     8   ar
    14     8     9   ar
    15     9    10   ar
    16    10    19    1
    17    19    20    1
    18    20    21    1
    19    20    23    1
    20    23    24   ar
    21    24    25   ar
    22    25    26   ar
    23    26    30    1
    24    30    31    1
    25    30    32    1
    26    30    33    1
    27    26    27   ar
    28    27    28   ar
    29    28    29    1
    30    10     2   ar
    31    28    23   ar
    32     9     4   ar
    33    18    14    1
    34     1    11    1
    35     1    12    1
    36    21    22    1
@<TRIPOS>MOLECULE
*****
 33 36 0 0 0
SMALL
GASTEIGER

@<TRIPOS>ATOM
      1 N          -8.4351  -14.8464   27.2748 N.pl3   1  UNL1       -0.3287
      2 C          -7.4860  -15.4454   26.2796 C.ar    1  UNL1        0.1959
      3 N          -5.9946  -15.5231   26.4198 N.ar    1  UNL1       -0.2123
      4 C          -5.4485  -16.1977   25.1964 C.ar    1  UNL1        0.1184
      5 C          -4.0496  -16.5469   24.7827 C.ar    1  UNL1        0.0271
      6 C          -3.8046  -17.2353   23.4727 C.ar    1  UNL1        0.0594
      7 C          -4.9586  -17.5745   22.5764 C.ar    1  UNL1        0.2262
      8 N          -6.3575  -17.2253   22.9901 N.ar    1  UNL1       -0.1926
      9 C          -6.6024  -16.5369   24.3000 C.ar    1  UNL1        0.1668
     10 N          -7.8616  -16.0720   24.9695 N.ar    1  UNL1       -0.2824
     11 H          -8.0906  -14.4570   28.1108 H       1  UNL1        0.1451
     12 H          -9.4024  -14.8426   27.0919 H       1  UNL1        0.1451
     13 O          -4.7136  -18.2629   21.2664 O.3     1  UNL1       -0.4613
     14 C          -3.3095  -18.4982   20.7938 C.3     1  UNL1        0.1995
     15 C          -2.5556  -17.6499   19.8130 C.3     1  UNL1        0.0783
     16 C          -1.1931  -18.2505   19.6321 C.3     1  UNL1        0.1461
     17 O          -1.1048  -19.4699   20.5012 O.3     1  UNL1       -0.3498
     18 C          -2.4129  -19.6230   21.2191 C.3     1  UNL1        0.1855
     19 C          -9.2524  -16.2095   24.4246 C.3     1  UNL1        0.1438
     20 C          -9.8335  -17.5716   24.1870 C.3     1  UNL1        0.1561
     21 O         -10.5487  -18.2858   25.2954 O.3     1  UNL1       -0.3780
     22 H         -10.8603  -19.1474   24.9769 H       1  UNL1        0.2109
     23 C          -9.6997  -18.2199   22.8409 C.ar    1  UNL1        0.0167
     24 C          -8.5507  -19.1436   22.5642 C.ar    1  UNL1       -0.0011
     25 C          -8.4168  -19.7918   21.2181 C.ar    1  UNL1        0.0037
     26 C          -9.4320  -19.5164   20.1488 C.ar    1  UNL1        0.0722
     27 C         -10.5810  -18.5927   20.4254 C.ar    1  UNL1        0.0150
     28 C         -10.7148  -17.9444   21.7715 C.ar    1  UNL1        0.0559
     29 CL        -11.8638  -17.0207   22.0482 Cl      1  UNL1       -0.0825
     30 C          -9.2982  -20.1646   18.8026 C.3     1  UNL1        0.4186
     31 F          -9.1643  -20.8128   17.4566 F       1  UNL1       -0.1659
     32 F          -7.8968  -20.5786   19.1414 F       1  UNL1       -0.1659
     33 F         -10.6995  -19.7505   18.4640 F       1  UNL1       -0.1659
@<TRIPOS>BOND
     1     1     2    1
     2     2     3   ar
     3     3     4   ar
     4     4     5   ar
     5     5     6   ar
     6     6     7   ar
     7     7    13    1
     8    13    14    1
     9    14    15    1
    10    15    16    1
    11    16    17    1
    12    17    18    1
    13     7     8   ar
    14     8     9   ar
    15     9    10   ar
    16    10    19    1
    17    19    20    1
    18    20    21    1
    19    20    23    1
    20    23    24   ar
    21    24    25   ar
    22    25    26   ar
    23    26    30    1
    24    30    31    1
    25    30    32    1
    26    30    33    1
    27    26    27   ar
    28    27    28   ar
    29    28    29    1
    30    10     2   ar
    31    28    23   ar
    32     9     4   ar
    33    18    14    1
    34     1    11    1
    35     1    12    1
    36    21    22    1
@<TRIPOS>MOLECULE
*****
 33 36 0 0 0
SMALL
GASTEIGER

@<TRIPOS>ATOM
      1 N           1.9993    4.2420   17.8992 N.pl3   1  UNL1       -0.3287
      2 C           0.5959    4.1025   18.4101 C.ar    1  UNL1        0.1959
      3 N          -0.6124    4.8108   17.8732 N.ar    1  UNL1       -0.2123
      4 C          -1.8007    4.3762   18.6789 C.ar    1  UNL1        0.1184
      5 C          -3.2530    4.7439   18.6039 C.ar    1  UNL1        0.0271
      6 C          -4.2314    4.1346   19.5638 C.ar    1  UNL1        0.0594
      7 C          -3.7575    3.1576   20.5987 C.ar    1  UNL1        0.2262
      8 N          -2.3052    2.7900   20.6737 N.ar    1  UNL1       -0.1926
      9 C          -1.3268    3.3993   19.7138 C.ar    1  UNL1        0.1668
     10 N           0.1543    3.2301   19.5477 N.ar    1  UNL1       -0.2824
     11 H           2.1905    4.8431   17.1433 H       1  UNL1        0.1451
     12 H           2.7292    3.7325   18.3198 H       1  UNL1        0.1451
     13 O          -4.7360    2.5483   21.5586 O.3     1  UNL1       -0.4613
     14 C          -5.2301    3.3426   22.7311 C.3     1  UNL1        0.1995
     15 C          -4.7421    3.2247   24.1445 C.3     1  UNL1        0.0783
     16 C          -5.5095    4.2035   24.9830 C.3     1  UNL1        0.1461
     17 O          -6.4717    4.9265   24.0877 O.3     1  UNL1       -0.3498
     18 C          -6.2991    4.3944   22.6960 C.3     1  UNL1        0.1855
     19 C           1.0387    2.3441   20.3740 C.3     1  UNL1        0.1438
     20 C           1.0212    0.8593   20.1623 C.3     1  UNL1        0.1561
     21 O          -0.2241    0.0749   20.4526 O.3     1  UNL1       -0.3780
     22 H          -0.0665   -0.8634   20.2639 H       1  UNL1        0.2109
     23 C           2.2488    0.1587   19.6602 C.ar    1  UNL1        0.0167
     24 C           2.6243    0.2495   18.2109 C.ar    1  UNL1       -0.0011
     25 C           3.8519   -0.4512   17.7088 C.ar    1  UNL1        0.0037
     26 C           4.7041   -1.2426   18.6562 C.ar    1  UNL1        0.0722
     27 C           4.3286   -1.3333   20.1056 C.ar    1  UNL1        0.0150
     28 C           3.1009   -0.6327   20.6076 C.ar    1  UNL1        0.0559
     29 CL          2.7255   -0.7235   22.0570 Cl      1  UNL1       -0.0825
     30 C           5.9318   -1.9432   18.1542 C.3     1  UNL1        0.4186
     31 F           7.1594   -2.6440   17.6522 F       1  UNL1       -0.1659
     32 F           5.1012   -3.1385   17.7916 F       1  UNL1       -0.1659
     33 F           6.7622   -0.7479   18.5169 F       1  UNL1       -0.1659
@<TRIPOS>BOND
     1     1     2    1
     2     2     3   ar
     3     3     4   ar
     4     4     5   ar
     5     5     6   ar
     6     6     7   ar
     7     7    13    1
     8    13    14    1
     9    14    15    1
    10    15    16    1
    11    16    17    1
    12    17    18    1
    13     7     8   ar
    14     8     9   ar
    15     9    10   ar
    16    10    19    1
    17    19    20    1
    18    20    21    1
    19    20    23    1
    20    23    24   ar
    21    24    25   ar
    22    25    26   ar
    23    26    30    1
    24    30    31    1
    25    30    32    1
    26    30    33    1
    27    26    27   ar
    28    27    28   ar
    29    28    29    1
    30    10     2   ar
    31    28    23   ar
    32     9     4   ar
    33    18    14    1
    34     1    11    1
    35     1    12    1
    36    21    22    1
@<TRIPOS>MOLECULE
*****
 33 36 0 0 0
SMALL
GASTEIGER

@<TRIPOS>ATOM
      1 N           8.2464   -3.7800   20.5017 N.pl3   1  UNL1       -0.3287
      2 C           8.0117   -4.4189   21.8384 C.ar    1  UNL1        0.1959
      3 N           8.4239   -5.8047   22.2377 N.ar    1  UNL1       -0.2123
      4 C           7.9907   -6.0265   23.6566 C.ar    1  UNL1        0.1184
      5 C           8.1275   -7.2042   24.5754 C.ar    1  UNL1        0.0271
      6 C           7.5843   -7.1331   25.9717 C.ar    1  UNL1        0.0594
      7 C           6.9043   -5.8843   26.4493 C.ar    1  UNL1        0.2262
      8 N           6.7675   -4.7066   25.5305 N.ar    1  UNL1       -0.1926
      9 C           7.3107   -4.7777   24.1341 C.ar    1  UNL1        0.1668
     10 N           7.3237   -3.7842   23.0104 N.ar    1  UNL1       -0.2824
     11 H           8.7099   -4.2801   19.7916 H       1  UNL1        0.1451
     12 H           7.9369   -2.8605   20.3345 H       1  UNL1        0.1451
     13 O           6.3611   -5.8132   27.8457 O.3     1  UNL1       -0.4613
     14 C           7.2863   -5.5575   28.9983 C.3     1  UNL1        0.1995
     15 C           6.9542   -5.7306   30.4507 C.3     1  UNL1        0.0783
     16 C           8.1688   -5.3638   31.2509 C.3     1  UNL1        0.1461
     17 O           9.2516   -4.9639   30.2929 O.3     1  UNL1       -0.3498
     18 C           8.7062   -5.0836   28.9007 C.3     1  UNL1        0.1855
     19 C           6.7495   -2.3990   23.0516 C.3     1  UNL1        0.1438
     20 C           5.2888   -2.2005   23.3289 C.3     1  UNL1        0.1561
     21 O           4.7203   -2.5814   24.6638 O.3     1  UNL1       -0.3780
     22 H           3.7696   -2.3897   24.6769 H       1  UNL1        0.2109
     23 C           4.3965   -1.6212   22.2715 C.ar    1  UNL1        0.0167
     24 C           3.9416   -0.1955   22.3726 C.ar    1  UNL1       -0.0011
     25 C           3.0492    0.3839   21.3152 C.ar    1  UNL1        0.0037
     26 C           2.6119   -0.4625   20.1566 C.ar    1  UNL1        0.0722
     27 C           3.0669   -1.8883   20.0555 C.ar    1  UNL1        0.0150
     28 C           3.9592   -2.4676   21.1129 C.ar    1  UNL1        0.0559
     29 CL          4.4142   -3.8934   21.0118 Cl      1  UNL1       -0.0825
     30 C           1.7196    0.1167   19.0991 C.3     1  UNL1        0.4186
     31 F           0.8273    0.6960   18.0416 F       1  UNL1       -0.1659
     32 F           2.9231    0.6241   18.3616 F       1  UNL1       -0.1659
     33 F           0.5161   -0.3907   19.8367 F       1  UNL1       -0.1659
@<TRIPOS>BOND
     1     1     2    1
     2     2     3   ar
     3     3     4   ar
     4     4     5   ar
     5     5     6   ar
     6     6     7   ar
     7     7    13    1
     8    13    14    1
     9    14    15    1
    10    15    16    1
    11    16    17    1
    12    17    18    1
    13     7     8   ar
    14     8     9   ar
    15     9    10   ar
    16    10    19    1
    17    19    20    1
    18    20    21    1
    19    20    23    1
    20    23    24   ar
    21    24    25   ar
    22    25    26   ar
    23    26    30    1
    24    30    31    1
    25    30    32    1
    26    30    33    1
    27    26    27   ar
    28    27    28   ar
    29    28    29    1
    30    10     2   ar
    31    28    23   ar
    32     9     4   ar
    33    18    14    1
    34     1    11    1
    35     1    12    1
    36    21    22    1
@<TRIPOS>MOLECULE
*****
 33 36 0 0 0
SMALL
GASTEIGER

@<TRIPOS>ATOM
      1 N           2.2810    2.6958   20.1074 N.pl3   1  UNL1       -0.3287
      2 C           1.3973    2.7289   21.3190 C.ar    1  UNL1        0.1959
      3 N           0.0545    3.3907   21.4131 N.ar    1  UNL1       -0.2123
      4 C          -0.4714    3.1769   22.8015 C.ar    1  UNL1        0.1184
      5 C          -1.7456    3.6025   23.4687 C.ar    1  UNL1        0.0271
      6 C          -2.0020    3.2343   24.9000 C.ar    1  UNL1        0.0594
      7 C          -0.9842    2.4405   25.6641 C.ar    1  UNL1        0.2262
      8 N           0.2900    2.0148   24.9969 N.ar    1  UNL1       -0.1926
      9 C           0.5464    2.3830   23.5656 C.ar    1  UNL1        0.1668
     10 N           1.7013    2.1062   22.6494 N.ar    1  UNL1       -0.2824
     11 H           1.9925    3.1361   19.2755 H       1  UNL1        0.1451
     12 H           3.1495    2.2336   20.1441 H       1  UNL1        0.1451
     13 O          -1.2406    2.0722   27.0955 O.3     1  UNL1       -0.4613
     14 C          -0.1509    1.4487   27.9163 C.3     1  UNL1        0.1995
     15 C          -0.1133    0.0290   28.3989 C.3     1  UNL1        0.0783
     16 C           1.1534   -0.1618   29.1795 C.3     1  UNL1        0.1461
     17 O           1.8986    1.1400   29.1792 O.3     1  UNL1       -0.3498
     18 C           1.0925    2.1353   28.3985 C.3     1  UNL1        0.1855
     19 C           2.9424    1.3409   23.0017 C.3     1  UNL1        0.1438
     20 C           2.8522   -0.1153   23.3498 C.3     1  UNL1        0.1561
     21 O           2.3910   -0.5329   24.7148 O.3     1  UNL1       -0.3780
     22 H           2.3904   -1.5011   24.7736 H       1  UNL1        0.2109
     23 C           3.2232   -1.1540   22.3332 C.ar    1  UNL1        0.0167
     24 C           2.6732   -1.0701   20.9402 C.ar    1  UNL1       -0.0011
     25 C           3.0442   -2.1088   19.9236 C.ar    1  UNL1        0.0037
     26 C           3.9651   -3.2313   20.3000 C.ar    1  UNL1        0.0722
     27 C           4.5151   -3.3152   21.6930 C.ar    1  UNL1        0.0150
     28 C           4.1441   -2.2765   22.7096 C.ar    1  UNL1        0.0559
     29 CL          4.6941   -2.3604   24.1026 Cl      1  UNL1       -0.0825
     30 C           4.3361   -4.2701   19.2834 C.3     1  UNL1        0.4186
     31 F           4.7071   -5.3088   18.2668 F       1  UNL1       -0.1659
     32 F           2.8899   -4.4294   18.9185 F       1  UNL1       -0.1659
     33 F           5.7822   -4.1107   19.6483 F       1  UNL1       -0.1659
@<TRIPOS>BOND
     1     1     2    1
     2     2     3   ar
     3     3     4   ar
     4     4     5   ar
     5     5     6   ar
     6     6     7   ar
     7     7    13    1
     8    13    14    1
     9    14    15    1
    10    15    16    1
    11    16    17    1
    12    17    18    1
    13     7     8   ar
    14     8     9   ar
    15     9    10   ar
    16    10    19    1
    17    19    20    1
    18    20    21    1
    19    20    23    1
    20    23    24   ar
    21    24    25   ar
    22    25    26   ar
    23    26    30    1
    24    30    31    1
    25    30    32    1
    26    30    33    1
    27    26    27   ar
    28    27    28   ar
    29    28    29    1
    30    10     2   ar
    31    28    23   ar
    32     9     4   ar
    33    18    14    1
    34     1    11    1
    35     1    12    1
    36    21    22    1
