@<TRIPOS>MOLECULE
*****
 33 37 0 0 0
SMALL
GASTEIGER

@<TRIPOS>ATOM
      1 N           6.8061   -4.1004   23.8111 N.pl3   1  UNL1       -0.2781
      2 C           7.5913   -5.3145   24.2105 C.3     1  UNL1        0.0950
      3 C           7.6321   -5.3677   25.7090 C.3     1  UNL1        0.0390
      4 C           6.8722   -4.1866   26.2357 C.3     1  UNL1        0.0390
      5 C           6.3616   -3.4033   25.0627 C.3     1  UNL1        0.0950
      6 C           7.5032   -5.1580   27.1887 C.3     1  UNL1        0.0789
      7 C           5.9366   -2.7811   19.5975 C.ar    1  UNL1        0.0937
      8 C           5.0199   -3.7495   20.2845 C.ar    1  UNL1        0.1079
      9 N           5.3097   -4.1892   21.6890 N.ar    1  UNL1       -0.2119
     10 C           6.5162   -3.6606   22.4066 C.ar    1  UNL1        0.2202
     11 N           7.4329   -2.6922   21.7196 N.ar    1  UNL1       -0.2119
     12 C           7.1431   -2.2524   20.3152 C.ar    1  UNL1        0.1079
     13 O           6.7718   -2.1525   17.2190 O.2     1  UNL1       -0.2680
     14 C           5.6468   -2.3413   18.1931 C.2     1  UNL1        0.2708
     15 N           4.2320   -2.0903   17.7627 N.am    1  UNL1       -0.1934
     16 O           3.9421   -1.6505   16.3581 O.3     1  UNL1       -0.2949
     17 H           3.4936   -2.2142   18.4020 H       1  UNL1        0.1825
     18 H           4.7737   -1.5776   15.8640 H       1  UNL1        0.2414
     19 N           7.7930   -5.5978   28.5931 N.3     1  UNL1       -0.1807
     20 H           8.7507   -5.9488   28.6001 H       1  UNL1        0.1487
     21 S           7.6827   -4.6182   29.7236 S.O2    1  UNL1        0.0602
     22 O           6.6311   -5.4752   30.3636 O.2     1  UNL1       -0.1530
     23 O           8.7343   -3.7612   29.0836 O.2     1  UNL1       -0.1530
     24 C           7.5723   -3.6385   30.8542 C.ar    1  UNL1        0.1219
     25 C           8.7958   -2.9290   31.3539 C.ar    1  UNL1        0.0199
     26 C           8.6855   -1.9494   32.4845 C.ar    1  UNL1        0.0014
     27 C           7.3516   -1.6792   33.1153 C.ar    1  UNL1        0.0001
     28 C           7.2413   -0.6996   34.2458 C.ar    1  UNL1        0.0000
     29 C           5.9075   -0.4294   34.8766 C.ar    1  UNL1        0.0000
     30 C           4.6840   -1.1389   34.3769 C.ar    1  UNL1        0.0000
     31 C           4.7943   -2.1185   33.2464 C.ar    1  UNL1        0.0000
     32 C           6.1281   -2.3887   32.6156 C.ar    1  UNL1        0.0013
     33 C           6.2385   -3.3684   31.4850 C.ar    1  UNL1        0.0199
@<TRIPOS>BOND
     1    13    14    2
     2    14    15   am
     3    15    16    1
     4    14     7    1
     5     7     8   ar
     6     8     9   ar
     7     9    10   ar
     8    10     1    1
     9     1     2    1
    10     3     2    1
    11     3     4    1
    12     4     5    1
    13     4     6    1
    14     6    19    1
    15    19    21    1
    16    21    22    2
    17    21    23    2
    18    21    24    1
    19    24    25   ar
    20    25    26   ar
    21    26    27   ar
    22    27    28   ar
    23    28    29   ar
    24    29    30   ar
    25    30    31   ar
    26    31    32   ar
    27    32    33   ar
    28    10    11   ar
    29    11    12   ar
    30    12     7   ar
    31     5     1    1
    32    33    24   ar
    33     6     3    1
    34    32    27   ar
    35    15    17    1
    36    16    18    1
    37    19    20    1
@<TRIPOS>MOLECULE
*****
 33 37 0 0 0
SMALL
GASTEIGER

@<TRIPOS>ATOM
      1 N          -3.3068    4.1399   23.3952 N.pl3   1  UNL1       -0.2781
      2 C          -3.6271    3.7408   21.9851 C.3     1  UNL1        0.0950
      3 C          -2.3560    3.2838   21.3327 C.3     1  UNL1        0.0390
      4 C          -1.2502    3.4005   22.3395 C.3     1  UNL1        0.0390
      5 C          -1.8379    3.9296   23.6143 C.3     1  UNL1        0.0950
      6 C          -0.9568    2.8932   20.9588 C.3     1  UNL1        0.0789
      7 C          -6.2385    5.6951   26.4344 C.ar    1  UNL1        0.0937
      8 C          -5.0680    4.8679   26.8764 C.ar    1  UNL1        0.1079
      9 N          -4.0907    4.3494   25.8633 N.ar    1  UNL1       -0.2119
     10 C          -4.2841    4.6583   24.4083 C.ar    1  UNL1        0.2202
     11 N          -5.4546    5.4856   23.9663 N.ar    1  UNL1       -0.2119
     12 C          -6.4319    6.0040   24.9793 C.ar    1  UNL1        0.1079
     13 O          -8.2645    7.2051   27.0389 O.2     1  UNL1       -0.2680
     14 C          -7.2157    6.2135   27.4474 C.2     1  UNL1        0.2708
     15 N          -7.1443    5.7403   28.8690 N.am    1  UNL1       -0.1934
     16 O          -8.1215    6.2587   29.8821 O.3     1  UNL1       -0.2949
     17 H          -6.4559    5.0895   29.1371 H       1  UNL1        0.1825
     18 H          -8.7265    6.8861   29.4563 H       1  UNL1        0.2414
     19 N           0.0203    2.3748   19.9457 N.3     1  UNL1       -0.1807
     20 H           0.6002    3.1654   19.6645 H       1  UNL1        0.1487
     21 S           0.9553    1.2593   20.3080 S.O2    1  UNL1        0.0602
     22 O           2.1230    2.1881   20.1546 O.2     1  UNL1       -0.1530
     23 O          -0.2124    0.3304   20.4614 O.2     1  UNL1       -0.1530
     24 C           1.8904    0.1437   20.6703 C.ar    1  UNL1        0.1219
     25 C           2.3693   -0.0042   22.0840 C.ar    1  UNL1        0.0199
     26 C           3.3044   -1.1197   22.4464 C.ar    1  UNL1        0.0014
     27 C           3.7605   -2.0874   21.3949 C.ar    1  UNL1        0.0001
     28 C           4.6955   -3.2029   21.7572 C.ar    1  UNL1        0.0000
     29 C           5.1516   -4.1706   20.7057 C.ar    1  UNL1        0.0000
     30 C           4.6727   -4.0227   19.2920 C.ar    1  UNL1        0.0000
     31 C           3.7376   -2.9072   18.9297 C.ar    1  UNL1        0.0000
     32 C           3.2816   -1.9396   19.9811 C.ar    1  UNL1        0.0013
     33 C           2.3465   -0.8240   19.6188 C.ar    1  UNL1        0.0199
@<TRIPOS>BOND
     1    13    14    2
     2    14    15   am
     3    15    16    1
     4    14     7    1
     5     7     8   ar
     6     8     9   ar
     7     9    10   ar
     8    10     1    1
     9     1     2    1
    10     3     2    1
    11     3     4    1
    12     4     5    1
    13     4     6    1
    14     6    19    1
    15    19    21    1
    16    21    22    2
    17    21    23    2
    18    21    24    1
    19    24    25   ar
    20    25    26   ar
    21    26    27   ar
    22    27    28   ar
    23    28    29   ar
    24    29    30   ar
    25    30    31   ar
    26    31    32   ar
    27    32    33   ar
    28    10    11   ar
    29    11    12   ar
    30    12     7   ar
    31     5     1    1
    32    33    24   ar
    33     6     3    1
    34    32    27   ar
    35    15    17    1
    36    16    18    1
    37    19    20    1
@<TRIPOS>MOLECULE
*****
 33 37 0 0 0
SMALL
GASTEIGER

@<TRIPOS>ATOM
      1 N          -3.2729    4.1361   23.3715 N.pl3   1  UNL1       -0.2781
      2 C          -3.5731    3.7845   21.9445 C.3     1  UNL1        0.0950
      3 C          -2.3005    3.3125   21.3058 C.3     1  UNL1        0.0390
      4 C          -1.2139    3.3725   22.3380 C.3     1  UNL1        0.0390
      5 C          -1.8148    3.8816   23.6147 C.3     1  UNL1        0.0950
      6 C          -0.9042    2.8959   20.9499 C.3     1  UNL1        0.0789
      7 C          -6.2279    5.6833   26.3921 C.ar    1  UNL1        0.0937
      8 C          -5.1460    4.7359   26.8185 C.ar    1  UNL1        0.1079
      9 N          -4.1610    4.2202   25.8116 N.ar    1  UNL1       -0.2119
     10 C          -4.2579    4.6519   24.3784 C.ar    1  UNL1        0.2202
     11 N          -5.3398    5.5993   23.9520 N.ar    1  UNL1       -0.2119
     12 C          -6.3249    6.1150   24.9588 C.ar    1  UNL1        0.1079
     13 O          -8.2750    7.1716   26.9791 O.2     1  UNL1       -0.2680
     14 C          -7.2129    6.1991   27.3989 C.2     1  UNL1        0.2708
     15 N          -7.1359    5.7423   28.8256 N.am    1  UNL1       -0.1934
     16 O          -8.1209    6.2580   29.8325 O.3     1  UNL1       -0.2949
     17 H          -6.4388    5.1039   29.1011 H       1  UNL1        0.1825
     18 H          -8.7342    6.8723   29.3996 H       1  UNL1        0.2414
     19 N           0.0808    2.3802   19.9430 N.3     1  UNL1       -0.1807
     20 H           0.6807    3.1651   19.6892 H       1  UNL1        0.1487
     21 S           0.9875    1.2391   20.2973 S.O2    1  UNL1        0.0602
     22 O           2.1811    2.1248   20.0954 O.2     1  UNL1       -0.1530
     23 O          -0.2060    0.3533   20.4992 O.2     1  UNL1       -0.1530
     24 C           1.8944    0.0979   20.6515 C.ar    1  UNL1        0.1219
     25 C           2.2577   -0.9216   19.6130 C.ar    1  UNL1        0.0199
     26 C           3.1644   -2.0628   19.9672 C.ar    1  UNL1        0.0014
     27 C           3.7080   -2.1845   21.3600 C.ar    1  UNL1        0.0001
     28 C           4.6148   -3.3256   21.7142 C.ar    1  UNL1        0.0000
     29 C           5.1583   -3.4472   23.1069 C.ar    1  UNL1        0.0000
     30 C           4.7950   -2.4277   24.1455 C.ar    1  UNL1        0.0000
     31 C           3.8882   -1.2865   23.7913 C.ar    1  UNL1        0.0000
     32 C           3.3447   -1.1649   22.3985 C.ar    1  UNL1        0.0013
     33 C           2.4379   -0.0237   22.0443 C.ar    1  UNL1        0.0199
@<TRIPOS>BOND
     1    13    14    2
     2    14    15   am
     3    15    16    1
     4    14     7    1
     5     7     8   ar
     6     8     9   ar
     7     9    10   ar
     8    10     1    1
     9     1     2    1
    10     3     2    1
    11     3     4    1
    12     4     5    1
    13     4     6    1
    14     6    19    1
    15    19    21    1
    16    21    22    2
    17    21    23    2
    18    21    24    1
    19    24    25   ar
    20    25    26   ar
    21    26    27   ar
    22    27    28   ar
    23    28    29   ar
    24    29    30   ar
    25    30    31   ar
    26    31    32   ar
    27    32    33   ar
    28    10    11   ar
    29    11    12   ar
    30    12     7   ar
    31     5     1    1
    32    33    24   ar
    33     6     3    1
    34    32    27   ar
    35    15    17    1
    36    16    18    1
    37    19    20    1
@<TRIPOS>MOLECULE
*****
 33 37 0 0 0
SMALL
GASTEIGER

@<TRIPOS>ATOM
      1 N          -3.0416    3.7022   20.8886 N.pl3   1  UNL1       -0.2781
      2 C          -1.7572    3.2207   21.4956 C.3     1  UNL1        0.0950
      3 C          -0.7270    3.1530   20.4074 C.3     1  UNL1        0.0390
      4 C          -1.3747    3.5927   19.1279 C.3     1  UNL1        0.0390
      5 C          -2.8053    3.9321   19.4253 C.3     1  UNL1        0.0950
      6 C           0.0694    3.1875   19.1367 C.3     1  UNL1        0.0789
      7 C          -6.9225    4.3443   23.0742 C.ar    1  UNL1        0.0937
      8 C          -5.6954    3.9297   23.8308 C.ar    1  UNL1        0.1079
      9 N          -4.4018    3.7157   23.1022 N.ar    1  UNL1       -0.2119
     10 C          -4.3353    3.9162   21.6172 C.ar    1  UNL1        0.2202
     11 N          -5.5624    4.3308   20.8607 N.ar    1  UNL1       -0.2119
     12 C          -6.8560    4.5448   21.5892 C.ar    1  UNL1        0.1079
     13 O          -8.4587    5.8424   24.5390 O.2     1  UNL1       -0.2680
     14 C          -8.2161    4.5583   23.8027 C.2     1  UNL1        0.2708
     15 N          -9.2672    3.4882   23.7949 N.am    1  UNL1       -0.1934
     16 O         -10.5609    3.7021   24.5234 O.3     1  UNL1       -0.2949
     17 H          -9.1079    2.6453   23.3117 H       1  UNL1        0.1825
     18 H         -10.5551    4.5770   24.9424 H       1  UNL1        0.2414
     19 N           1.3630    2.9735   18.4082 N.3     1  UNL1       -0.1807
     20 H           2.0013    3.7055   18.7202 H       1  UNL1        0.1487
     21 S           2.0957    1.6720   18.5474 S.O2    1  UNL1        0.0602
     22 O           0.8493    0.9297   18.1661 O.2     1  UNL1       -0.1530
     23 O           3.3420    2.4144   18.9286 O.2     1  UNL1       -0.1530
     24 C           2.8283    0.3705   18.6865 C.ar    1  UNL1        0.1219
     25 C           3.4206   -0.2898   17.4768 C.ar    1  UNL1        0.0199
     26 C           4.1532   -1.5913   17.6159 C.ar    1  UNL1        0.0014
     27 C           4.2935   -2.2326   18.9647 C.ar    1  UNL1        0.0001
     28 C           5.0261   -3.5341   19.1037 C.ar    1  UNL1        0.0000
     29 C           5.1663   -4.1753   20.4525 C.ar    1  UNL1        0.0000
     30 C           4.5740   -3.5151   21.6621 C.ar    1  UNL1        0.0000
     31 C           3.8414   -2.2136   21.5230 C.ar    1  UNL1        0.0000
     32 C           3.7011   -1.5724   20.1743 C.ar    1  UNL1        0.0013
     33 C           2.9685   -0.2708   20.0352 C.ar    1  UNL1        0.0199
@<TRIPOS>BOND
     1    13    14    2
     2    14    15   am
     3    15    16    1
     4    14     7    1
     5     7     8   ar
     6     8     9   ar
     7     9    10   ar
     8    10     1    1
     9     1     2    1
    10     3     2    1
    11     3     4    1
    12     4     5    1
    13     4     6    1
    14     6    19    1
    15    19    21    1
    16    21    22    2
    17    21    23    2
    18    21    24    1
    19    24    25   ar
    20    25    26   ar
    21    26    27   ar
    22    27    28   ar
    23    28    29   ar
    24    29    30   ar
    25    30    31   ar
    26    31    32   ar
    27    32    33   ar
    28    10    11   ar
    29    11    12   ar
    30    12     7   ar
    31     5     1    1
    32    33    24   ar
    33     6     3    1
    34    32    27   ar
    35    15    17    1
    36    16    18    1
    37    19    20    1
@<TRIPOS>MOLECULE
*****
 33 37 0 0 0
SMALL
GASTEIGER

@<TRIPOS>ATOM
      1 N          -4.0943    4.1458   22.2588 N.pl3   1  UNL1       -0.2781
      2 C          -2.6937    4.1059   22.7941 C.3     1  UNL1        0.0950
      3 C          -1.8095    3.5160   21.7356 C.3     1  UNL1        0.0390
      4 C          -2.6637    3.1913   20.5462 C.3     1  UNL1        0.0390
      5 C          -4.0759    3.5806   20.8695 C.3     1  UNL1        0.0950
      6 C          -1.1912    2.9078   20.5118 C.3     1  UNL1        0.0789
      7 C          -7.7158    5.6903   24.4382 C.ar    1  UNL1        0.0937
      8 C          -6.3614    6.2626   24.7348 C.ar    1  UNL1        0.1079
      9 N          -5.1542    5.7477   24.0083 N.ar    1  UNL1       -0.2119
     10 C          -5.3015    4.6607   22.9853 C.ar    1  UNL1        0.2202
     11 N          -6.6560    4.0884   22.6887 N.ar    1  UNL1       -0.2119
     12 C          -7.8631    4.6032   23.4151 C.ar    1  UNL1        0.1079
     13 O          -8.7596    6.9544   26.4538 O.2     1  UNL1       -0.2680
     14 C          -8.9230    6.2051   25.1647 C.2     1  UNL1        0.2708
     15 N         -10.2935    5.9705   24.6020 N.am    1  UNL1       -0.1934
     16 O         -11.5007    6.4853   25.3284 O.3     1  UNL1       -0.2949
     17 H         -10.4007    5.4787   23.7559 H       1  UNL1        0.1825
     18 H         -11.2210    6.9426   26.1369 H       1  UNL1        0.2414
     19 N           0.0159    2.3930   19.7854 N.3     1  UNL1       -0.1807
     20 H           0.5983    3.2026   19.5713 H       1  UNL1        0.1487
     21 S           0.9076    1.3784   20.4376 S.O2    1  UNL1        0.0602
     22 O           2.0615    2.3322   20.3436 O.2     1  UNL1       -0.1530
     23 O          -0.2462    0.4247   20.5316 O.2     1  UNL1       -0.1530
     24 C           1.7994    0.3639   21.0899 C.ar    1  UNL1        0.1219
     25 C           2.1307    0.4836   22.5480 C.ar    1  UNL1        0.0199
     26 C           3.0224   -0.5309   23.2003 C.ar    1  UNL1        0.0014
     27 C           3.5830   -1.6652   22.3945 C.ar    1  UNL1        0.0001
     28 C           4.4747   -2.6797   23.0468 C.ar    1  UNL1        0.0000
     29 C           5.0353   -3.8139   22.2410 C.ar    1  UNL1        0.0000
     30 C           4.7040   -3.9337   20.7830 C.ar    1  UNL1        0.0000
     31 C           3.8123   -2.9192   20.1307 C.ar    1  UNL1        0.0000
     32 C           3.2518   -1.7850   20.9364 C.ar    1  UNL1        0.0013
     33 C           2.3599   -0.7704   20.2841 C.ar    1  UNL1        0.0199
@<TRIPOS>BOND
     1    13    14    2
     2    14    15   am
     3    15    16    1
     4    14     7    1
     5     7     8   ar
     6     8     9   ar
     7     9    10   ar
     8    10     1    1
     9     1     2    1
    10     3     2    1
    11     3     4    1
    12     4     5    1
    13     4     6    1
    14     6    19    1
    15    19    21    1
    16    21    22    2
    17    21    23    2
    18    21    24    1
    19    24    25   ar
    20    25    26   ar
    21    26    27   ar
    22    27    28   ar
    23    28    29   ar
    24    29    30   ar
    25    30    31   ar
    26    31    32   ar
    27    32    33   ar
    28    10    11   ar
    29    11    12   ar
    30    12     7   ar
    31     5     1    1
    32    33    24   ar
    33     6     3    1
    34    32    27   ar
    35    15    17    1
    36    16    18    1
    37    19    20    1
@<TRIPOS>MOLECULE
*****
 33 37 0 0 0
SMALL
GASTEIGER

@<TRIPOS>ATOM
      1 N           0.5012    2.5692   26.8578 N.pl3   1  UNL1       -0.2781
      2 C           0.7931    3.6338   25.8421 C.3     1  UNL1        0.0950
      3 C           0.4715    3.0805   24.4853 C.3     1  UNL1        0.0390
      4 C          -0.0191    1.6742   24.6626 C.3     1  UNL1        0.0390
      5 C          -0.0007    1.3581   26.1289 C.3     1  UNL1        0.0950
      6 C           0.0715    2.2694   23.2887 C.3     1  UNL1        0.0789
      7 C           1.0374    2.9435   31.3101 C.ar    1  UNL1        0.0937
      8 C           1.1648    1.6028   30.6494 C.ar    1  UNL1        0.1079
      9 N           0.9861    1.4781   29.1653 N.ar    1  UNL1       -0.2119
     10 C           0.6800    2.6939   28.3419 C.ar    1  UNL1        0.2202
     11 N           0.5526    4.0346   29.0026 N.ar    1  UNL1       -0.2119
     12 C           0.7313    4.1593   30.4866 C.ar    1  UNL1        0.1079
     13 O           0.8273    4.3376   33.4923 O.2     1  UNL1       -0.2680
     14 C           1.2161    3.0682   32.7941 C.2     1  UNL1        0.2708
     15 N           1.7837    1.9236   33.5800 N.am    1  UNL1       -0.1934
     16 O           1.9624    2.0483   35.0641 O.3     1  UNL1       -0.2949
     17 H           2.0389    1.0905   33.1218 H       1  UNL1        0.1825
     18 H           1.6643    2.9250   35.3532 H       1  UNL1        0.2414
     19 N          -0.1073    2.1447   21.8047 N.3     1  UNL1       -0.1807
     20 H          -0.0868    3.0912   21.4251 H       1  UNL1        0.1487
     21 S           0.8630    1.3336   20.9980 S.O2    1  UNL1        0.0602
     22 O           1.9367    2.3442   21.2732 O.2     1  UNL1       -0.1530
     23 O          -0.2107    0.3230   20.7227 O.2     1  UNL1       -0.1530
     24 C           1.8333    0.5225   20.1913 C.ar    1  UNL1        0.1219
     25 C           2.2945    1.0185   18.8529 C.ar    1  UNL1        0.0199
     26 C           3.2648    0.2075   18.0462 C.ar    1  UNL1        0.0014
     27 C           3.7738   -1.0996   18.5778 C.ar    1  UNL1        0.0001
     28 C           4.7441   -1.9106   17.7711 C.ar    1  UNL1        0.0000
     29 C           5.2531   -3.2176   18.3028 C.ar    1  UNL1        0.0000
     30 C           4.7918   -3.7135   19.6412 C.ar    1  UNL1        0.0000
     31 C           3.8215   -2.9025   20.4479 C.ar    1  UNL1        0.0000
     32 C           3.3126   -1.5955   19.9162 C.ar    1  UNL1        0.0013
     33 C           2.3422   -0.7845   20.7229 C.ar    1  UNL1        0.0199
@<TRIPOS>BOND
     1    13    14    2
     2    14    15   am
     3    15    16    1
     4    14     7    1
     5     7     8   ar
     6     8     9   ar
     7     9    10   ar
     8    10     1    1
     9     1     2    1
    10     3     2    1
    11     3     4    1
    12     4     5    1
    13     4     6    1
    14     6    19    1
    15    19    21    1
    16    21    22    2
    17    21    23    2
    18    21    24    1
    19    24    25   ar
    20    25    26   ar
    21    26    27   ar
    22    27    28   ar
    23    28    29   ar
    24    29    30   ar
    25    30    31   ar
    26    31    32   ar
    27    32    33   ar
    28    10    11   ar
    29    11    12   ar
    30    12     7   ar
    31     5     1    1
    32    33    24   ar
    33     6     3    1
    34    32    27   ar
    35    15    17    1
    36    16    18    1
    37    19    20    1
@<TRIPOS>MOLECULE
*****
 33 37 0 0 0
SMALL
GASTEIGER

@<TRIPOS>ATOM
      1 N           5.7905   -2.1060   32.9475 N.pl3   1  UNL1       -0.2781
      2 C           6.6371   -0.9688   33.4375 C.3     1  UNL1        0.0950
      3 C           5.8458   -0.2094   34.4609 C.3     1  UNL1        0.0390
      4 C           4.5103   -0.8772   34.6033 C.3     1  UNL1        0.0390
      5 C           4.4761   -2.0495   33.6680 C.3     1  UNL1        0.0950
      6 C           4.8334    0.3361   35.4239 C.3     1  UNL1        0.0789
      7 C           6.9847   -5.1525   29.8582 C.ar    1  UNL1        0.0937
      8 C           6.6153   -3.7614   29.4360 C.ar    1  UNL1        0.1079
      9 N           6.2172   -2.7459   30.4658 N.ar    1  UNL1       -0.2119
     10 C           6.1886   -3.1215   31.9177 C.ar    1  UNL1        0.2202
     11 N           6.5581   -4.5127   32.3399 N.ar    1  UNL1       -0.2119
     12 C           6.9561   -5.5281   31.3102 C.ar    1  UNL1        0.1079
     13 O           8.6630   -6.9337   28.9860 O.2     1  UNL1       -0.2680
     14 C           7.3828   -6.1680   28.8286 C.2     1  UNL1        0.2708
     15 N           6.5006   -6.4178   27.6414 N.am    1  UNL1       -0.1934
     16 O           6.8987   -7.4333   26.6116 O.3     1  UNL1       -0.2949
     17 H           5.6604   -5.9152   27.5381 H       1  UNL1        0.1825
     18 H           7.7456   -7.8338   26.8630 H       1  UNL1        0.2414
     19 N           4.4354    1.3516   36.4536 N.3     1  UNL1       -0.1807
     20 H           5.2914    1.8185   36.7530 H       1  UNL1        0.1487
     21 S           3.4538    2.4302   36.1029 S.O2    1  UNL1        0.0602
     22 O           4.4838    3.0839   35.2301 O.2     1  UNL1       -0.1530
     23 O           2.4237    1.7766   36.9756 O.2     1  UNL1       -0.1530
     24 C           2.4722    3.5090   35.7522 C.ar    1  UNL1        0.1219
     25 C           2.0757    4.5257   36.7813 C.ar    1  UNL1        0.0199
     26 C           1.0942    5.6043   36.4306 C.ar    1  UNL1        0.0014
     27 C           0.5091    5.6664   35.0508 C.ar    1  UNL1        0.0001
     28 C          -0.4724    6.7450   34.7001 C.ar    1  UNL1        0.0000
     29 C          -1.0575    6.8070   33.3203 C.ar    1  UNL1        0.0000
     30 C          -0.6610    5.7903   32.2912 C.ar    1  UNL1        0.0000
     31 C           0.3206    4.7116   32.6419 C.ar    1  UNL1        0.0000
     32 C           0.9056    4.6497   34.0217 C.ar    1  UNL1        0.0013
     33 C           1.8872    3.5709   34.3724 C.ar    1  UNL1        0.0199
@<TRIPOS>BOND
     1    13    14    2
     2    14    15   am
     3    15    16    1
     4    14     7    1
     5     7     8   ar
     6     8     9   ar
     7     9    10   ar
     8    10     1    1
     9     1     2    1
    10     3     2    1
    11     3     4    1
    12     4     5    1
    13     4     6    1
    14     6    19    1
    15    19    21    1
    16    21    22    2
    17    21    23    2
    18    21    24    1
    19    24    25   ar
    20    25    26   ar
    21    26    27   ar
    22    27    28   ar
    23    28    29   ar
    24    29    30   ar
    25    30    31   ar
    26    31    32   ar
    27    32    33   ar
    28    10    11   ar
    29    11    12   ar
    30    12     7   ar
    31     5     1    1
    32    33    24   ar
    33     6     3    1
    34    32    27   ar
    35    15    17    1
    36    16    18    1
    37    19    20    1
@<TRIPOS>MOLECULE
*****
 33 37 0 0 0
SMALL
GASTEIGER

@<TRIPOS>ATOM
      1 N           4.6226   -0.5404   32.8001 N.pl3   1  UNL1       -0.2781
      2 C           4.2281   -1.9201   32.3633 C.3     1  UNL1        0.0950
      3 C           5.4722   -2.7543   32.2827 C.3     1  UNL1        0.0390
      4 C           6.6356   -1.8902   32.6698 C.3     1  UNL1        0.0390
      5 C           6.1105   -0.5219   32.9895 C.3     1  UNL1        0.0950
      6 C           6.8594   -3.3249   32.2941 C.3     1  UNL1        0.0789
      7 C           1.8321    2.9331   33.4313 C.ar    1  UNL1        0.0937
      8 C           2.9227    2.6573   34.4235 C.ar    1  UNL1        0.1079
      9 N           3.8529    1.4994   34.2131 N.ar    1  UNL1       -0.2119
     10 C           3.6925    0.6174   33.0105 C.ar    1  UNL1        0.2202
     11 N           2.6019    0.8933   32.0182 N.ar    1  UNL1       -0.2119
     12 C           1.6718    2.0510   32.2286 C.ar    1  UNL1        0.1079
     13 O           1.2095    5.1192   34.6895 O.2     1  UNL1       -0.2680
     14 C           0.9020    4.0909   33.6416 C.2     1  UNL1        0.2708
     15 N          -0.3356    4.2204   32.8041 N.am    1  UNL1       -0.1934
     16 O          -1.2658    5.3782   33.0144 O.3     1  UNL1       -0.2949
     17 H          -0.5374    3.5454   32.1163 H       1  UNL1        0.1825
     18 H          -0.9225    5.9442   33.7234 H       1  UNL1        0.2414
     19 N           7.7895   -4.4828   32.0836 N.3     1  UNL1       -0.1807
     20 H           7.4895   -5.2210   32.7204 H       1  UNL1        0.1487
     21 S           7.9148   -5.1069   30.7254 S.O2    1  UNL1        0.0602
     22 O           6.8814   -6.1278   31.0993 O.2     1  UNL1       -0.1530
     23 O           8.9481   -4.0860   30.3516 O.2     1  UNL1       -0.1530
     24 C           8.0400   -5.7311   29.3672 C.ar    1  UNL1        0.1219
     25 C           8.4938   -7.1547   29.2350 C.ar    1  UNL1        0.0199
     26 C           8.6190   -7.7789   27.8768 C.ar    1  UNL1        0.0014
     27 C           8.2904   -6.9795   26.6508 C.ar    1  UNL1        0.0001
     28 C           8.4157   -7.6037   25.2926 C.ar    1  UNL1        0.0000
     29 C           8.0871   -6.8043   24.0667 C.ar    1  UNL1        0.0000
     30 C           7.6333   -5.3807   24.1989 C.ar    1  UNL1        0.0000
     31 C           7.5080   -4.7565   25.5571 C.ar    1  UNL1        0.0000
     32 C           7.8366   -5.5559   26.7830 C.ar    1  UNL1        0.0013
     33 C           7.7114   -4.9317   28.1413 C.ar    1  UNL1        0.0199
@<TRIPOS>BOND
     1    13    14    2
     2    14    15   am
     3    15    16    1
     4    14     7    1
     5     7     8   ar
     6     8     9   ar
     7     9    10   ar
     8    10     1    1
     9     1     2    1
    10     3     2    1
    11     3     4    1
    12     4     5    1
    13     4     6    1
    14     6    19    1
    15    19    21    1
    16    21    22    2
    17    21    23    2
    18    21    24    1
    19    24    25   ar
    20    25    26   ar
    21    26    27   ar
    22    27    28   ar
    23    28    29   ar
    24    29    30   ar
    25    30    31   ar
    26    31    32   ar
    27    32    33   ar
    28    10    11   ar
    29    11    12   ar
    30    12     7   ar
    31     5     1    1
    32    33    24   ar
    33     6     3    1
    34    32    27   ar
    35    15    17    1
    36    16    18    1
    37    19    20    1
@<TRIPOS>MOLECULE
*****
 33 37 0 0 0
SMALL
GASTEIGER

@<TRIPOS>ATOM
      1 N          -2.3624    3.5114   25.6063 N.pl3   1  UNL1       -0.2781
      2 C          -1.6104    3.3534   24.3181 C.3     1  UNL1        0.0950
      3 C          -0.3316    2.6271   24.6140 C.3     1  UNL1        0.0390
      4 C          -0.2934    2.3363   26.0850 C.3     1  UNL1        0.0390
      5 C          -1.5486    2.8829   26.6983 C.3     1  UNL1        0.0950
      6 C           0.8411    1.9023   25.2050 C.3     1  UNL1        0.0789
      7 C          -6.3587    5.5188   26.1067 C.ar    1  UNL1        0.0937
      8 C          -5.3114    5.6572   27.1715 C.ar    1  UNL1        0.1079
      9 N          -3.9792    4.9880   27.0047 N.ar    1  UNL1       -0.2119
     10 C          -3.6945    4.1806   25.7731 C.ar    1  UNL1        0.2202
     11 N          -4.7419    4.0422   24.7083 N.ar    1  UNL1       -0.2119
     12 C          -6.0740    4.7113   24.8750 C.ar    1  UNL1        0.1079
     13 O          -8.0652    6.7951   27.5930 O.2     1  UNL1       -0.2680
     14 C          -7.6908    6.1879   26.2734 C.2     1  UNL1        0.2708
     15 N          -8.6485    6.2499   25.1206 N.am    1  UNL1       -0.1934
     16 O          -9.9806    6.9190   25.2874 O.3     1  UNL1       -0.2949
     17 H          -8.4027    5.8514   24.2546 H       1  UNL1        0.1825
     18 H         -10.0625    7.2551   26.1936 H       1  UNL1        0.2414
     19 N           2.1731    1.2332   25.0382 N.3     1  UNL1       -0.1807
     20 H           2.2935    0.6130   25.8390 H       1  UNL1        0.1487
     21 S           2.4537    0.4163   23.8118 S.O2    1  UNL1        0.0602
     22 O           2.9526   -0.7057   24.6733 O.2     1  UNL1       -0.1530
     23 O           1.9548    1.5383   22.9504 O.2     1  UNL1       -0.1530
     24 C           2.7343   -0.4007   22.5855 C.ar    1  UNL1        0.1219
     25 C           1.9307   -0.1812   21.3380 C.ar    1  UNL1        0.0199
     26 C           2.2112   -0.9980   20.1117 C.ar    1  UNL1        0.0014
     27 C           3.2954   -2.0345   20.1327 C.ar    1  UNL1        0.0001
     28 C           3.5759   -2.8514   18.9064 C.ar    1  UNL1        0.0000
     29 C           4.6601   -3.8877   18.9275 C.ar    1  UNL1        0.0000
     30 C           5.4637   -4.1072   20.1749 C.ar    1  UNL1        0.0000
     31 C           5.1832   -3.2904   21.4012 C.ar    1  UNL1        0.0000
     32 C           4.0990   -2.2540   21.3801 C.ar    1  UNL1        0.0013
     33 C           3.8184   -1.4370   22.6065 C.ar    1  UNL1        0.0199
@<TRIPOS>BOND
     1    13    14    2
     2    14    15   am
     3    15    16    1
     4    14     7    1
     5     7     8   ar
     6     8     9   ar
     7     9    10   ar
     8    10     1    1
     9     1     2    1
    10     3     2    1
    11     3     4    1
    12     4     5    1
    13     4     6    1
    14     6    19    1
    15    19    21    1
    16    21    22    2
    17    21    23    2
    18    21    24    1
    19    24    25   ar
    20    25    26   ar
    21    26    27   ar
    22    27    28   ar
    23    28    29   ar
    24    29    30   ar
    25    30    31   ar
    26    31    32   ar
    27    32    33   ar
    28    10    11   ar
    29    11    12   ar
    30    12     7   ar
    31     5     1    1
    32    33    24   ar
    33     6     3    1
    34    32    27   ar
    35    15    17    1
    36    16    18    1
    37    19    20    1
