@<TRIPOS>MOLECULE
*****
 31 35 0 0 0
SMALL
GASTEIGER

@<TRIPOS>ATOM
      1 C          -8.3534  -17.7598   22.5111 C.3     1  UNL1        0.1066
      2 C          -9.5456  -17.5405   21.6275 C.3     1  UNL1        0.0470
      3 C          -9.5033  -18.5622   20.5301 C.ar    1  UNL1       -0.0106
      4 C         -10.4168  -18.8278   19.3704 C.ar    1  UNL1        0.0544
      5 CL        -11.6350  -17.9771   19.1650 Cl      1  UNL1       -0.0826
      6 C         -10.1120  -19.9442   18.4160 C.ar    1  UNL1        0.0224
      7 C          -8.8937  -20.7949   18.6213 C.ar    1  UNL1        0.0583
      8 CL         -8.5890  -21.9112   17.6669 Cl      1  UNL1       -0.0822
      9 C          -7.9803  -20.5293   19.7811 C.ar    1  UNL1        0.0104
     10 C          -8.2851  -19.4129   20.7355 C.ar    1  UNL1        0.0163
     11 C          -7.5744  -18.9170   21.9598 C.3     1  UNL1        0.2026
     12 C          -6.5691  -13.7084   28.7090 C.3     1  UNL1        0.0896
     13 N          -6.9205  -14.5063   27.4884 N.3     1  UNL1       -0.2714
     14 C          -8.2220  -15.2090   27.2389 C.3     1  UNL1        0.0736
     15 C          -8.1380  -15.8785   25.8994 C.3     1  UNL1        0.0346
     16 C          -8.8904  -16.7266   24.9172 C.3     1  UNL1        0.0736
     17 N          -8.0020  -16.9619   23.7318 N.3     1  UNL1       -0.2702
     18 C          -6.7005  -16.2592   23.9813 C.3     1  UNL1        0.0736
     19 C          -6.7845  -15.5897   25.3209 C.3     1  UNL1        0.0346
     20 C          -6.0321  -14.7416   26.3030 C.3     1  UNL1        0.0736
     21 O          -6.3072  -19.4795   22.5323 O.3     1  UNL1       -0.4734
     22 C          -4.9790  -19.0242   22.0048 C.ar    1  UNL1        0.1390
     23 C          -4.0206  -18.3043   22.9067 C.ar    1  UNL1        0.0382
     24 C          -2.6923  -17.8489   22.3792 C.ar    1  UNL1        0.0215
     25 C          -2.3223  -18.1135   20.9498 C.ar    1  UNL1        0.1059
     26 C          -3.2806  -18.8334   20.0480 C.ar    1  UNL1        0.0215
     27 C          -4.6089  -19.2887   20.5754 C.ar    1  UNL1        0.0382
     28 S          -0.9940  -17.6581   20.4224 S.O2    1  UNL1        0.0105
     29 C           0.3343  -17.2027   19.8950 C.3     1  UNL1        0.1816
     30 O          -1.2509  -16.2827   20.9629 O.2     1  UNL1       -0.1686
     31 O          -0.7370  -19.0336   19.8818 O.2     1  UNL1       -0.1686
@<TRIPOS>BOND
     1    12    13    1
     2    13    14    1
     3    15    14    1
     4    15    16    1
     5    16    17    1
     6     1    17    1
     7     1     2    1
     8     2     3    1
     9     3     4   ar
    10     4     5    1
    11     4     6   ar
    12     6     7   ar
    13     7     8    1
    14     7     9   ar
    15     9    10   ar
    16    10    11    1
    17    11    21    1
    18    21    22    1
    19    22    23   ar
    20    23    24   ar
    21    24    25   ar
    22    25    28    1
    23    28    29    1
    24    28    30    2
    25    28    31    2
    26    25    26   ar
    27    26    27   ar
    28    17    18    1
    29    19    18    1
    30    19    20    1
    31    20    13    1
    32    19    15    1
    33    11     1    1
    34    27    22   ar
    35    10     3   ar
@<TRIPOS>MOLECULE
*****
 31 35 0 0 0
SMALL
GASTEIGER

@<TRIPOS>ATOM
      1 C           2.0014    0.1319   20.4744 C.3     1  UNL1        0.1066
      2 C           2.2957   -1.2017   19.8539 C.3     1  UNL1        0.0470
      3 C           3.2024   -1.9547   20.7818 C.ar    1  UNL1       -0.0106
      4 C           3.8201   -3.3188   20.6937 C.ar    1  UNL1        0.0544
      5 CL          3.5541   -4.1869   19.4997 Cl      1  UNL1       -0.0826
      6 C           4.7038   -3.8147   21.7996 C.ar    1  UNL1        0.0224
      7 C           4.9697   -2.9466   22.9936 C.ar    1  UNL1        0.0583
      8 CL          5.8535   -3.4425   24.0996 Cl      1  UNL1       -0.0822
      9 C           4.3520   -1.5825   23.0817 C.ar    1  UNL1        0.0104
     10 C           3.4683   -1.0866   21.9758 C.ar    1  UNL1        0.0163
     11 C           2.7261    0.2029   21.7858 C.3     1  UNL1        0.2026
     12 C          -2.4002    5.5846   17.4903 C.3     1  UNL1        0.0896
     13 N          -1.5334    4.5107   18.0780 N.3     1  UNL1       -0.2714
     14 C          -0.3833    3.8330   17.3938 C.3     1  UNL1        0.0736
     15 C           0.1964    2.8295   18.3460 C.3     1  UNL1        0.0346
     16 C           1.2655    1.7905   18.5116 C.3     1  UNL1        0.0736
     17 N           1.1345    1.2057   19.8867 N.3     1  UNL1       -0.2702
     18 C          -0.0155    1.8834   20.5709 C.3     1  UNL1        0.0736
     19 C          -0.5953    2.8870   19.6187 C.3     1  UNL1        0.0346
     20 C          -1.6643    3.9260   19.4531 C.3     1  UNL1        0.0736
     21 O           2.7112    1.3604   22.7397 O.3     1  UNL1       -0.4734
     22 C           2.0261    1.2292   24.0676 C.ar    1  UNL1        0.1390
     23 C           2.8268    0.9173   25.2972 C.ar    1  UNL1        0.0382
     24 C           2.1418    0.7861   26.6251 C.ar    1  UNL1        0.0215
     25 C           0.6559    0.9667   26.7235 C.ar    1  UNL1        0.1059
     26 C          -0.1448    1.2786   25.4941 C.ar    1  UNL1        0.0215
     27 C           0.5403    1.4098   24.1661 C.ar    1  UNL1        0.0382
     28 S          -0.0292    0.8355   28.0515 S.O2    1  UNL1        0.0105
     29 C          -0.7142    0.7043   29.3794 C.3     1  UNL1        0.1816
     30 O           1.1117    0.0036   28.5578 O.2     1  UNL1       -0.1686
     31 O          -1.1701    1.6675   27.5452 O.2     1  UNL1       -0.1686
@<TRIPOS>BOND
     1    12    13    1
     2    13    14    1
     3    15    14    1
     4    15    16    1
     5    16    17    1
     6     1    17    1
     7     1     2    1
     8     2     3    1
     9     3     4   ar
    10     4     5    1
    11     4     6   ar
    12     6     7   ar
    13     7     8    1
    14     7     9   ar
    15     9    10   ar
    16    10    11    1
    17    11    21    1
    18    21    22    1
    19    22    23   ar
    20    23    24   ar
    21    24    25   ar
    22    25    28    1
    23    28    29    1
    24    28    30    2
    25    28    31    2
    26    25    26   ar
    27    26    27   ar
    28    17    18    1
    29    19    18    1
    30    19    20    1
    31    20    13    1
    32    19    15    1
    33    11     1    1
    34    27    22   ar
    35    10     3   ar
@<TRIPOS>MOLECULE
*****
 31 35 0 0 0
SMALL
GASTEIGER

@<TRIPOS>ATOM
      1 C           6.1101   -1.8302   32.5618 C.3     1  UNL1        0.1066
      2 C           6.5032   -3.2755   32.4823 C.3     1  UNL1        0.0470
      3 C           6.6004   -3.6505   31.0332 C.ar    1  UNL1       -0.0106
      4 C           6.9492   -4.9403   30.3514 C.ar    1  UNL1        0.0544
      5 CL          7.2823   -6.1539   31.1676 Cl      1  UNL1       -0.0826
      6 C           6.9648   -5.0164   28.8535 C.ar    1  UNL1        0.0224
      7 C           6.6316   -3.8027   28.0373 C.ar    1  UNL1        0.0583
      8 CL          6.6473   -3.8789   26.5393 Cl      1  UNL1       -0.0822
      9 C           6.2829   -2.5130   28.7191 C.ar    1  UNL1        0.0104
     10 C           6.2672   -2.4369   30.2171 C.ar    1  UNL1        0.0163
     11 C           5.9642   -1.3119   31.1618 C.3     1  UNL1        0.2026
     12 C           5.0418    2.1740   38.9522 C.3     1  UNL1        0.0896
     13 N           5.2522    1.3854   37.6936 N.3     1  UNL1       -0.2714
     14 C           6.5180    1.3269   36.8910 C.3     1  UNL1        0.0736
     15 C           6.2819    0.4222   35.7182 C.3     1  UNL1        0.0346
     16 C           6.9182   -0.1731   34.4973 C.3     1  UNL1        0.0736
     17 N           5.8997   -1.0416   33.8203 N.3     1  UNL1       -0.2702
     18 C           4.6338   -0.9831   34.6229 C.3     1  UNL1        0.0736
     19 C           4.8700   -0.0784   35.7959 C.3     1  UNL1        0.0346
     20 C           4.2337    0.5169   37.0167 C.3     1  UNL1        0.0736
     21 O           5.5824    0.0860   30.7745 O.3     1  UNL1       -0.4734
     22 C           4.2335    0.3568   30.1771 C.ar    1  UNL1        0.1390
     23 C           4.0189    1.5772   29.3316 C.ar    1  UNL1        0.0382
     24 C           2.6699    1.8481   28.7342 C.ar    1  UNL1        0.0215
     25 C           1.5355    0.8986   28.9821 C.ar    1  UNL1        0.1059
     26 C           1.7500   -0.3218   29.8275 C.ar    1  UNL1        0.0215
     27 C           3.0990   -0.5926   30.4250 C.ar    1  UNL1        0.0382
     28 S           0.1866    1.1695   28.3847 S.O2    1  UNL1        0.0105
     29 C          -1.1624    1.4404   27.7872 C.3     1  UNL1        0.1816
     30 O           0.8425    1.7157   27.1512 O.2     1  UNL1       -0.1686
     31 O          -0.4695    0.6233   29.6181 O.2     1  UNL1       -0.1686
@<TRIPOS>BOND
     1    12    13    1
     2    13    14    1
     3    15    14    1
     4    15    16    1
     5    16    17    1
     6     1    17    1
     7     1     2    1
     8     2     3    1
     9     3     4   ar
    10     4     5    1
    11     4     6   ar
    12     6     7   ar
    13     7     8    1
    14     7     9   ar
    15     9    10   ar
    16    10    11    1
    17    11    21    1
    18    21    22    1
    19    22    23   ar
    20    23    24   ar
    21    24    25   ar
    22    25    28    1
    23    28    29    1
    24    28    30    2
    25    28    31    2
    26    25    26   ar
    27    26    27   ar
    28    17    18    1
    29    19    18    1
    30    19    20    1
    31    20    13    1
    32    19    15    1
    33    11     1    1
    34    27    22   ar
    35    10     3   ar
@<TRIPOS>MOLECULE
*****
 31 35 0 0 0
SMALL
GASTEIGER

@<TRIPOS>ATOM
      1 C           2.8671    0.0317   23.0410 C.3     1  UNL1        0.1066
      2 C           3.3061   -1.3634   22.7080 C.3     1  UNL1        0.0470
      3 C           3.5118   -1.4429   21.2242 C.ar    1  UNL1       -0.0106
      4 C           3.9428   -2.5670   20.3295 C.ar    1  UNL1        0.0544
      5 CL          4.2547   -3.9130   20.9135 Cl      1  UNL1       -0.0826
      6 C           4.0620   -2.3450   18.8509 C.ar    1  UNL1        0.0224
      7 C           3.7501   -0.9990   18.2669 C.ar    1  UNL1        0.0583
      8 CL          3.8693   -0.7771   16.7882 Cl      1  UNL1       -0.0822
      9 C           3.3191    0.1251   19.1616 C.ar    1  UNL1        0.0104
     10 C           3.2000   -0.0969   20.6403 C.ar    1  UNL1        0.0163
     11 C           2.8015    0.8145   21.7631 C.3     1  UNL1        0.2026
     12 C           1.2542    2.6766   29.9991 C.3     1  UNL1        0.0896
     13 N           1.5718    2.1557   28.6287 N.3     1  UNL1       -0.2714
     14 C           2.9047    1.6466   28.1661 C.3     1  UNL1        0.0736
     15 C           2.7690    1.2287   26.7320 C.3     1  UNL1        0.0346
     16 C           3.5089    0.6558   25.5597 C.3     1  UNL1        0.0736
     17 N           2.5494    0.5526   24.4113 N.3     1  UNL1       -0.2702
     18 C           1.2165    1.0617   24.8740 C.3     1  UNL1        0.0736
     19 C           1.3522    1.4796   26.3082 C.3     1  UNL1        0.0346
     20 C           0.6123    2.0524   27.4804 C.3     1  UNL1        0.0736
     21 O           2.4067    2.2556   21.6312 O.3     1  UNL1       -0.4734
     22 C           1.0201    2.6158   21.1871 C.ar    1  UNL1        0.1390
     23 C           0.7219    2.7914   19.7275 C.ar    1  UNL1        0.0382
     24 C          -0.6648    3.1516   19.2833 C.ar    1  UNL1        0.0215
     25 C          -1.7534    3.3362   20.2987 C.ar    1  UNL1        0.1059
     26 C          -1.4552    3.1606   21.7582 C.ar    1  UNL1        0.0215
     27 C          -0.0685    2.8003   22.2024 C.ar    1  UNL1        0.0382
     28 S          -3.1400    3.6964   19.8545 S.O2    1  UNL1        0.0105
     29 C          -4.5267    4.0566   19.4103 C.3     1  UNL1        0.1816
     30 O          -2.5682    4.5881   18.7925 O.2     1  UNL1       -0.1686
     31 O          -3.7120    2.8047   20.9165 O.2     1  UNL1       -0.1686
@<TRIPOS>BOND
     1    12    13    1
     2    13    14    1
     3    15    14    1
     4    15    16    1
     5    16    17    1
     6     1    17    1
     7     1     2    1
     8     2     3    1
     9     3     4   ar
    10     4     5    1
    11     4     6   ar
    12     6     7   ar
    13     7     8    1
    14     7     9   ar
    15     9    10   ar
    16    10    11    1
    17    11    21    1
    18    21    22    1
    19    22    23   ar
    20    23    24   ar
    21    24    25   ar
    22    25    28    1
    23    28    29    1
    24    28    30    2
    25    28    31    2
    26    25    26   ar
    27    26    27   ar
    28    17    18    1
    29    19    18    1
    30    19    20    1
    31    20    13    1
    32    19    15    1
    33    11     1    1
    34    27    22   ar
    35    10     3   ar
@<TRIPOS>MOLECULE
*****
 31 35 0 0 0
SMALL
GASTEIGER

@<TRIPOS>ATOM
      1 C           6.6580   -4.0988   25.4169 C.3     1  UNL1        0.1066
      2 C           7.0650   -5.4633   25.8887 C.3     1  UNL1        0.0470
      3 C           7.4341   -5.3613   27.3391 C.ar    1  UNL1       -0.0106
      4 C           7.9099   -6.3838   28.3279 C.ar    1  UNL1        0.0544
      5 CL          8.0888   -7.8114   27.9034 Cl      1  UNL1       -0.0826
      6 C           8.2069   -5.9789   29.7413 C.ar    1  UNL1        0.0224
      7 C           8.0281   -4.5514   30.1659 C.ar    1  UNL1        0.0583
      8 CL          8.3251   -4.1464   31.5793 Cl      1  UNL1       -0.0822
      9 C           7.5522   -3.5288   29.1770 C.ar    1  UNL1        0.0104
     10 C           7.2552   -3.9338   27.7636 C.ar    1  UNL1        0.0163
     11 C           6.7756   -3.1536   26.5756 C.3     1  UNL1        0.2026
     12 C           4.3923   -2.2883   18.3742 C.3     1  UNL1        0.0896
     13 N           4.8385   -2.6449   19.7612 N.3     1  UNL1       -0.2714
     14 C           4.1316   -2.2858   21.0345 C.3     1  UNL1        0.0736
     15 C           4.9261   -2.8421   22.1786 C.3     1  UNL1        0.0346
     16 C           4.9803   -2.9640   23.6726 C.3     1  UNL1        0.0736
     17 N           6.2118   -3.7423   24.0299 N.3     1  UNL1       -0.2702
     18 C           6.9188   -4.1014   22.7566 C.3     1  UNL1        0.0736
     19 C           6.1242   -3.5450   21.6124 C.3     1  UNL1        0.0346
     20 C           6.0701   -3.4232   20.1185 C.3     1  UNL1        0.0736
     21 O           6.4676   -1.6857   26.5508 O.3     1  UNL1       -0.4734
     22 C           5.1672   -1.1827   27.1038 C.ar    1  UNL1        0.1390
     23 C           4.1396   -0.5920   26.1845 C.ar    1  UNL1        0.0382
     24 C           2.8392   -0.0890   26.7374 C.ar    1  UNL1        0.0215
     25 C           2.5663   -0.1767   28.2098 C.ar    1  UNL1        0.1059
     26 C           3.5939   -0.7673   29.1291 C.ar    1  UNL1        0.0215
     27 C           4.8943   -1.2704   28.5762 C.ar    1  UNL1        0.0382
     28 S           1.2659    0.3264   28.7628 S.O2    1  UNL1        0.0105
     29 C          -0.0346    0.8294   29.3158 C.3     1  UNL1        0.1816
     30 O           1.0189    1.0845   27.4923 O.2     1  UNL1       -0.1686
     31 O           1.5128   -0.4318   30.0334 O.2     1  UNL1       -0.1686
@<TRIPOS>BOND
     1    12    13    1
     2    13    14    1
     3    15    14    1
     4    15    16    1
     5    16    17    1
     6     1    17    1
     7     1     2    1
     8     2     3    1
     9     3     4   ar
    10     4     5    1
    11     4     6   ar
    12     6     7   ar
    13     7     8    1
    14     7     9   ar
    15     9    10   ar
    16    10    11    1
    17    11    21    1
    18    21    22    1
    19    22    23   ar
    20    23    24   ar
    21    24    25   ar
    22    25    28    1
    23    28    29    1
    24    28    30    2
    25    28    31    2
    26    25    26   ar
    27    26    27   ar
    28    17    18    1
    29    19    18    1
    30    19    20    1
    31    20    13    1
    32    19    15    1
    33    11     1    1
    34    27    22   ar
    35    10     3   ar
@<TRIPOS>MOLECULE
*****
 31 35 0 0 0
SMALL
GASTEIGER

@<TRIPOS>ATOM
      1 C           4.3643   -1.4409   26.3402 C.3     1  UNL1        0.1066
      2 C           3.2800   -0.9456   27.2507 C.3     1  UNL1        0.0470
      3 C           3.8321   -0.8947   28.6444 C.ar    1  UNL1       -0.0106
      4 C           3.2210   -0.4859   29.9518 C.ar    1  UNL1        0.0544
      5 CL          1.7953   -0.0220   30.0008 Cl      1  UNL1       -0.0826
      6 C           4.0354   -0.5409   31.2102 C.ar    1  UNL1        0.0224
      7 C           5.4611   -1.0048   31.1612 C.ar    1  UNL1        0.0583
      8 CL          6.2756   -1.0598   32.4196 Cl      1  UNL1       -0.0822
      9 C           6.0722   -1.4136   29.8538 C.ar    1  UNL1        0.0104
     10 C           5.2578   -1.3585   28.5954 C.ar    1  UNL1        0.0163
     11 C           5.5866   -1.6961   27.1714 C.3     1  UNL1        0.2026
     12 C           3.7683   -2.4780   18.8183 C.3     1  UNL1        0.0896
     13 N           3.8857   -2.2738   20.2996 N.3     1  UNL1       -0.2714
     14 C           3.1702   -1.2302   21.1052 C.3     1  UNL1        0.0736
     15 C           3.5814   -1.3887   22.5389 C.3     1  UNL1        0.0346
     16 C           3.3934   -0.8417   23.9229 C.3     1  UNL1        0.0736
     17 N           4.2469   -1.6452   24.8589 N.3     1  UNL1       -0.2702
     18 C           4.9624   -2.6888   24.0533 C.3     1  UNL1        0.0736
     19 C           4.5511   -2.5303   22.6195 C.3     1  UNL1        0.0346
     20 C           4.7391   -3.0773   21.2356 C.3     1  UNL1        0.0736
     21 O           6.9062   -2.2004   26.6670 O.3     1  UNL1       -0.4734
     22 C           7.2777   -3.6421   26.8497 C.ar    1  UNL1        0.1390
     23 C           8.6376   -4.1241   26.4390 C.ar    1  UNL1        0.0382
     24 C           9.0092   -5.5658   26.6218 C.ar    1  UNL1        0.0215
     25 C           8.0208   -6.5256   27.2152 C.ar    1  UNL1        0.1059
     26 C           6.6611   -6.0436   27.6259 C.ar    1  UNL1        0.0215
     27 C           6.2895   -4.6019   27.4432 C.ar    1  UNL1        0.0382
     28 S           8.3924   -7.9673   27.3979 S.O2    1  UNL1        0.0105
     29 C           8.7640   -9.4090   27.5806 C.3     1  UNL1        0.1816
     30 O           9.3602   -7.5811   28.4770 O.2     1  UNL1       -0.1686
     31 O           7.4247   -8.3535   26.3188 O.2     1  UNL1       -0.1686
@<TRIPOS>BOND
     1    12    13    1
     2    13    14    1
     3    15    14    1
     4    15    16    1
     5    16    17    1
     6     1    17    1
     7     1     2    1
     8     2     3    1
     9     3     4   ar
    10     4     5    1
    11     4     6   ar
    12     6     7   ar
    13     7     8    1
    14     7     9   ar
    15     9    10   ar
    16    10    11    1
    17    11    21    1
    18    21    22    1
    19    22    23   ar
    20    23    24   ar
    21    24    25   ar
    22    25    28    1
    23    28    29    1
    24    28    30    2
    25    28    31    2
    26    25    26   ar
    27    26    27   ar
    28    17    18    1
    29    19    18    1
    30    19    20    1
    31    20    13    1
    32    19    15    1
    33    11     1    1
    34    27    22   ar
    35    10     3   ar
@<TRIPOS>MOLECULE
*****
 31 35 0 0 0
SMALL
GASTEIGER

@<TRIPOS>ATOM
      1 C           1.0327    1.9143   24.0069 C.3     1  UNL1        0.1066
      2 C           0.0077    1.8923   25.1019 C.3     1  UNL1        0.0470
      3 C           0.6183    1.2188   26.2950 C.ar    1  UNL1       -0.0106
      4 C           0.0786    0.9136   27.6608 C.ar    1  UNL1        0.0544
      5 CL         -1.3237    1.3080   28.0184 Cl      1  UNL1       -0.0826
      6 C           0.9412    0.2140   28.6690 C.ar    1  UNL1        0.0224
      7 C           2.3435   -0.1804   28.3113 C.ar    1  UNL1        0.0583
      8 CL          3.2061   -0.8800   29.3196 Cl      1  UNL1       -0.0822
      9 C           2.8833    0.1248   26.9455 C.ar    1  UNL1        0.0104
     10 C           2.0207    0.8243   25.9373 C.ar    1  UNL1        0.0163
     11 C           2.2767    1.2542   24.5232 C.3     1  UNL1        0.2026
     12 C           0.0862    4.8598   17.0471 C.3     1  UNL1        0.0896
     13 N           0.2726    4.2797   18.4178 N.3     1  UNL1       -0.2714
     14 C          -0.2532    2.9584   18.8949 C.3     1  UNL1        0.0736
     15 C           0.1667    2.7812   20.3239 C.3     1  UNL1        0.0346
     16 C           0.1013    1.8550   21.5020 C.3     1  UNL1        0.0736
     17 N           0.8463    2.4944   22.6362 N.3     1  UNL1       -0.2702
     18 C           1.3720    3.8157   22.1590 C.3     1  UNL1        0.0736
     19 C           0.9521    3.9929   20.7300 C.3     1  UNL1        0.0346
     20 C           1.0175    4.9191   19.5519 C.3     1  UNL1        0.0736
     21 O           3.5528    1.0583   23.7596 O.3     1  UNL1       -0.4734
     22 C           3.6986   -0.1094   22.8295 C.ar    1  UNL1        0.1390
     23 C           4.1129   -1.4478   23.3652 C.ar    1  UNL1        0.0382
     24 C           4.2588   -2.6156   22.4352 C.ar    1  UNL1        0.0215
     25 C           3.9903   -2.4449   20.9693 C.ar    1  UNL1        0.1059
     26 C           3.5761   -1.1065   20.4335 C.ar    1  UNL1        0.0215
     27 C           3.4302    0.0612   21.3636 C.ar    1  UNL1        0.0382
     28 S           4.1362   -3.6127   20.0392 S.O2    1  UNL1        0.0105
     29 C           4.2820   -4.7805   19.1091 C.3     1  UNL1        0.1816
     30 O           3.6417   -2.7687   18.9020 O.2     1  UNL1       -0.1686
     31 O           4.6307   -4.4567   21.1764 O.2     1  UNL1       -0.1686
@<TRIPOS>BOND
     1    12    13    1
     2    13    14    1
     3    15    14    1
     4    15    16    1
     5    16    17    1
     6     1    17    1
     7     1     2    1
     8     2     3    1
     9     3     4   ar
    10     4     5    1
    11     4     6   ar
    12     6     7   ar
    13     7     8    1
    14     7     9   ar
    15     9    10   ar
    16    10    11    1
    17    11    21    1
    18    21    22    1
    19    22    23   ar
    20    23    24   ar
    21    24    25   ar
    22    25    28    1
    23    28    29    1
    24    28    30    2
    25    28    31    2
    26    25    26   ar
    27    26    27   ar
    28    17    18    1
    29    19    18    1
    30    19    20    1
    31    20    13    1
    32    19    15    1
    33    11     1    1
    34    27    22   ar
    35    10     3   ar
@<TRIPOS>MOLECULE
*****
 31 35 0 0 0
SMALL
GASTEIGER

@<TRIPOS>ATOM
      1 C           0.4396    2.6186   22.2218 C.3     1  UNL1        0.1066
      2 C           0.0371    3.9765   22.7158 C.3     1  UNL1        0.0470
      3 C          -1.1374    4.4359   21.9036 C.ar    1  UNL1       -0.0106
      4 C          -1.9541    5.6934   21.9423 C.ar    1  UNL1        0.0544
      5 CL         -1.6307    6.7675   22.9382 Cl      1  UNL1       -0.0826
      6 C          -3.0943    5.8769   20.9851 C.ar    1  UNL1        0.0224
      7 C          -3.4177    4.8028   19.9892 C.ar    1  UNL1        0.0583
      8 CL         -4.5579    4.9864   19.0319 Cl      1  UNL1       -0.0822
      9 C          -2.6009    3.5453   19.9505 C.ar    1  UNL1        0.0104
     10 C          -1.4608    3.3619   20.9077 C.ar    1  UNL1        0.0163
     11 C          -0.4861    2.2387   21.1044 C.3     1  UNL1        0.2026
     12 C           6.1766   -1.6059   24.9148 C.3     1  UNL1        0.0896
     13 N           5.0468   -0.7739   24.3844 N.3     1  UNL1       -0.2714
     14 C           5.1504    0.2783   23.3204 C.3     1  UNL1        0.0736
     15 C           3.7827    0.8544   23.1034 C.3     1  UNL1        0.0346
     16 C           3.0014    1.8608   22.3117 C.3     1  UNL1        0.0736
     17 N           1.5695    1.7866   22.7522 N.3     1  UNL1       -0.2702
     18 C           1.4658    0.7344   23.8161 C.3     1  UNL1        0.0736
     19 C           2.8336    0.1583   24.0332 C.3     1  UNL1        0.0346
     20 C           3.6148   -0.8481   24.8249 C.3     1  UNL1        0.0736
     21 O          -0.4446    0.9602   20.3211 O.3     1  UNL1       -0.4734
     22 C           0.8644    0.4364   19.8091 C.ar    1  UNL1        0.1390
     23 C           1.4230   -0.8457   20.3515 C.ar    1  UNL1        0.0382
     24 C           2.7320   -1.3695   19.8395 C.ar    1  UNL1        0.0215
     25 C           3.4824   -0.6111   18.7850 C.ar    1  UNL1        0.1059
     26 C           2.9238    0.6709   18.2426 C.ar    1  UNL1        0.0215
     27 C           1.6148    1.1947   18.7546 C.ar    1  UNL1        0.0382
     28 S           4.7914   -1.1349   18.2730 S.O2    1  UNL1        0.0105
     29 C           6.1004   -1.6587   17.7610 C.3     1  UNL1        0.1816
     30 O           4.2245   -1.1956   16.8856 O.2     1  UNL1       -0.1686
     31 O           5.3584   -1.0743   19.6605 O.2     1  UNL1       -0.1686
@<TRIPOS>BOND
     1    12    13    1
     2    13    14    1
     3    15    14    1
     4    15    16    1
     5    16    17    1
     6     1    17    1
     7     1     2    1
     8     2     3    1
     9     3     4   ar
    10     4     5    1
    11     4     6   ar
    12     6     7   ar
    13     7     8    1
    14     7     9   ar
    15     9    10   ar
    16    10    11    1
    17    11    21    1
    18    21    22    1
    19    22    23   ar
    20    23    24   ar
    21    24    25   ar
    22    25    28    1
    23    28    29    1
    24    28    30    2
    25    28    31    2
    26    25    26   ar
    27    26    27   ar
    28    17    18    1
    29    19    18    1
    30    19    20    1
    31    20    13    1
    32    19    15    1
    33    11     1    1
    34    27    22   ar
    35    10     3   ar
@<TRIPOS>MOLECULE
*****
 31 35 0 0 0
SMALL
GASTEIGER

@<TRIPOS>ATOM
      1 C           5.4976   -1.2964   32.7953 C.3     1  UNL1        0.1066
      2 C           5.9032   -2.7403   32.8206 C.3     1  UNL1        0.0470
      3 C           6.2553   -3.1476   31.4206 C.ar    1  UNL1       -0.0106
      4 C           6.7228   -4.4499   30.8417 C.ar    1  UNL1        0.0544
      5 CL          6.9108   -5.6421   31.7323 Cl      1  UNL1       -0.0826
      6 C           7.0022   -4.5601   29.3721 C.ar    1  UNL1        0.0224
      7 C           6.8141   -3.3679   28.4814 C.ar    1  UNL1        0.0583
      8 CL          7.0936   -3.4782   27.0117 Cl      1  UNL1       -0.0822
      9 C           6.3466   -2.0655   29.0603 C.ar    1  UNL1        0.0104
     10 C           6.0672   -1.9554   30.5299 C.ar    1  UNL1        0.0163
     11 C           5.5989   -0.8113   31.3795 C.3     1  UNL1        0.2026
     12 C           3.3078    2.8448   38.8008 C.3     1  UNL1        0.0896
     13 N           3.7391    2.0292   37.6181 N.3     1  UNL1       -0.2714
     14 C           4.8239    0.9933   37.6098 C.3     1  UNL1        0.0736
     15 C           4.9165    0.4303   36.2226 C.3     1  UNL1        0.0346
     16 C           5.6441   -0.5580   35.3601 C.3     1  UNL1        0.0736
     17 N           5.0663   -0.4808   33.9780 N.3     1  UNL1       -0.2702
     18 C           3.9815    0.5551   33.9864 C.3     1  UNL1        0.0736
     19 C           3.8889    1.1182   35.3736 C.3     1  UNL1        0.0346
     20 C           3.1612    2.1063   36.2360 C.3     1  UNL1        0.0736
     21 O           5.2868    0.5746   30.8979 O.3     1  UNL1       -0.4734
     22 C           4.0061    0.8432   30.1648 C.ar    1  UNL1        0.1390
     23 C           3.9810    1.8308   29.0360 C.ar    1  UNL1        0.0382
     24 C           2.7003    2.0994   28.3028 C.ar    1  UNL1        0.0215
     25 C           1.4446    1.3805   28.6984 C.ar    1  UNL1        0.1059
     26 C           1.4697    0.3929   29.8271 C.ar    1  UNL1        0.0215
     27 C           2.7504    0.1242   30.5603 C.ar    1  UNL1        0.0382
     28 S           0.1639    1.6491   27.9652 S.O2    1  UNL1        0.0105
     29 C          -1.1168    1.9178   27.2320 C.3     1  UNL1        0.1816
     30 O          -0.5655    0.7348   28.9043 O.2     1  UNL1       -0.1686
     31 O           0.8933    2.5635   27.0260 O.2     1  UNL1       -0.1686
@<TRIPOS>BOND
     1    12    13    1
     2    13    14    1
     3    15    14    1
     4    15    16    1
     5    16    17    1
     6     1    17    1
     7     1     2    1
     8     2     3    1
     9     3     4   ar
    10     4     5    1
    11     4     6   ar
    12     6     7   ar
    13     7     8    1
    14     7     9   ar
    15     9    10   ar
    16    10    11    1
    17    11    21    1
    18    21    22    1
    19    22    23   ar
    20    23    24   ar
    21    24    25   ar
    22    25    28    1
    23    28    29    1
    24    28    30    2
    25    28    31    2
    26    25    26   ar
    27    26    27   ar
    28    17    18    1
    29    19    18    1
    30    19    20    1
    31    20    13    1
    32    19    15    1
    33    11     1    1
    34    27    22   ar
    35    10     3   ar
