@<TRIPOS>MOLECULE
*****
 30 33 0 0 0
SMALL
GASTEIGER

@<TRIPOS>ATOM
      1 C         -10.8940  -19.2401   23.8757 C.3     1  UNL1        0.0898
      2 N         -11.5156  -18.8362   23.5825 N.3     1  UNL1       -0.2701
      3 C         -12.5463  -18.5502   24.6341 C.3     1  UNL1        0.0627
      4 C         -13.6686  -17.7922   23.9892 C.3     1  UNL1        0.0181
      5 C         -13.3315  -17.6097   22.5390 C.3     1  UNL1        0.0219
      6 C         -12.0009  -18.2550   22.2877 C.3     1  UNL1        0.0805
      7 C         -10.6729  -18.9719   22.3291 C.ar    1  UNL1        0.0004
      8 C         -10.3200  -19.4988   23.6886 C.ar    1  UNL1        0.0073
      9 S          -8.9886  -20.1824   23.5894 S.2     1  UNL1       -0.0766
     10 C          -8.5186  -20.0781   22.1688 C.ar    1  UNL1        0.0857
     11 C          -9.5595  -19.3299   21.3899 C.ar    1  UNL1        0.0703
     12 C         -11.2567  -19.2879   24.8410 C.3     1  UNL1        0.0486
     13 N          -7.2332  -20.6257   21.6229 N.am    1  UNL1       -0.2629
     14 C          -6.0539  -19.7193   21.4294 C.2     1  UNL1        0.3085
     15 O          -6.1598  -18.2651   21.7819 O.2     1  UNL1       -0.2521
     16 N          -4.7686  -20.2670   20.8836 N.am    1  UNL1       -0.2680
     17 H          -7.1636  -21.5801   21.3915 H       1  UNL1        0.1569
     18 H          -4.6990  -21.2214   20.6522 H       1  UNL1        0.1564
     19 C          -3.5891  -19.3605   20.6901 C.ar    1  UNL1        0.0516
     20 C          -2.6983  -19.0307   21.8510 C.ar    1  UNL1        0.0156
     21 C          -1.5190  -18.1243   21.6575 C.ar    1  UNL1        0.0127
     22 C          -1.2304  -17.5477   20.3031 C.ar    1  UNL1        0.0578
     23 CL         -0.0510  -16.6412   20.1097 Cl      1  UNL1       -0.0822
     24 C          -2.1213  -17.8775   19.1423 C.ar    1  UNL1        0.0127
     25 C          -3.3006  -18.7839   19.3358 C.ar    1  UNL1        0.0156
     26 C          -9.4980  -18.9980   19.9284 C.2     1  UNL1        0.2442
     27 N         -10.3026  -17.8550   19.3843 N.am    1  UNL1       -0.3253
     28 O          -8.6317  -19.8092   19.0110 O.2     1  UNL1       -0.2703
     29 H         -10.8712  -17.3226   19.9864 H       1  UNL1        0.1453
     30 H         -10.2622  -17.6372   18.4250 H       1  UNL1        0.1453
@<TRIPOS>BOND
     1     1     2    1
     2     2     3    1
     3     3     4    1
     4     4     5    1
     5     6     5    1
     6     6     7    1
     7     7     8   ar
     8     8     9   ar
     9     9    10   ar
    10    10    13    1
    11    13    14   am
    12    14    15    2
    13    14    16   am
    14    16    19    1
    15    19    20   ar
    16    20    21   ar
    17    21    22   ar
    18    22    23    1
    19    22    24   ar
    20    24    25   ar
    21    10    11   ar
    22    11    26    1
    23    26    27   am
    24    26    28    2
    25     8    12    1
    26     6     2    1
    27    11     7   ar
    28    12     3    1
    29    25    19   ar
    30    13    17    1
    31    16    18    1
    32    27    29    1
    33    27    30    1
@<TRIPOS>MOLECULE
*****
 30 33 0 0 0
SMALL
GASTEIGER

@<TRIPOS>ATOM
      1 C         -10.9565  -17.9805   24.1348 C.3     1  UNL1        0.0898
      2 N         -11.5375  -17.8302   23.6102 N.3     1  UNL1       -0.2701
      3 C         -12.8011  -18.5657   23.9453 C.3     1  UNL1        0.0627
      4 C         -13.8277  -18.2204   22.9075 C.3     1  UNL1        0.0181
      5 C         -13.1985  -17.2715   21.9309 C.3     1  UNL1        0.0219
      6 C         -11.7831  -17.0304   22.3652 C.3     1  UNL1        0.0805
      7 C         -10.4276  -16.9769   23.0278 C.ar    1  UNL1        0.0004
      8 C         -10.3306  -17.8261   24.2605 C.ar    1  UNL1        0.0073
      9 S          -8.9441  -17.6823   24.8144 S.2     1  UNL1       -0.0766
     10 C          -8.1842  -16.7443   23.9241 C.ar    1  UNL1        0.0857
     11 C          -9.1010  -16.3083   22.8199 C.ar    1  UNL1        0.0703
     12 C         -11.5174  -18.6205   24.7192 C.3     1  UNL1        0.0486
     13 N          -6.7577  -16.3172   24.1061 N.am    1  UNL1       -0.2629
     14 C          -5.6903  -16.8644   23.2055 C.2     1  UNL1        0.3085
     15 O          -6.0492  -17.8387   22.1229 O.2     1  UNL1       -0.2521
     16 N          -4.2640  -16.4374   23.3876 N.am    1  UNL1       -0.2680
     17 H          -6.5222  -15.6778   24.8167 H       1  UNL1        0.1569
     18 H          -4.0285  -15.7979   24.0981 H       1  UNL1        0.1564
     19 C          -3.1965  -16.9846   22.4869 C.ar    1  UNL1        0.0516
     20 C          -2.2850  -16.0489   21.7497 C.ar    1  UNL1        0.0156
     21 C          -1.2175  -16.5961   20.8491 C.ar    1  UNL1        0.0127
     22 C          -1.0615  -18.0790   20.6858 C.ar    1  UNL1        0.0578
     23 CL          0.0060  -18.6262   19.7852 Cl      1  UNL1       -0.0822
     24 C          -1.9730  -19.0147   21.4231 C.ar    1  UNL1        0.0127
     25 C          -3.0405  -18.4675   22.3236 C.ar    1  UNL1        0.0156
     26 C          -8.7525  -15.3688   21.7038 C.2     1  UNL1        0.2442
     27 N          -9.7771  -15.0283   20.6625 N.am    1  UNL1       -0.3253
     28 O          -7.3794  -14.7696   21.6290 O.2     1  UNL1       -0.2703
     29 H         -10.6783  -15.4215   20.7116 H       1  UNL1        0.1453
     30 H          -9.5484  -14.4116   19.9299 H       1  UNL1        0.1453
@<TRIPOS>BOND
     1     1     2    1
     2     2     3    1
     3     3     4    1
     4     4     5    1
     5     6     5    1
     6     6     7    1
     7     7     8   ar
     8     8     9   ar
     9     9    10   ar
    10    10    13    1
    11    13    14   am
    12    14    15    2
    13    14    16   am
    14    16    19    1
    15    19    20   ar
    16    20    21   ar
    17    21    22   ar
    18    22    23    1
    19    22    24   ar
    20    24    25   ar
    21    10    11   ar
    22    11    26    1
    23    26    27   am
    24    26    28    2
    25     8    12    1
    26     6     2    1
    27    11     7   ar
    28    12     3    1
    29    25    19   ar
    30    13    17    1
    31    16    18    1
    32    27    29    1
    33    27    30    1
@<TRIPOS>MOLECULE
*****
 30 33 0 0 0
SMALL
GASTEIGER

@<TRIPOS>ATOM
      1 C         -11.2216   -3.1070   17.5856 C.3     1  UNL1        0.0898
      2 N         -11.3781   -2.3280   17.6495 N.3     1  UNL1       -0.2701
      3 C         -10.4663   -1.4997   16.7936 C.3     1  UNL1        0.0627
      4 C         -10.8369   -0.0584   16.9813 C.3     1  UNL1        0.0181
      5 C         -11.9778    0.0042   17.9531 C.3     1  UNL1        0.0219
      6 C         -12.3122   -1.3986   18.3661 C.3     1  UNL1        0.0805
      7 C         -12.4234   -2.8866   18.5954 C.ar    1  UNL1        0.0004
      8 C         -11.4259   -3.6884   17.8129 C.ar    1  UNL1        0.0073
      9 S         -11.6445   -5.1379   18.1309 S.2     1  UNL1       -0.0766
     10 C         -12.7772   -5.2320   19.1098 C.ar    1  UNL1        0.0857
     11 C         -13.2585   -3.8407   19.3969 C.ar    1  UNL1        0.0703
     12 C         -10.4474   -2.9949   16.9121 C.3     1  UNL1        0.0486
     13 N         -13.3311   -6.4957   19.6983 N.am    1  UNL1       -0.2629
     14 C         -14.6469   -7.0327   19.2184 C.2     1  UNL1        0.3085
     15 O         -15.4087   -6.3060   18.1499 O.2     1  UNL1       -0.2521
     16 N         -15.2008   -8.2963   19.8069 N.am    1  UNL1       -0.2680
     17 H         -12.8311   -6.9726   20.3996 H       1  UNL1        0.1569
     18 H         -14.7008   -8.7732   20.5082 H       1  UNL1        0.1564
     19 C         -16.5166   -8.8333   19.3270 C.ar    1  UNL1        0.0516
     20 C         -17.7976   -8.2939   19.8911 C.ar    1  UNL1        0.0156
     21 C         -19.1133   -8.8310   19.4111 C.ar    1  UNL1        0.0127
     22 C         -19.1481   -9.9074   18.3671 C.ar    1  UNL1        0.0578
     23 CL        -20.4639  -10.4445   17.8871 Cl      1  UNL1       -0.0822
     24 C         -17.8672  -10.4468   17.8029 C.ar    1  UNL1        0.0127
     25 C         -16.5514   -9.9098   18.2829 C.ar    1  UNL1        0.0156
     26 C         -14.3784   -3.4686   20.3229 C.2     1  UNL1        0.2442
     27 N         -14.0877   -3.1401   21.7573 N.am    1  UNL1       -0.3253
     28 O         -15.7889   -3.4251   19.8145 O.2     1  UNL1       -0.2703
     29 H         -13.1619   -3.1686   22.0910 H       1  UNL1        0.1453
     30 H         -14.8227   -2.8959   22.3651 H       1  UNL1        0.1453
@<TRIPOS>BOND
     1     1     2    1
     2     2     3    1
     3     3     4    1
     4     4     5    1
     5     6     5    1
     6     6     7    1
     7     7     8   ar
     8     8     9   ar
     9     9    10   ar
    10    10    13    1
    11    13    14   am
    12    14    15    2
    13    14    16   am
    14    16    19    1
    15    19    20   ar
    16    20    21   ar
    17    21    22   ar
    18    22    23    1
    19    22    24   ar
    20    24    25   ar
    21    10    11   ar
    22    11    26    1
    23    26    27   am
    24    26    28    2
    25     8    12    1
    26     6     2    1
    27    11     7   ar
    28    12     3    1
    29    25    19   ar
    30    13    17    1
    31    16    18    1
    32    27    29    1
    33    27    30    1
@<TRIPOS>MOLECULE
*****
 30 33 0 0 0
SMALL
GASTEIGER

@<TRIPOS>ATOM
      1 C           4.6177   -1.7276   20.9477 C.3     1  UNL1        0.0898
      2 N           4.3759   -2.3171   20.4688 N.3     1  UNL1       -0.2701
      3 C           5.3588   -3.4496   20.4315 C.3     1  UNL1        0.0627
      4 C           4.8182   -4.5024   19.5099 C.3     1  UNL1        0.0181
      5 C           3.5011   -4.0207   18.9777 C.3     1  UNL1        0.0219
      6 C           3.2278   -2.6701   19.5703 C.3     1  UNL1        0.0805
      7 C           3.2181   -1.3516   20.3056 C.ar    1  UNL1        0.0004
      8 C           4.4290   -1.1370   21.1646 C.ar    1  UNL1        0.0073
      9 S           4.2926    0.1991   21.8326 S.2     1  UNL1       -0.0766
     10 C           2.9975    0.8103   21.3865 C.ar    1  UNL1        0.0857
     11 C           2.3334   -0.1480   20.4428 C.ar    1  UNL1        0.0703
     12 C           5.4993   -2.1860   21.2275 C.3     1  UNL1        0.0486
     13 N           2.4606    2.1455   21.8098 N.am    1  UNL1       -0.2629
     14 C           1.2742    2.2211   22.7244 C.2     1  UNL1        0.3085
     15 O           0.6245    0.9616   23.2157 O.2     1  UNL1       -0.2521
     16 N           0.7374    3.5563   23.1476 N.am    1  UNL1       -0.2680
     17 H           2.8871    2.9722   21.4873 H       1  UNL1        0.1569
     18 H           1.1639    4.3830   22.8251 H       1  UNL1        0.1564
     19 C          -0.4491    3.6320   24.0623 C.ar    1  UNL1        0.0516
     20 C          -1.8370    3.6028   23.4942 C.ar    1  UNL1        0.0156
     21 C          -3.0234    3.6784   24.4089 C.ar    1  UNL1        0.0127
     22 C          -2.8219    3.7833   25.8915 C.ar    1  UNL1        0.0578
     23 CL         -4.0085    3.8590   26.8062 Cl      1  UNL1       -0.0822
     24 C          -1.4340    3.8125   26.4596 C.ar    1  UNL1        0.0127
     25 C          -0.2476    3.7369   25.5450 C.ar    1  UNL1        0.0156
     26 C           1.0159    0.0605   19.7566 C.2     1  UNL1        0.2442
     27 N          -0.2636   -0.1333   20.5150 N.am    1  UNL1       -0.3253
     28 O           0.9780    0.4628   18.3121 O.2     1  UNL1       -0.2703
     29 H          -0.2387   -0.3974   21.4631 H       1  UNL1        0.1453
     30 H          -1.1283    0.0035   20.0647 H       1  UNL1        0.1453
@<TRIPOS>BOND
     1     1     2    1
     2     2     3    1
     3     3     4    1
     4     4     5    1
     5     6     5    1
     6     6     7    1
     7     7     8   ar
     8     8     9   ar
     9     9    10   ar
    10    10    13    1
    11    13    14   am
    12    14    15    2
    13    14    16   am
    14    16    19    1
    15    19    20   ar
    16    20    21   ar
    17    21    22   ar
    18    22    23    1
    19    22    24   ar
    20    24    25   ar
    21    10    11   ar
    22    11    26    1
    23    26    27   am
    24    26    28    2
    25     8    12    1
    26     6     2    1
    27    11     7   ar
    28    12     3    1
    29    25    19   ar
    30    13    17    1
    31    16    18    1
    32    27    29    1
    33    27    30    1
@<TRIPOS>MOLECULE
*****
 30 33 0 0 0
SMALL
GASTEIGER

@<TRIPOS>ATOM
      1 C         -11.6943   -4.8072   19.0856 C.3     1  UNL1        0.0898
      2 N         -11.4328   -5.4947   18.7785 N.3     1  UNL1       -0.2701
      3 C          -9.9840   -5.4241   18.3963 C.3     1  UNL1        0.0627
      4 C          -9.5880   -6.7563   17.8321 C.3     1  UNL1        0.0181
      5 C         -10.7920   -7.6503   17.8657 C.3     1  UNL1        0.0219
      6 C         -11.9321   -6.8706   18.4506 C.3     1  UNL1        0.0805
      7 C         -12.8770   -5.8622   19.0585 C.ar    1  UNL1        0.0004
      8 C         -12.2381   -4.5327   19.3315 C.ar    1  UNL1        0.0073
      9 S         -13.2784   -3.6326   19.9293 S.2     1  UNL1       -0.0766
     10 C         -14.5602   -4.4056   20.0259 C.ar    1  UNL1        0.0857
     11 C         -14.3122   -5.7836   19.4877 C.ar    1  UNL1        0.0703
     12 C         -10.7916   -4.3137   19.0003 C.3     1  UNL1        0.0486
     13 N         -15.8617   -3.8910   20.5658 N.am    1  UNL1       -0.2629
     14 C         -16.5131   -2.6943   19.9386 C.2     1  UNL1        0.3085
     15 O         -15.8632   -2.0121   18.7714 O.2     1  UNL1       -0.2521
     16 N         -17.8145   -2.1797   20.4786 N.am    1  UNL1       -0.2680
     17 H         -16.2883   -4.3387   21.3319 H       1  UNL1        0.1569
     18 H         -18.2410   -2.6274   21.2446 H       1  UNL1        0.1564
     19 C         -18.4660   -0.9829   19.8513 C.ar    1  UNL1        0.0516
     20 C         -19.2942   -1.1437   18.6111 C.ar    1  UNL1        0.0156
     21 C         -19.9457    0.0530   17.9840 C.ar    1  UNL1        0.0127
     22 C         -19.7689    1.4106   18.5971 C.ar    1  UNL1        0.0578
     23 CL        -20.4205    2.6074   17.9698 Cl      1  UNL1       -0.0822
     24 C         -18.9408    1.5714   19.8373 C.ar    1  UNL1        0.0127
     25 C         -18.2893    0.3746   20.4644 C.ar    1  UNL1        0.0156
     26 C         -15.3219   -6.8889   19.3949 C.2     1  UNL1        0.2442
     27 N         -14.8698   -8.3191   19.3878 N.am    1  UNL1       -0.3253
     28 O         -16.7838   -6.5640   19.3093 O.2     1  UNL1       -0.2703
     29 H         -13.9103   -8.5324   19.4440 H       1  UNL1        0.1453
     30 H         -15.5326   -9.0446   19.3269 H       1  UNL1        0.1453
@<TRIPOS>BOND
     1     1     2    1
     2     2     3    1
     3     3     4    1
     4     4     5    1
     5     6     5    1
     6     6     7    1
     7     7     8   ar
     8     8     9   ar
     9     9    10   ar
    10    10    13    1
    11    13    14   am
    12    14    15    2
    13    14    16   am
    14    16    19    1
    15    19    20   ar
    16    20    21   ar
    17    21    22   ar
    18    22    23    1
    19    22    24   ar
    20    24    25   ar
    21    10    11   ar
    22    11    26    1
    23    26    27   am
    24    26    28    2
    25     8    12    1
    26     6     2    1
    27    11     7   ar
    28    12     3    1
    29    25    19   ar
    30    13    17    1
    31    16    18    1
    32    27    29    1
    33    27    30    1
@<TRIPOS>MOLECULE
*****
 30 33 0 0 0
SMALL
GASTEIGER

@<TRIPOS>ATOM
      1 C          -3.9075    3.6323   20.3761 C.3     1  UNL1        0.0898
      2 N          -4.4469    3.8381   19.8266 N.3     1  UNL1       -0.2701
      3 C          -5.8350    3.8884   20.3930 C.3     1  UNL1        0.0627
      4 C          -6.7720    4.2817   19.2897 C.3     1  UNL1        0.0181
      5 C          -5.9630    4.4745   18.0413 C.3     1  UNL1        0.0219
      6 C          -4.5261    4.2003   18.3731 C.3     1  UNL1        0.0805
      7 C          -3.1858    3.8713   18.9852 C.ar    1  UNL1        0.0004
      8 C          -3.2624    3.5289   20.4437 C.ar    1  UNL1        0.0073
      9 S          -1.8735    3.2258   20.9221 S.2     1  UNL1       -0.0766
     10 C          -0.9385    3.3808   19.7594 C.ar    1  UNL1        0.0857
     11 C          -1.7496    3.7797   18.5624 C.ar    1  UNL1        0.0703
     12 C          -4.5869    3.5375   21.1475 C.3     1  UNL1        0.0486
     13 N           0.5468    3.1732   19.7887 N.am    1  UNL1       -0.2629
     14 C           1.1188    1.8103   19.5335 C.2     1  UNL1        0.3085
     15 O           0.2056    0.6548   19.2490 O.2     1  UNL1       -0.2521
     16 N           2.6041    1.6027   19.5627 N.am    1  UNL1       -0.2680
     17 H           1.1463    3.9315   19.9753 H       1  UNL1        0.1569
     18 H           3.2035    2.3611   19.7494 H       1  UNL1        0.1564
     19 C           3.1762    0.2398   19.3075 C.ar    1  UNL1        0.0516
     20 C           3.1201   -0.8096   20.3779 C.ar    1  UNL1        0.0156
     21 C           3.6922   -2.1725   20.1227 C.ar    1  UNL1        0.0127
     22 C           4.3203   -2.4861   18.7971 C.ar    1  UNL1        0.0578
     23 CL          4.8923   -3.8491   18.5419 Cl      1  UNL1       -0.0822
     24 C           4.3763   -1.4367   17.7267 C.ar    1  UNL1        0.0127
     25 C           3.8043   -0.0738   17.9819 C.ar    1  UNL1        0.0156
     26 C          -1.2178    4.0412   17.1844 C.2     1  UNL1        0.2442
     27 N          -2.0339    3.6684   15.9823 N.am    1  UNL1       -0.3253
     28 O           0.1300    4.6756   17.0085 O.2     1  UNL1       -0.2703
     29 H          -2.9186    3.2520   16.0978 H       1  UNL1        0.1453
     30 H          -1.6849    3.8400   15.0779 H       1  UNL1        0.1453
@<TRIPOS>BOND
     1     1     2    1
     2     2     3    1
     3     3     4    1
     4     4     5    1
     5     6     5    1
     6     6     7    1
     7     7     8   ar
     8     8     9   ar
     9     9    10   ar
    10    10    13    1
    11    13    14   am
    12    14    15    2
    13    14    16   am
    14    16    19    1
    15    19    20   ar
    16    20    21   ar
    17    21    22   ar
    18    22    23    1
    19    22    24   ar
    20    24    25   ar
    21    10    11   ar
    22    11    26    1
    23    26    27   am
    24    26    28    2
    25     8    12    1
    26     6     2    1
    27    11     7   ar
    28    12     3    1
    29    25    19   ar
    30    13    17    1
    31    16    18    1
    32    27    29    1
    33    27    30    1
@<TRIPOS>MOLECULE
*****
 30 33 0 0 0
SMALL
GASTEIGER

@<TRIPOS>ATOM
      1 C           4.6222   -1.7201   18.4218 C.3     1  UNL1        0.0898
      2 N           4.4827   -2.3872   18.8351 N.3     1  UNL1       -0.2701
      3 C           5.3729   -3.5137   18.4008 C.3     1  UNL1        0.0627
      4 C           5.0367   -4.7168   19.2313 C.3     1  UNL1        0.0181
      5 C           3.9388   -4.3338   20.1788 C.3     1  UNL1        0.0219
      6 C           3.5964   -2.8941   19.9340 C.3     1  UNL1        0.0805
      7 C           3.4679   -1.4610   19.4767 C.ar    1  UNL1        0.0004
      8 C           4.4172   -1.0980   18.3734 C.ar    1  UNL1        0.0073
      9 S           4.1857    0.3407   18.0175 S.2     1  UNL1       -0.0766
     10 C           3.0934    0.8668   18.9008 C.ar    1  UNL1        0.0857
     11 C           2.6498   -0.2467   19.8026 C.ar    1  UNL1        0.0703
     12 C           5.3696   -2.1243   17.8355 C.3     1  UNL1        0.0486
     13 N           2.5416    2.2616   18.8850 N.am    1  UNL1       -0.2629
     14 C           1.1247    2.5027   18.4559 C.2     1  UNL1        0.3085
     15 O           0.2595    1.3492   18.0427 O.2     1  UNL1       -0.2521
     16 N           0.5730    3.8975   18.4401 N.am    1  UNL1       -0.2680
     17 H           3.1095    3.0187   19.1562 H       1  UNL1        0.1569
     18 H           1.1408    4.6546   18.7113 H       1  UNL1        0.1564
     19 C          -0.8440    4.1387   18.0110 C.ar    1  UNL1        0.0516
     20 C          -1.9412    4.1757   19.0332 C.ar    1  UNL1        0.0156
     21 C          -3.3581    4.4170   18.6041 C.ar    1  UNL1        0.0127
     22 C          -3.6778    4.6212   17.1529 C.ar    1  UNL1        0.0578
     23 CL         -5.0948    4.8624   16.7238 Cl      1  UNL1       -0.0822
     24 C          -2.5807    4.5841   16.1307 C.ar    1  UNL1        0.0127
     25 C          -1.1638    4.3429   16.5598 C.ar    1  UNL1        0.0156
     26 C           1.5766   -0.1610   20.8470 C.2     1  UNL1        0.2442
     27 N           0.1501   -0.4466   20.4817 N.am    1  UNL1       -0.3253
     28 O           1.9299    0.2103   22.2567 O.2     1  UNL1       -0.2703
     29 H          -0.0818   -0.6903   19.5565 H       1  UNL1        0.1453
     30 H          -0.5543   -0.3904   21.1672 H       1  UNL1        0.1453
@<TRIPOS>BOND
     1     1     2    1
     2     2     3    1
     3     3     4    1
     4     4     5    1
     5     6     5    1
     6     6     7    1
     7     7     8   ar
     8     8     9   ar
     9     9    10   ar
    10    10    13    1
    11    13    14   am
    12    14    15    2
    13    14    16   am
    14    16    19    1
    15    19    20   ar
    16    20    21   ar
    17    21    22   ar
    18    22    23    1
    19    22    24   ar
    20    24    25   ar
    21    10    11   ar
    22    11    26    1
    23    26    27   am
    24    26    28    2
    25     8    12    1
    26     6     2    1
    27    11     7   ar
    28    12     3    1
    29    25    19   ar
    30    13    17    1
    31    16    18    1
    32    27    29    1
    33    27    30    1
@<TRIPOS>MOLECULE
*****
 30 33 0 0 0
SMALL
GASTEIGER

@<TRIPOS>ATOM
      1 C           3.3700   -0.9268   22.5581 C.3     1  UNL1        0.0898
      2 N           3.6717   -1.5604   22.1800 N.3     1  UNL1       -0.2701
      3 C           4.3128   -2.5286   23.1295 C.3     1  UNL1        0.0627
      4 C           4.8469   -3.6788   22.3284 C.3     1  UNL1        0.0181
      5 C           4.5359   -3.4214   20.8837 C.3     1  UNL1        0.0219
      6 C           3.8096   -2.1122   20.7920 C.3     1  UNL1        0.0805
      7 C           3.1114   -0.7899   21.0002 C.ar    1  UNL1        0.0004
      8 C           3.0495   -0.3663   22.4379 C.ar    1  UNL1        0.0073
      9 S           2.3366    0.9519   22.5024 S.2     1  UNL1       -0.0766
     10 C           1.9581    1.3431   21.1046 C.ar    1  UNL1        0.0857
     11 C           2.4369    0.2666   20.1763 C.ar    1  UNL1        0.0703
     12 C           3.6501   -1.2356   23.5025 C.3     1  UNL1        0.0486
     13 N           1.2287    2.5915   20.7053 N.am    1  UNL1       -0.2629
     14 C          -0.2383    2.5370   20.3970 C.2     1  UNL1        0.3085
     15 O          -0.9759    1.2341   20.4880 O.2     1  UNL1       -0.2521
     16 N          -0.9676    3.7855   19.9978 N.am    1  UNL1       -0.2680
     17 H           1.7128    3.4467   20.6456 H       1  UNL1        0.1569
     18 H          -0.4835    4.6406   19.9380 H       1  UNL1        0.1564
     19 C          -2.4346    3.7310   19.6894 C.ar    1  UNL1        0.0516
     20 C          -3.4197    3.4328   20.7805 C.ar    1  UNL1        0.0156
     21 C          -4.8866    3.3783   20.4722 C.ar    1  UNL1        0.0127
     22 C          -5.3685    3.6221   19.0728 C.ar    1  UNL1        0.0578
     23 CL         -6.8355    3.5677   18.7645 Cl      1  UNL1       -0.0822
     24 C          -4.3833    3.9204   17.9817 C.ar    1  UNL1        0.0127
     25 C          -2.9164    3.9748   18.2900 C.ar    1  UNL1        0.0156
     26 C           2.2705    0.2494   18.6856 C.2     1  UNL1        0.2442
     27 N           3.4333   -0.1008   17.8051 N.am    1  UNL1       -0.3253
     28 O           0.9413    0.5826   18.0755 O.2     1  UNL1       -0.2703
     29 H           4.3057   -0.3195   18.2056 H       1  UNL1        0.1453
     30 H           3.3240   -0.1120   16.8268 H       1  UNL1        0.1453
@<TRIPOS>BOND
     1     1     2    1
     2     2     3    1
     3     3     4    1
     4     4     5    1
     5     6     5    1
     6     6     7    1
     7     7     8   ar
     8     8     9   ar
     9     9    10   ar
    10    10    13    1
    11    13    14   am
    12    14    15    2
    13    14    16   am
    14    16    19    1
    15    19    20   ar
    16    20    21   ar
    17    21    22   ar
    18    22    23    1
    19    22    24   ar
    20    24    25   ar
    21    10    11   ar
    22    11    26    1
    23    26    27   am
    24    26    28    2
    25     8    12    1
    26     6     2    1
    27    11     7   ar
    28    12     3    1
    29    25    19   ar
    30    13    17    1
    31    16    18    1
    32    27    29    1
    33    27    30    1
@<TRIPOS>MOLECULE
*****
 30 33 0 0 0
SMALL
GASTEIGER

@<TRIPOS>ATOM
      1 C          -2.7753    4.4542   17.1584 C.3     1  UNL1        0.0898
      2 N          -3.4752    4.4759   17.5392 N.3     1  UNL1       -0.2701
      3 C          -4.5815    4.9679   16.6537 C.3     1  UNL1        0.0627
      4 C          -5.8494    4.9728   17.4553 C.3     1  UNL1        0.0181
      5 C          -5.5267    4.4839   18.8362 C.3     1  UNL1        0.0219
      6 C          -4.0594    4.1768   18.8880 C.3     1  UNL1        0.0805
      7 C          -2.5846    3.9569   18.6513 C.ar    1  UNL1        0.0004
      8 C          -2.1451    4.2983   17.2583 C.ar    1  UNL1        0.0073
      9 S          -0.6715    4.0362   17.1599 S.2     1  UNL1       -0.0766
     10 C          -0.2002    3.5328   18.4920 C.ar    1  UNL1        0.0857
     11 C          -1.3826    3.4838   19.4138 C.ar    1  UNL1        0.0703
     12 C          -3.1436    4.8038   16.2596 C.3     1  UNL1        0.0486
     13 N           1.2065    3.1462   18.8411 N.am    1  UNL1       -0.2629
     14 C           1.6382    1.7134   18.7377 C.2     1  UNL1        0.3085
     15 O           0.6632    0.6671   18.2853 O.2     1  UNL1       -0.2521
     16 N           3.0448    1.3269   19.0868 N.am    1  UNL1       -0.2680
     17 H           1.8464    3.8329   19.1380 H       1  UNL1        0.1569
     18 H           3.6847    2.0137   19.3837 H       1  UNL1        0.1564
     19 C           3.4766   -0.1059   18.9834 C.ar    1  UNL1        0.0516
     20 C           4.4416   -0.5231   17.9136 C.ar    1  UNL1        0.0156
     21 C           4.8733   -1.9559   17.8102 C.ar    1  UNL1        0.0127
     22 C           4.3400   -2.9715   18.7768 C.ar    1  UNL1        0.0578
     23 CL          4.7717   -4.4043   18.6734 Cl      1  UNL1       -0.0822
     24 C           3.3749   -2.5543   19.8466 C.ar    1  UNL1        0.0127
     25 C           2.9432   -1.1215   19.9499 C.ar    1  UNL1        0.0156
     26 C          -1.3659    3.0397   20.8464 C.2     1  UNL1        0.2442
     27 N          -2.1860    3.7706   21.8678 N.am    1  UNL1       -0.3253
     28 O          -0.5292    1.8646   21.2576 O.2     1  UNL1       -0.2703
     29 H          -2.7352    4.5418   21.5979 H       1  UNL1        0.1453
     30 H          -2.1751    3.4791   22.8081 H       1  UNL1        0.1453
@<TRIPOS>BOND
     1     1     2    1
     2     2     3    1
     3     3     4    1
     4     4     5    1
     5     6     5    1
     6     6     7    1
     7     7     8   ar
     8     8     9   ar
     9     9    10   ar
    10    10    13    1
    11    13    14   am
    12    14    15    2
    13    14    16   am
    14    16    19    1
    15    19    20   ar
    16    20    21   ar
    17    21    22   ar
    18    22    23    1
    19    22    24   ar
    20    24    25   ar
    21    10    11   ar
    22    11    26    1
    23    26    27   am
    24    26    28    2
    25     8    12    1
    26     6     2    1
    27    11     7   ar
    28    12     3    1
    29    25    19   ar
    30    13    17    1
    31    16    18    1
    32    27    29    1
    33    27    30    1
