@<TRIPOS>MOLECULE
*****
 20 21 0 0 0
SMALL
GASTEIGER

@<TRIPOS>ATOM
      1 C         -11.3069  -17.0531   22.8727 C.2     1  UNL1        0.4051
      2 O         -10.2776  -16.4423   23.7768 O.2     1  UNL1       -0.2262
      3 N         -10.8777  -17.9083   21.7175 N.am    1  UNL1       -0.2419
      4 C         -11.7874  -18.5822   20.7334 C.3     1  UNL1        0.1014
      5 C         -10.9352  -19.3301   19.7513 C.3     1  UNL1        0.0459
      6 C          -9.4989  -19.1185   20.1284 C.2     1  UNL1       -0.0144
      7 C          -8.3074  -19.6860   19.4155 C.2     1  UNL1        0.0428
      8 C          -9.4633  -18.2398   21.3436 C.3     1  UNL1        0.1199
      9 C          -6.9238  -19.3862   19.9114 C.1     1  UNL1       -0.0582
     10 C          -5.5402  -19.0864   20.4071 C.1     1  UNL1       -0.0405
     11 C          -4.1566  -18.7865   20.9029 C.ar    1  UNL1        0.1224
     12 C          -3.8912  -18.6957   22.3765 C.ar    1  UNL1        0.0276
     13 C          -2.5076  -18.3959   22.8722 C.ar    1  UNL1        0.0034
     14 C          -1.3895  -18.1869   21.8945 C.ar    1  UNL1        0.0148
     15 C          -1.6548  -18.2777   20.4209 C.ar    1  UNL1        0.0600
     16 C          -0.5367  -18.0687   19.4432 C.3     1  UNL1        0.0521
     17 N          -3.0384  -18.5775   19.9252 N.ar    1  UNL1       -0.2414
     18 O         -12.7654  -16.8088   23.1236 O.3     1  UNL1       -0.4345
     19 C         -14.0766  -18.1967   24.8857 C.3     1  UNL1        0.0513
     20 C         -13.6707  -17.9560   23.4618 C.3     1  UNL1        0.2102
@<TRIPOS>BOND
     1    19    20    1
     2    20    18    1
     3    18     1    1
     4     1     2    2
     5     1     3   am
     6     3     4    1
     7     4     5    1
     8     5     6    1
     9     6     7    2
    10     7     9    1
    11     9    10    3
    12    10    11    1
    13    11    12   ar
    14    12    13   ar
    15    13    14   ar
    16    14    15   ar
    17    15    16    1
    18    15    17   ar
    19     6     8    1
    20     8     3    1
    21    17    11   ar
@<TRIPOS>MOLECULE
*****
 20 21 0 0 0
SMALL
GASTEIGER

@<TRIPOS>ATOM
      1 C         -10.3606  -16.6857   22.4274 C.2     1  UNL1        0.4051
      2 O          -9.9325  -17.4064   21.1835 O.2     1  UNL1       -0.2262
      3 N          -9.3351  -16.2459   23.4299 N.am    1  UNL1       -0.2419
      4 C          -9.6112  -15.5196   24.7130 C.3     1  UNL1        0.1014
      5 C          -8.3002  -15.2800   25.4014 C.3     1  UNL1        0.0459
      6 C          -7.2138  -15.8582   24.5438 C.2     1  UNL1       -0.0144
      7 C          -5.7457  -15.8422   24.8507 C.2     1  UNL1        0.0428
      8 C          -7.8534  -16.4552   23.3253 C.3     1  UNL1        0.1199
      9 C          -4.7724  -16.4632   23.8929 C.1     1  UNL1       -0.0582
     10 C          -3.7992  -17.0842   22.9352 C.1     1  UNL1       -0.0405
     11 C          -2.8260  -17.7052   21.9775 C.ar    1  UNL1        0.1224
     12 C          -2.9622  -19.1510   21.6018 C.ar    1  UNL1        0.0276
     13 C          -1.9890  -19.7719   20.6441 C.ar    1  UNL1        0.0034
     14 C          -0.8796  -18.9470   20.0620 C.ar    1  UNL1        0.0148
     15 C          -0.7434  -17.5013   20.4376 C.ar    1  UNL1        0.0600
     16 C           0.3660  -16.6764   19.8555 C.3     1  UNL1        0.0521
     17 N          -1.7166  -16.8803   21.3954 N.ar    1  UNL1       -0.2414
     18 O         -11.8141  -16.4049   22.6689 O.3     1  UNL1       -0.4345
     19 C         -13.6246  -17.8499   23.8456 C.3     1  UNL1        0.0513
     20 C         -12.8112  -17.5248   22.6279 C.3     1  UNL1        0.2102
@<TRIPOS>BOND
     1    19    20    1
     2    20    18    1
     3    18     1    1
     4     1     2    2
     5     1     3   am
     6     3     4    1
     7     4     5    1
     8     5     6    1
     9     6     7    2
    10     7     9    1
    11     9    10    3
    12    10    11    1
    13    11    12   ar
    14    12    13   ar
    15    13    14   ar
    16    14    15   ar
    17    15    16    1
    18    15    17   ar
    19     6     8    1
    20     8     3    1
    21    17    11   ar
@<TRIPOS>MOLECULE
*****
 20 21 0 0 0
SMALL
GASTEIGER

@<TRIPOS>ATOM
      1 C          -9.9595  -18.1591   24.2075 C.2     1  UNL1        0.4051
      2 O          -9.5687  -19.0494   23.0653 O.2     1  UNL1       -0.2262
      3 N          -8.9855  -17.1497   24.7389 N.am    1  UNL1       -0.2419
      4 C          -9.2330  -16.1961   25.8700 C.3     1  UNL1        0.1014
      5 C          -7.9934  -15.3738   26.0627 C.3     1  UNL1        0.0459
      6 C          -6.9798  -15.8191   25.0507 C.2     1  UNL1       -0.0144
      7 C          -5.5959  -15.2643   24.8857 C.2     1  UNL1        0.0428
      8 C          -7.5929  -16.9167   24.2325 C.3     1  UNL1        0.1199
      9 C          -4.6897  -15.8127   23.8237 C.1     1  UNL1       -0.0582
     10 C          -3.7834  -16.3611   22.7616 C.1     1  UNL1       -0.0405
     11 C          -2.8771  -16.9095   21.6995 C.ar    1  UNL1        0.1224
     12 C          -1.5247  -16.2994   21.4793 C.ar    1  UNL1        0.0276
     13 C          -0.6185  -16.8478   20.4172 C.ar    1  UNL1        0.0034
     14 C          -1.0648  -18.0064   19.5755 C.ar    1  UNL1        0.0148
     15 C          -2.4172  -18.6166   19.7958 C.ar    1  UNL1        0.0600
     16 C          -2.8635  -19.7751   18.9540 C.3     1  UNL1        0.0521
     17 N          -3.3234  -18.0681   20.8578 N.ar    1  UNL1       -0.2414
     18 O         -11.3244  -18.2781   24.8182 O.3     1  UNL1       -0.4345
     19 C         -13.1949  -17.4950   23.1940 C.3     1  UNL1        0.0513
     20 C         -12.5086  -18.5920   23.9527 C.3     1  UNL1        0.2102
@<TRIPOS>BOND
     1    19    20    1
     2    20    18    1
     3    18     1    1
     4     1     2    2
     5     1     3   am
     6     3     4    1
     7     4     5    1
     8     5     6    1
     9     6     7    2
    10     7     9    1
    11     9    10    3
    12    10    11    1
    13    11    12   ar
    14    12    13   ar
    15    13    14   ar
    16    14    15   ar
    17    15    16    1
    18    15    17   ar
    19     6     8    1
    20     8     3    1
    21    17    11   ar
@<TRIPOS>MOLECULE
*****
 20 21 0 0 0
SMALL
GASTEIGER

@<TRIPOS>ATOM
      1 C           1.7608   -0.2719   19.2010 C.2     1  UNL1        0.4051
      2 O           1.3471   -0.6897   20.5810 O.2     1  UNL1       -0.2262
      3 N           3.1104   -0.6592   18.6730 N.am    1  UNL1       -0.2419
      4 C           3.6597   -0.3156   17.3202 C.3     1  UNL1        0.1014
      5 C           5.0364   -0.9022   17.2163 C.3     1  UNL1        0.0459
      6 C           5.3378   -1.6083   18.5049 C.2     1  UNL1       -0.0144
      7 C           6.6068   -2.3368   18.8352 C.2     1  UNL1        0.0428
      8 C           4.1474   -1.4582   19.4053 C.3     1  UNL1        0.1199
      9 C           6.7655   -2.9986   20.1720 C.1     1  UNL1       -0.0582
     10 C           6.9242   -3.6604   21.5087 C.1     1  UNL1       -0.0405
     11 C           7.0829   -4.3222   22.8455 C.ar    1  UNL1        0.1224
     12 C           6.5111   -3.6784   24.0737 C.ar    1  UNL1        0.0276
     13 C           6.6698   -4.3402   25.4104 C.ar    1  UNL1        0.0034
     14 C           7.4003   -5.6459   25.5188 C.ar    1  UNL1        0.0148
     15 C           7.9721   -6.2897   24.2906 C.ar    1  UNL1        0.0600
     16 C           8.7025   -7.5953   24.3991 C.3     1  UNL1        0.0521
     17 N           7.8134   -5.6278   22.9539 N.ar    1  UNL1       -0.2414
     18 O           0.8250    0.5334   18.3490 O.3     1  UNL1       -0.4345
     19 C           2.0361    2.8189   18.5936 C.3     1  UNL1        0.0513
     20 C           0.7671    2.0244   18.5016 C.3     1  UNL1        0.2102
@<TRIPOS>BOND
     1    19    20    1
     2    20    18    1
     3    18     1    1
     4     1     2    2
     5     1     3   am
     6     3     4    1
     7     4     5    1
     8     5     6    1
     9     6     7    2
    10     7     9    1
    11     9    10    3
    12    10    11    1
    13    11    12   ar
    14    12    13   ar
    15    13    14   ar
    16    14    15   ar
    17    15    16    1
    18    15    17   ar
    19     6     8    1
    20     8     3    1
    21    17    11   ar
@<TRIPOS>MOLECULE
*****
 20 21 0 0 0
SMALL
GASTEIGER

@<TRIPOS>ATOM
      1 C           7.0077   -5.7318   28.6792 C.2     1  UNL1        0.4051
      2 O           6.4213   -4.4486   28.1698 O.2     1  UNL1       -0.2262
      3 N           7.7490   -6.6409   27.7443 N.am    1  UNL1       -0.2419
      4 C           8.3863   -7.9494   28.1072 C.3     1  UNL1        0.1014
      5 C           9.0143   -8.5182   26.8695 C.3     1  UNL1        0.0459
      6 C           8.7652   -7.5613   25.7415 C.2     1  UNL1       -0.0144
      7 C           9.2184   -7.7343   24.3221 C.2     1  UNL1        0.0428
      8 C           7.9831   -6.4010   26.2822 C.3     1  UNL1        0.1199
      9 C           8.8931   -6.6876   23.2981 C.1     1  UNL1       -0.0582
     10 C           8.5678   -5.6408   22.2742 C.1     1  UNL1       -0.0405
     11 C           8.2425   -4.5941   21.2501 C.ar    1  UNL1        0.1224
     12 C           9.3455   -3.8138   20.5986 C.ar    1  UNL1        0.0276
     13 C           9.0202   -2.7672   19.5746 C.ar    1  UNL1        0.0034
     14 C           7.5918   -2.5008   19.2021 C.ar    1  UNL1        0.0148
     15 C           6.4887   -3.2810   19.8536 C.ar    1  UNL1        0.0600
     16 C           5.0604   -3.0146   19.4811 C.3     1  UNL1        0.0521
     17 N           6.8141   -4.3277   20.8776 N.ar    1  UNL1       -0.2414
     18 O           6.8529   -6.1060   30.1235 O.3     1  UNL1       -0.4345
     19 C           6.8067   -4.0555   31.7183 C.3     1  UNL1        0.0513
     20 C           7.5037   -5.2733   31.1879 C.3     1  UNL1        0.2102
@<TRIPOS>BOND
     1    19    20    1
     2    20    18    1
     3    18     1    1
     4     1     2    2
     5     1     3   am
     6     3     4    1
     7     4     5    1
     8     5     6    1
     9     6     7    2
    10     7     9    1
    11     9    10    3
    12    10    11    1
    13    11    12   ar
    14    12    13   ar
    15    13    14   ar
    16    14    15   ar
    17    15    16    1
    18    15    17   ar
    19     6     8    1
    20     8     3    1
    21    17    11   ar
@<TRIPOS>MOLECULE
*****
 20 21 0 0 0
SMALL
GASTEIGER

@<TRIPOS>ATOM
      1 C           3.7154  -12.8084   28.5601 C.2     1  UNL1        0.4051
      2 O           2.8181  -11.7243   28.0410 O.2     1  UNL1       -0.2262
      3 N           5.2025  -12.6118   28.5675 N.am    1  UNL1       -0.2419
      4 C           6.2202  -13.6008   29.0533 C.3     1  UNL1        0.1014
      5 C           7.5796  -12.9918   28.8764 C.3     1  UNL1        0.0459
      6 C           7.4020  -11.6264   28.2812 C.2     1  UNL1       -0.0144
      7 C           8.5006  -10.6648   27.9374 C.2     1  UNL1        0.0428
      8 C           5.9328  -11.3915   28.0903 C.3     1  UNL1        0.1199
      9 C           8.1685   -9.3274   27.3447 C.1     1  UNL1       -0.0582
     10 C           7.8364   -7.9901   26.7521 C.1     1  UNL1       -0.0405
     11 C           7.5043   -6.6527   26.1595 C.ar    1  UNL1        0.1224
     12 C           6.8548   -5.5979   27.0053 C.ar    1  UNL1        0.0276
     13 C           6.5227   -4.2606   26.4127 C.ar    1  UNL1        0.0034
     14 C           6.8401   -3.9781   24.9741 C.ar    1  UNL1        0.0148
     15 C           7.4896   -5.0328   24.1282 C.ar    1  UNL1        0.0600
     16 C           7.8071   -4.7503   22.6897 C.3     1  UNL1        0.0521
     17 N           7.8217   -6.3701   24.7209 N.ar    1  UNL1       -0.2414
     18 O           3.1258  -14.0892   29.0718 O.3     1  UNL1       -0.4345
     19 C           0.6503  -14.3848   28.3403 C.3     1  UNL1        0.0513
     20 C           2.0867  -14.8110   28.2661 C.3     1  UNL1        0.2102
@<TRIPOS>BOND
     1    19    20    1
     2    20    18    1
     3    18     1    1
     4     1     2    2
     5     1     3   am
     6     3     4    1
     7     4     5    1
     8     5     6    1
     9     6     7    2
    10     7     9    1
    11     9    10    3
    12    10    11    1
    13    11    12   ar
    14    12    13   ar
    15    13    14   ar
    16    14    15   ar
    17    15    16    1
    18    15    17   ar
    19     6     8    1
    20     8     3    1
    21    17    11   ar
@<TRIPOS>MOLECULE
*****
 20 21 0 0 0
SMALL
GASTEIGER

@<TRIPOS>ATOM
      1 C           1.9887   -0.0627   29.7329 C.2     1  UNL1        0.4051
      2 O           2.2066   -0.9302   28.5287 O.2     1  UNL1       -0.2262
      3 N           2.8416   -0.2454   30.9532 N.am    1  UNL1       -0.2419
      4 C           2.7410    0.5429   32.2253 C.3     1  UNL1        0.1014
      5 C           3.7821    0.0269   33.1739 C.3     1  UNL1        0.0459
      6 C           4.5261   -1.0804   32.4881 C.2     1  UNL1       -0.0144
      7 C           5.6535   -1.8791   33.0722 C.2     1  UNL1        0.0428
      8 C           3.9449   -1.2487   31.1155 C.3     1  UNL1        0.1199
      9 C           6.3043   -2.9612   32.2624 C.1     1  UNL1       -0.0582
     10 C           6.9550   -4.0433   31.4528 C.1     1  UNL1       -0.0405
     11 C           7.6058   -5.1254   30.6430 C.ar    1  UNL1        0.1224
     12 C           8.7189   -5.9383   31.2346 C.ar    1  UNL1        0.0276
     13 C           9.3696   -7.0204   30.4249 C.ar    1  UNL1        0.0034
     14 C           8.9072   -7.2895   29.0235 C.ar    1  UNL1        0.0148
     15 C           7.7941   -6.4766   28.4319 C.ar    1  UNL1        0.0600
     16 C           7.3316   -6.7457   27.0306 C.3     1  UNL1        0.0521
     17 N           7.1433   -5.3945   29.2417 N.ar    1  UNL1       -0.2414
     18 O           0.9179    0.9876   29.7167 O.3     1  UNL1       -0.4345
     19 C          -1.1770   -0.3412   28.9449 C.3     1  UNL1        0.0513
     20 C          -0.2635    0.8403   28.8043 C.3     1  UNL1        0.2102
@<TRIPOS>BOND
     1    19    20    1
     2    20    18    1
     3    18     1    1
     4     1     2    2
     5     1     3   am
     6     3     4    1
     7     4     5    1
     8     5     6    1
     9     6     7    2
    10     7     9    1
    11     9    10    3
    12    10    11    1
    13    11    12   ar
    14    12    13   ar
    15    13    14   ar
    16    14    15   ar
    17    15    16    1
    18    15    17   ar
    19     6     8    1
    20     8     3    1
    21    17    11   ar
@<TRIPOS>MOLECULE
*****
 20 21 0 0 0
SMALL
GASTEIGER

@<TRIPOS>ATOM
      1 C           2.2614    0.5378   27.0420 C.2     1  UNL1        0.4051
      2 O           3.4261   -0.3861   26.8426 O.2     1  UNL1       -0.2262
      3 N           1.4745    1.0187   25.8590 N.am    1  UNL1       -0.2419
      4 C           0.2914    1.9399   25.9024 C.3     1  UNL1        0.1014
      5 C          -0.1817    2.1533   24.4951 C.3     1  UNL1        0.0459
      6 C           0.7088    1.3641   23.5819 C.2     1  UNL1       -0.0144
      7 C           0.5957    1.2892   22.0880 C.2     1  UNL1        0.0428
      8 C           1.7325    0.6628   24.4248 C.3     1  UNL1        0.1199
      9 C           1.5638    0.4541   21.3035 C.1     1  UNL1       -0.0582
     10 C           2.5318   -0.3811   20.5189 C.1     1  UNL1       -0.0405
     11 C           3.4998   -1.2162   19.7344 C.ar    1  UNL1        0.1224
     12 C           4.5786   -0.5557   18.9284 C.ar    1  UNL1        0.0276
     13 C           5.5466   -1.3909   18.1439 C.ar    1  UNL1        0.0034
     14 C           5.4357   -2.8866   18.1654 C.ar    1  UNL1        0.0148
     15 C           4.3569   -3.5472   18.9714 C.ar    1  UNL1        0.0600
     16 C           4.2460   -5.0429   18.9930 C.3     1  UNL1        0.0521
     17 N           3.3889   -2.7120   19.7559 N.ar    1  UNL1       -0.2414
     18 O           1.8835    0.9809   28.4243 O.3     1  UNL1       -0.4345
     19 C          -0.3564   -0.2739   28.8230 C.3     1  UNL1        0.0513
     20 C           1.0204    0.1047   29.2830 C.3     1  UNL1        0.2102
@<TRIPOS>BOND
     1    19    20    1
     2    20    18    1
     3    18     1    1
     4     1     2    2
     5     1     3   am
     6     3     4    1
     7     4     5    1
     8     5     6    1
     9     6     7    2
    10     7     9    1
    11     9    10    3
    12    10    11    1
    13    11    12   ar
    14    12    13   ar
    15    13    14   ar
    16    14    15   ar
    17    15    16    1
    18    15    17   ar
    19     6     8    1
    20     8     3    1
    21    17    11   ar
@<TRIPOS>MOLECULE
*****
 20 21 0 0 0
SMALL
GASTEIGER

@<TRIPOS>ATOM
      1 C           2.7587    2.6193   37.1884 C.2     1  UNL1        0.4051
      2 O           1.7457    3.3296   36.3403 O.2     1  UNL1       -0.2262
      3 N           3.5964    1.5244   36.5973 N.am    1  UNL1       -0.2419
      4 C           4.6439    0.7286   37.3182 C.3     1  UNL1        0.1014
      5 C           5.2285   -0.2546   36.3479 C.3     1  UNL1        0.0459
      6 C           4.5425   -0.0665   35.0273 C.2     1  UNL1       -0.0144
      7 C           4.8169   -0.8418   33.7729 C.2     1  UNL1        0.0428
      8 C           3.5337    1.0330   35.1814 C.3     1  UNL1        0.1199
      9 C           4.0470   -0.5403   32.5213 C.1     1  UNL1       -0.0582
     10 C           3.2771   -0.2387   31.2698 C.1     1  UNL1       -0.0405
     11 C           2.5072    0.0628   30.0182 C.ar    1  UNL1        0.1224
     12 C           3.2048    0.6668   28.8357 C.ar    1  UNL1        0.0276
     13 C           2.4349    0.9683   27.5842 C.ar    1  UNL1        0.0034
     14 C           0.9673    0.6658   27.5152 C.ar    1  UNL1        0.0148
     15 C           0.2697    0.0617   28.6978 C.ar    1  UNL1        0.0600
     16 C          -1.1979   -0.2408   28.6288 C.3     1  UNL1        0.0521
     17 N           1.0396   -0.2397   29.9492 N.ar    1  UNL1       -0.2414
     18 O           2.9340    3.0038   38.6276 O.3     1  UNL1       -0.4345
     19 C           0.9313    1.5118   39.3440 C.3     1  UNL1        0.0513
     20 C           1.8902    2.6276   39.6370 C.3     1  UNL1        0.2102
@<TRIPOS>BOND
     1    19    20    1
     2    20    18    1
     3    18     1    1
     4     1     2    2
     5     1     3   am
     6     3     4    1
     7     4     5    1
     8     5     6    1
     9     6     7    2
    10     7     9    1
    11     9    10    3
    12    10    11    1
    13    11    12   ar
    14    12    13   ar
    15    13    14   ar
    16    14    15   ar
    17    15    16    1
    18    15    17   ar
    19     6     8    1
    20     8     3    1
    21    17    11   ar
