@<TRIPOS>MOLECULE
*****
 35 38 0 0 0
SMALL
GASTEIGER

@<TRIPOS>ATOM
      1 C          -5.3475  -19.7537   20.6817 C.3     1  UNL1        0.0757
      2 C          -5.4618  -18.9842   21.9642 C.3     1  UNL1        0.0195
      3 C          -6.7756  -18.3790   22.3611 C.3     1  UNL1        0.0282
      4 C          -7.9751  -18.5433   21.4757 C.3     1  UNL1        0.1420
      5 C          -9.2890  -17.9381   21.8726 C.ar    1  UNL1        0.0616
      6 C          -9.4033  -17.1686   23.1551 C.ar    1  UNL1        0.1407
      7 F          -8.4389  -16.8171   24.2490 F       1  UNL1       -0.2043
      8 C         -10.7171  -16.5634   23.5520 C.ar    1  UNL1        0.0319
      9 C         -11.9166  -16.7277   22.6665 C.ar    1  UNL1        0.0351
     10 C         -11.8023  -17.4972   21.3841 C.ar    1  UNL1        0.1737
     11 F         -13.0019  -17.6616   20.4985 F       1  UNL1       -0.2010
     12 C         -10.4885  -18.1024   20.9871 C.ar    1  UNL1        0.1654
     13 O         -10.3742  -18.8720   19.7046 O.3     1  UNL1       -0.4733
     14 C          -9.0604  -19.4772   19.3076 C.3     1  UNL1        0.2074
     15 C          -7.8608  -19.3128   20.1932 C.3     1  UNL1        0.0698
     16 C          -6.5470  -19.9180   19.7963 C.3     1  UNL1        0.0231
     17 S          -8.0895  -17.7738   22.7581 S.O2    1  UNL1        0.0093
     18 O          -8.3722  -18.1542   23.3990 O.2     1  UNL1       -0.1684
     19 O          -7.5914  -16.4036   22.4049 O.2     1  UNL1       -0.1684
     20 C          -8.2038  -17.0042   24.0406 C.ar    1  UNL1        0.1059
     21 C          -7.7841  -15.5650   24.0916 C.ar    1  UNL1        0.0192
     22 C          -7.8984  -14.7954   25.3740 C.ar    1  UNL1        0.0127
     23 C          -8.4324  -15.4650   26.6055 C.ar    1  UNL1        0.0578
     24 CL         -8.5467  -14.6954   27.8879 Cl      1  UNL1       -0.0822
     25 C          -8.8521  -16.9042   26.5545 C.ar    1  UNL1        0.0127
     26 C          -8.7378  -17.6738   25.2720 C.ar    1  UNL1        0.0192
     27 N          -4.0336  -20.3589   20.2848 N.3     1  UNL1       -0.1773
     28 H          -3.8453  -21.1130   20.9453 H       1  UNL1        0.1486
     29 O          -3.4285  -18.6568   19.1728 O.2     1  UNL1       -0.1497
     30 S          -2.7998  -19.5074   20.2364 S.O2    1  UNL1        0.1271
     31 O          -2.1710  -20.3580   21.2999 O.2     1  UNL1       -0.1497
     32 C          -1.5658  -18.6558   20.1879 C.3     1  UNL1        0.5357
     33 F          -1.7046  -18.5393   18.6989 F       1  UNL1       -0.1493
     34 F          -1.4270  -18.7723   21.6769 F       1  UNL1       -0.1493
     35 F          -0.3320  -17.8043   20.1395 F       1  UNL1       -0.1493
@<TRIPOS>BOND
     1    29    30    2
     2    30    31    2
     3    30    27    1
     4     1    27    1
     5     1     2    1
     6     2     3    1
     7     3     4    1
     8     4    17    1
     9    17    18    2
    10    17    19    2
    11    17    20    1
    12    20    21   ar
    13    21    22   ar
    14    22    23   ar
    15    23    24    1
    16    23    25   ar
    17    25    26   ar
    18     4     5    1
    19     5     6   ar
    20     6     7    1
    21     6     8   ar
    22     8     9   ar
    23     9    10   ar
    24    10    11    1
    25    10    12   ar
    26    12    13    1
    27    13    14    1
    28    15    14    1
    29    15    16    1
    30    30    32    1
    31    32    33    1
    32    32    34    1
    33    32    35    1
    34    16     1    1
    35    15     4    1
    36    26    20   ar
    37    12     5   ar
    38    27    28    1
@<TRIPOS>MOLECULE
*****
 35 38 0 0 0
SMALL
GASTEIGER

@<TRIPOS>ATOM
      1 C          -4.3079  -18.8359   21.1222 C.3     1  UNL1        0.0757
      2 C          -5.7842  -18.9000   20.8646 C.3     1  UNL1        0.0195
      3 C          -6.7391  -18.2223   21.8020 C.3     1  UNL1        0.0282
      4 C          -6.2178  -17.4805   22.9969 C.3     1  UNL1        0.1420
      5 C          -7.1728  -16.8027   23.9343 C.ar    1  UNL1        0.0616
      6 C          -8.6491  -16.8668   23.6768 C.ar    1  UNL1        0.1407
      7 F          -9.4947  -17.5010   22.6123 F       1  UNL1       -0.2043
      8 C          -9.6041  -16.1891   24.6141 C.ar    1  UNL1        0.0319
      9 C          -9.0828  -15.4473   25.8091 C.ar    1  UNL1        0.0351
     10 C          -7.6065  -15.3832   26.0666 C.ar    1  UNL1        0.1737
     11 F          -7.0851  -14.6413   27.2615 F       1  UNL1       -0.2010
     12 C          -6.6515  -16.0609   25.1292 C.ar    1  UNL1        0.1654
     13 O          -5.1751  -15.9968   25.3868 O.3     1  UNL1       -0.4733
     14 C          -4.2201  -16.6745   24.4494 C.3     1  UNL1        0.2074
     15 C          -4.7415  -17.4164   23.2544 C.3     1  UNL1        0.0698
     16 C          -3.7865  -18.0941   22.3171 C.3     1  UNL1        0.0231
     17 S          -7.6941  -17.5446   22.7394 S.O2    1  UNL1        0.0093
     18 O          -8.1278  -18.0546   23.1722 O.2     1  UNL1       -0.1684
     19 O          -7.9164  -16.5385   21.6492 O.2     1  UNL1       -0.1684
     20 C          -9.1705  -17.6087   22.4818 C.ar    1  UNL1        0.1059
     21 C          -9.8501  -16.5002   21.7338 C.ar    1  UNL1        0.0192
     22 C         -11.3264  -16.5642   21.4762 C.ar    1  UNL1        0.0127
     23 C         -12.1232  -17.7368   21.9666 C.ar    1  UNL1        0.0578
     24 CL        -13.5995  -17.8008   21.7091 Cl      1  UNL1       -0.0822
     25 C         -11.4436  -18.8452   22.7146 C.ar    1  UNL1        0.0127
     26 C          -9.9672  -18.7811   22.9722 C.ar    1  UNL1        0.0192
     27 N          -3.3529  -19.5137   20.1848 N.3     1  UNL1       -0.1773
     28 H          -3.0652  -20.3826   20.6349 H       1  UNL1        0.1486
     29 O          -1.2869  -19.7423   20.6082 O.2     1  UNL1       -0.1497
     30 S          -2.0983  -18.8124   19.7557 S.O2    1  UNL1        0.1271
     31 O          -2.9097  -17.8824   18.9032 O.2     1  UNL1       -0.1497
     32 C          -0.8436  -18.1110   19.3266 C.3     1  UNL1        0.5357
     33 F          -0.2723  -18.2917   20.7017 F       1  UNL1       -0.1493
     34 F          -1.4149  -17.9303   17.9515 F       1  UNL1       -0.1493
     35 F           0.4109  -17.4097   18.8975 F       1  UNL1       -0.1493
@<TRIPOS>BOND
     1    29    30    2
     2    30    31    2
     3    30    27    1
     4     1    27    1
     5     1     2    1
     6     2     3    1
     7     3     4    1
     8     4    17    1
     9    17    18    2
    10    17    19    2
    11    17    20    1
    12    20    21   ar
    13    21    22   ar
    14    22    23   ar
    15    23    24    1
    16    23    25   ar
    17    25    26   ar
    18     4     5    1
    19     5     6   ar
    20     6     7    1
    21     6     8   ar
    22     8     9   ar
    23     9    10   ar
    24    10    11    1
    25    10    12   ar
    26    12    13    1
    27    13    14    1
    28    15    14    1
    29    15    16    1
    30    30    32    1
    31    32    33    1
    32    32    34    1
    33    32    35    1
    34    16     1    1
    35    15     4    1
    36    26    20   ar
    37    12     5   ar
    38    27    28    1
@<TRIPOS>MOLECULE
*****
 35 38 0 0 0
SMALL
GASTEIGER

@<TRIPOS>ATOM
      1 C         -16.8761   -6.6452   19.4933 C.3     1  UNL1        0.0757
      2 C         -15.4727   -6.6600   18.9639 C.3     1  UNL1        0.0195
      3 C         -14.7410   -5.3694   18.7426 C.3     1  UNL1        0.0282
      4 C         -15.4126   -4.0641   19.0506 C.3     1  UNL1        0.1420
      5 C         -14.6808   -2.7735   18.8293 C.ar    1  UNL1        0.0616
      6 C         -13.2774   -2.7883   18.2999 C.ar    1  UNL1        0.1407
      7 F         -12.3274   -3.8767   17.8961 F       1  UNL1       -0.2043
      8 C         -12.5457   -1.4978   18.0786 C.ar    1  UNL1        0.0319
      9 C         -13.2173   -0.1924   18.3867 C.ar    1  UNL1        0.0351
     10 C         -14.6206   -0.1776   18.9160 C.ar    1  UNL1        0.1737
     11 F         -15.2923    1.1278   19.2241 F       1  UNL1       -0.2010
     12 C         -15.3524   -1.4682   19.1374 C.ar    1  UNL1        0.1654
     13 O         -16.7559   -1.4533   19.6668 O.3     1  UNL1       -0.4733
     14 C         -17.4876   -2.7439   19.8881 C.3     1  UNL1        0.2074
     15 C         -16.8159   -4.0493   19.5800 C.3     1  UNL1        0.0698
     16 C         -17.5477   -5.3398   19.8013 C.3     1  UNL1        0.0231
     17 S         -14.0092   -4.0789   18.5213 S.O2    1  UNL1        0.0093
     18 O         -13.9029   -3.9674   17.7391 O.2     1  UNL1       -0.1684
     19 O         -13.1650   -4.3207   19.7374 O.2     1  UNL1       -0.1684
     20 C         -12.6057   -4.0937   17.9919 C.ar    1  UNL1        0.1059
     21 C         -12.3624   -4.0907   16.5118 C.ar    1  UNL1        0.0192
     22 C         -10.9590   -4.1055   15.9824 C.ar    1  UNL1        0.0127
     23 C          -9.7989   -4.1233   16.9332 C.ar    1  UNL1        0.0578
     24 CL         -8.3955   -4.1381   16.4038 Cl      1  UNL1       -0.0822
     25 C         -10.0422   -4.1263   18.4133 C.ar    1  UNL1        0.0127
     26 C         -11.4457   -4.1115   18.9427 C.ar    1  UNL1        0.0192
     27 N         -17.6079   -7.9357   19.7146 N.3     1  UNL1       -0.1773
     28 H         -17.6771   -8.0656   20.7239 H       1  UNL1        0.1486
     29 O         -17.8037   -8.9650   17.8701 O.2     1  UNL1       -0.1497
     30 S         -17.0621   -9.2137   19.1500 S.O2    1  UNL1        0.1271
     31 O         -16.3205   -9.4625   20.4298 O.2     1  UNL1       -0.1497
     32 C         -16.5164  -10.4918   18.5853 C.3     1  UNL1        0.5357
     33 F         -15.1377   -9.9010   18.5805 F       1  UNL1       -0.1493
     34 F         -17.8951  -11.0826   18.5901 F       1  UNL1       -0.1493
     35 F         -15.9707  -11.7698   18.0206 F       1  UNL1       -0.1493
@<TRIPOS>BOND
     1    29    30    2
     2    30    31    2
     3    30    27    1
     4     1    27    1
     5     1     2    1
     6     2     3    1
     7     3     4    1
     8     4    17    1
     9    17    18    2
    10    17    19    2
    11    17    20    1
    12    20    21   ar
    13    21    22   ar
    14    22    23   ar
    15    23    24    1
    16    23    25   ar
    17    25    26   ar
    18     4     5    1
    19     5     6   ar
    20     6     7    1
    21     6     8   ar
    22     8     9   ar
    23     9    10   ar
    24    10    11    1
    25    10    12   ar
    26    12    13    1
    27    13    14    1
    28    15    14    1
    29    15    16    1
    30    30    32    1
    31    32    33    1
    32    32    34    1
    33    32    35    1
    34    16     1    1
    35    15     4    1
    36    26    20   ar
    37    12     5   ar
    38    27    28    1
@<TRIPOS>MOLECULE
*****
 35 38 0 0 0
SMALL
GASTEIGER

@<TRIPOS>ATOM
      1 C         -12.5615   -5.8038   19.1113 C.3     1  UNL1        0.0757
      2 C         -13.5541   -6.9002   18.8609 C.3     1  UNL1        0.0195
      3 C         -15.0238   -6.6206   18.9695 C.3     1  UNL1        0.0282
      4 C         -15.5009   -5.2446   19.3285 C.3     1  UNL1        0.1420
      5 C         -16.9706   -4.9650   19.4371 C.ar    1  UNL1        0.0616
      6 C         -17.9632   -6.0613   19.1866 C.ar    1  UNL1        0.1407
      7 F         -17.8442   -7.5107   18.8184 F       1  UNL1       -0.2043
      8 C         -19.4329   -5.7817   19.2952 C.ar    1  UNL1        0.0319
      9 C         -19.9100   -4.4058   19.6542 C.ar    1  UNL1        0.0351
     10 C         -18.9175   -3.3094   19.9047 C.ar    1  UNL1        0.1737
     11 F         -19.3946   -1.9333   20.2637 F       1  UNL1       -0.2010
     12 C         -17.4478   -3.5890   19.7961 C.ar    1  UNL1        0.1654
     13 O         -16.4552   -2.4925   20.0466 O.3     1  UNL1       -0.4733
     14 C         -14.9855   -2.7721   19.9380 C.3     1  UNL1        0.2074
     15 C         -14.5084   -4.1482   19.5789 C.3     1  UNL1        0.0698
     16 C         -13.0387   -4.4278   19.4704 C.3     1  UNL1        0.0231
     17 S         -16.4935   -6.3409   19.0780 S.O2    1  UNL1        0.0093
     18 O         -16.8199   -6.7019   19.7095 O.2     1  UNL1       -0.1684
     19 O         -16.5710   -6.4257   17.5824 O.2     1  UNL1       -0.1684
     20 C         -17.4861   -7.4374   18.8275 C.ar    1  UNL1        0.1059
     21 C         -17.9355   -8.3149   19.9580 C.ar    1  UNL1        0.0192
     22 C         -18.9280   -9.4113   19.7075 C.ar    1  UNL1        0.0127
     23 C         -19.4712   -9.6302   18.3266 C.ar    1  UNL1        0.0578
     24 CL        -20.4638  -10.7266   18.0761 Cl      1  UNL1       -0.0822
     25 C         -19.0218   -8.7526   17.1961 C.ar    1  UNL1        0.0127
     26 C         -18.0292   -7.6562   17.4466 C.ar    1  UNL1        0.0192
     27 N         -11.0918   -6.0834   19.0028 N.3     1  UNL1       -0.1773
     28 H         -10.7108   -6.0269   19.9472 H       1  UNL1        0.1486
     29 O          -9.5533   -4.6662   19.3553 O.2     1  UNL1       -0.1497
     30 S         -10.2262   -5.2195   18.1342 S.O2    1  UNL1        0.1271
     31 O         -10.8991   -5.7729   16.9132 O.2     1  UNL1       -0.1497
     32 C          -9.3605   -4.3556   17.2657 C.3     1  UNL1        0.5357
     33 F          -8.4393   -5.5157   17.0298 F       1  UNL1       -0.1493
     34 F         -10.2816   -3.1955   17.5016 F       1  UNL1       -0.1493
     35 F          -8.4948   -3.4917   16.3972 F       1  UNL1       -0.1493
@<TRIPOS>BOND
     1    29    30    2
     2    30    31    2
     3    30    27    1
     4     1    27    1
     5     1     2    1
     6     2     3    1
     7     3     4    1
     8     4    17    1
     9    17    18    2
    10    17    19    2
    11    17    20    1
    12    20    21   ar
    13    21    22   ar
    14    22    23   ar
    15    23    24    1
    16    23    25   ar
    17    25    26   ar
    18     4     5    1
    19     5     6   ar
    20     6     7    1
    21     6     8   ar
    22     8     9   ar
    23     9    10   ar
    24    10    11    1
    25    10    12   ar
    26    12    13    1
    27    13    14    1
    28    15    14    1
    29    15    16    1
    30    30    32    1
    31    32    33    1
    32    32    34    1
    33    32    35    1
    34    16     1    1
    35    15     4    1
    36    26    20   ar
    37    12     5   ar
    38    27    28    1
