@<TRIPOS>MOLECULE
*****
 24 25 0 0 0
SMALL
GASTEIGER

@<TRIPOS>ATOM
      1 C          -6.8714  -19.8990   21.6874 C.ar    1  UNL1        0.1387
      2 C          -8.0403  -19.6728   22.5998 C.ar    1  UNL1        0.0366
      3 C          -9.3867  -19.3439   22.0264 C.ar    1  UNL1       -0.0011
      4 C          -9.5643  -19.2412   20.5405 C.ar    1  UNL1       -0.0195
      5 C          -8.3955  -19.4674   19.6281 C.ar    1  UNL1       -0.0011
      6 C          -7.0490  -19.7962   20.2016 C.ar    1  UNL1        0.0366
      7 O          -5.5249  -20.2279   22.2609 O.3     1  UNL1       -0.4728
      8 C          -4.3947  -19.2505   22.1294 C.3     1  UNL1        0.2358
      9 C          -3.3260  -19.4737   21.1008 C.3     1  UNL1        0.1697
     10 O          -2.1548  -20.3565   21.4155 O.3     1  UNL1       -0.3793
     11 H          -1.5623  -20.3932   20.6484 H       1  UNL1        0.2106
     12 C          -3.4284  -18.8141   19.7575 C.3     1  UNL1        0.1020
     13 N          -2.7969  -17.4726   19.5306 N.3     1  UNL1       -0.2964
     14 H          -2.4400  -17.4729   18.5751 H       1  UNL1        0.1233
     15 C          -0.2626  -17.4157   20.0997 C.3     1  UNL1        0.0171
     16 C          -1.6735  -17.0137   20.4123 C.3     1  UNL1        0.0541
     17 C          -1.9610  -16.1528   21.6066 C.3     1  UNL1        0.0171
     18 C         -10.9108  -18.9123   19.9671 C.3     1  UNL1        0.0584
     19 C         -11.2885  -17.4833   19.7116 C.3     1  UNL1        0.1468
     20 O         -12.4546  -16.8753   20.4330 O.3     1  UNL1       -0.3534
     21 C         -12.3076  -16.4356   21.8596 C.3     1  UNL1        0.1421
     22 C         -12.6755  -17.3697   22.9741 C.3     1  UNL1        0.0297
     23 C         -12.2724  -18.3653   24.0210 C.3     1  UNL1        0.0026
     24 C         -13.7159  -17.9918   23.8575 C.3     1  UNL1        0.0026
@<TRIPOS>BOND
     1    15    16    1
     2    16    17    1
     3    16    13    1
     4    13    12    1
     5    12     9    1
     6     9    10    1
     7     9     8    1
     8     8     7    1
     9     7     1    1
    10     1     2   ar
    11     2     3   ar
    12     3     4   ar
    13     4    18    1
    14    18    19    1
    15    19    20    1
    16    20    21    1
    17    21    22    1
    18    22    23    1
    19    23    24    1
    20     4     5   ar
    21     5     6   ar
    22     6     1   ar
    23    24    22    1
    24    13    14    1
    25    10    11    1
@<TRIPOS>MOLECULE
*****
 24 25 0 0 0
SMALL
GASTEIGER

@<TRIPOS>ATOM
      1 C          -7.0837  -18.6909   22.1747 C.ar    1  UNL1        0.1387
      2 C          -7.6995  -17.3950   22.6122 C.ar    1  UNL1        0.0366
      3 C          -8.9619  -17.4003   23.4223 C.ar    1  UNL1       -0.0011
      4 C          -9.6085  -18.7014   23.7950 C.ar    1  UNL1       -0.0195
      5 C          -8.9927  -19.9973   23.3576 C.ar    1  UNL1       -0.0011
      6 C          -7.7303  -19.9920   22.5474 C.ar    1  UNL1        0.0366
      7 O          -5.8213  -18.6856   21.3646 O.3     1  UNL1       -0.4728
      8 C          -4.5980  -19.3858   21.8776 C.3     1  UNL1        0.2358
      9 C          -3.3888  -19.5224   21.0006 C.3     1  UNL1        0.1697
     10 O          -2.2208  -20.3457   21.4565 O.3     1  UNL1       -0.3793
     11 H          -1.5289  -20.3295   20.7769 H       1  UNL1        0.2106
     12 C          -3.3476  -18.8355   19.6677 C.3     1  UNL1        0.1020
     13 N          -2.8228  -17.4343   19.5619 N.3     1  UNL1       -0.2964
     14 H          -2.4998  -17.3125   18.6021 H       1  UNL1        0.1233
     15 C          -0.2921  -17.3772   20.1468 C.3     1  UNL1        0.0171
     16 C          -1.7059  -16.9823   20.4553 C.3     1  UNL1        0.0541
     17 C          -2.0027  -16.1354   21.6573 C.3     1  UNL1        0.0171
     18 C         -10.8709  -18.7066   24.6052 C.3     1  UNL1        0.0584
     19 C         -12.1803  -18.3701   23.9556 C.3     1  UNL1        0.1468
     20 O         -12.2398  -17.3168   22.8893 O.3     1  UNL1       -0.3534
     21 C         -12.4898  -17.7072   21.4626 C.3     1  UNL1        0.1421
     22 C         -11.4340  -18.4405   20.6897 C.3     1  UNL1        0.0297
     23 C         -10.2508  -18.4226   19.7680 C.3     1  UNL1        0.0026
     24 C         -10.7885  -19.7287   20.2728 C.3     1  UNL1        0.0026
@<TRIPOS>BOND
     1    15    16    1
     2    16    17    1
     3    16    13    1
     4    13    12    1
     5    12     9    1
     6     9    10    1
     7     9     8    1
     8     8     7    1
     9     7     1    1
    10     1     2   ar
    11     2     3   ar
    12     3     4   ar
    13     4    18    1
    14    18    19    1
    15    19    20    1
    16    20    21    1
    17    21    22    1
    18    22    23    1
    19    23    24    1
    20     4     5   ar
    21     5     6   ar
    22     6     1   ar
    23    24    22    1
    24    13    14    1
    25    10    11    1
@<TRIPOS>MOLECULE
*****
 24 25 0 0 0
SMALL
GASTEIGER

@<TRIPOS>ATOM
      1 C          -7.4861  -18.0647   21.8550 C.ar    1  UNL1        0.1387
      2 C          -8.1967  -16.8170   22.2886 C.ar    1  UNL1        0.0366
      3 C          -9.6220  -16.5860   21.8823 C.ar    1  UNL1       -0.0011
      4 C         -10.3367  -17.6027   21.0424 C.ar    1  UNL1       -0.0195
      5 C          -9.6261  -18.8504   20.6089 C.ar    1  UNL1       -0.0011
      6 C          -8.2007  -19.0815   21.0152 C.ar    1  UNL1        0.0366
      7 O          -6.0607  -18.2957   22.2613 O.3     1  UNL1       -0.4728
      8 C          -5.3056  -19.4702   21.7133 C.3     1  UNL1        0.2358
      9 C          -4.2800  -19.2668   20.6377 C.3     1  UNL1        0.1697
     10 O          -4.6167  -18.4507   19.4251 O.3     1  UNL1       -0.3793
     11 H          -3.8487  -18.4189   18.8334 H       1  UNL1        0.2106
     12 C          -2.9177  -19.8795   20.7749 C.3     1  UNL1        0.1020
     13 N          -1.8125  -19.1103   21.4360 N.3     1  UNL1       -0.2964
     14 H          -2.1255  -18.9014   22.3841 H       1  UNL1        0.1233
     15 C          -0.3116  -17.8260   19.7485 C.3     1  UNL1        0.0171
     16 C          -1.3389  -17.8172   20.8415 C.3     1  UNL1        0.0541
     17 C          -1.8925  -16.5152   21.3400 C.3     1  UNL1        0.0171
     18 C         -11.7620  -17.3717   20.6362 C.3     1  UNL1        0.0584
     19 C         -12.8786  -17.7940   21.5443 C.3     1  UNL1        0.1468
     20 O         -12.9016  -17.3300   22.9706 O.3     1  UNL1       -0.3534
     21 C         -12.6951  -18.3148   24.0831 C.3     1  UNL1        0.1421
     22 C         -11.3454  -18.9337   24.2959 C.3     1  UNL1        0.0297
     23 C          -9.9805  -18.8919   24.9165 C.3     1  UNL1        0.0026
     24 C         -10.3727  -20.0473   24.0440 C.3     1  UNL1        0.0026
@<TRIPOS>BOND
     1    15    16    1
     2    16    17    1
     3    16    13    1
     4    13    12    1
     5    12     9    1
     6     9    10    1
     7     9     8    1
     8     8     7    1
     9     7     1    1
    10     1     2   ar
    11     2     3   ar
    12     3     4   ar
    13     4    18    1
    14    18    19    1
    15    19    20    1
    16    20    21    1
    17    21    22    1
    18    22    23    1
    19    23    24    1
    20     4     5   ar
    21     5     6   ar
    22     6     1   ar
    23    24    22    1
    24    13    14    1
    25    10    11    1
@<TRIPOS>MOLECULE
*****
 24 25 0 0 0
SMALL
GASTEIGER

@<TRIPOS>ATOM
      1 C          -6.7816  -19.1240   20.5688 C.ar    1  UNL1        0.1387
      2 C          -7.0568  -19.1315   22.0433 C.ar    1  UNL1        0.0366
      3 C          -8.4577  -19.3234   22.5439 C.ar    1  UNL1       -0.0011
      4 C          -9.5835  -19.5079   21.5701 C.ar    1  UNL1       -0.0195
      5 C          -9.3083  -19.5004   20.0956 C.ar    1  UNL1       -0.0011
      6 C          -7.9074  -19.3085   19.5949 C.ar    1  UNL1        0.0366
      7 O          -5.3807  -18.9320   20.0682 O.3     1  UNL1       -0.4728
      8 C          -4.3099  -19.9139   20.4412 C.3     1  UNL1        0.2358
      9 C          -3.1168  -19.4593   21.2284 C.3     1  UNL1        0.1697
     10 O          -2.0077  -20.4223   21.5327 O.3     1  UNL1       -0.3793
     11 H          -1.3191  -19.9709   22.0454 H       1  UNL1        0.2106
     12 C          -3.0327  -18.0416   21.7115 C.3     1  UNL1        0.1020
     13 N          -2.3875  -16.9940   20.8536 N.3     1  UNL1       -0.2964
     14 H          -3.1425  -16.4576   20.4261 H       1  UNL1        0.1233
     15 C          -1.9965  -17.6022   18.3582 C.3     1  UNL1        0.0171
     16 C          -1.4619  -17.3983   19.7447 C.3     1  UNL1        0.0541
     17 C          -0.0014  -17.5986   20.0224 C.3     1  UNL1        0.0171
     18 C         -10.9844  -19.6999   22.0707 C.3     1  UNL1        0.0584
     19 C         -11.4663  -18.9300   23.2644 C.3     1  UNL1        0.1468
     20 O         -12.7539  -18.1639   23.1928 O.3     1  UNL1       -0.3534
     21 C         -12.7698  -16.7750   22.6264 C.3     1  UNL1        0.1421
     22 C         -11.8484  -16.4143   21.4990 C.3     1  UNL1        0.0297
     23 C         -11.5791  -16.2979   20.0280 C.3     1  UNL1        0.0026
     24 C         -10.5220  -15.9059   21.0174 C.3     1  UNL1        0.0026
@<TRIPOS>BOND
     1    15    16    1
     2    16    17    1
     3    16    13    1
     4    13    12    1
     5    12     9    1
     6     9    10    1
     7     9     8    1
     8     8     7    1
     9     7     1    1
    10     1     2   ar
    11     2     3   ar
    12     3     4   ar
    13     4    18    1
    14    18    19    1
    15    19    20    1
    16    20    21    1
    17    21    22    1
    18    22    23    1
    19    23    24    1
    20     4     5   ar
    21     5     6   ar
    22     6     1   ar
    23    24    22    1
    24    13    14    1
    25    10    11    1
@<TRIPOS>MOLECULE
*****
 24 25 0 0 0
SMALL
GASTEIGER

@<TRIPOS>ATOM
      1 C          -7.2184  -19.5728   20.9349 C.ar    1  UNL1        0.1387
      2 C          -7.3976  -19.8693   22.3943 C.ar    1  UNL1        0.0366
      3 C          -8.7752  -19.9214   22.9854 C.ar    1  UNL1       -0.0011
      4 C          -9.9736  -19.6769   22.1171 C.ar    1  UNL1       -0.0195
      5 C          -9.7944  -19.3805   20.6577 C.ar    1  UNL1       -0.0011
      6 C          -8.4168  -19.3284   20.0666 C.ar    1  UNL1        0.0366
      7 O          -5.8407  -19.5208   20.3438 O.3     1  UNL1       -0.4728
      8 C          -4.6420  -19.7599   21.2132 C.3     1  UNL1        0.2358
      9 C          -3.2623  -19.6503   20.6351 C.3     1  UNL1        0.1697
     10 O          -2.1064  -20.3155   21.3216 O.3     1  UNL1       -0.3793
     11 H          -1.2928  -20.1475   20.8209 H       1  UNL1        0.2106
     12 C          -3.0385  -18.8754   19.3703 C.3     1  UNL1        0.1020
     13 N          -2.6437  -17.4298   19.4364 N.3     1  UNL1       -0.2964
     14 H          -2.3059  -17.1741   18.5085 H       1  UNL1        0.1233
     15 C          -2.0017  -16.2183   21.6432 C.3     1  UNL1        0.0171
     16 C          -1.6000  -16.9814   20.4159 C.3     1  UNL1        0.0541
     17 C          -0.1544  -17.2960   20.1681 C.3     1  UNL1        0.0171
     18 C         -11.3513  -19.7290   22.7082 C.3     1  UNL1        0.0584
     19 C         -11.8758  -18.5624   23.4917 C.3     1  UNL1        0.1468
     20 O         -12.3593  -17.3355   22.7771 O.3     1  UNL1       -0.3534
     21 C         -11.4015  -16.2250   22.4614 C.3     1  UNL1        0.1421
     22 C         -10.0058  -16.2598   23.0099 C.3     1  UNL1        0.0297
     23 C          -8.5224  -16.2320   22.7894 C.3     1  UNL1        0.0026
     24 C          -9.0719  -16.3479   24.1803 C.3     1  UNL1        0.0026
@<TRIPOS>BOND
     1    15    16    1
     2    16    17    1
     3    16    13    1
     4    13    12    1
     5    12     9    1
     6     9    10    1
     7     9     8    1
     8     8     7    1
     9     7     1    1
    10     1     2   ar
    11     2     3   ar
    12     3     4   ar
    13     4    18    1
    14    18    19    1
    15    19    20    1
    16    20    21    1
    17    21    22    1
    18    22    23    1
    19    23    24    1
    20     4     5   ar
    21     5     6   ar
    22     6     1   ar
    23    24    22    1
    24    13    14    1
    25    10    11    1
@<TRIPOS>MOLECULE
*****
 24 25 0 0 0
SMALL
GASTEIGER

@<TRIPOS>ATOM
      1 C          -9.4127  -19.2899   21.5109 C.ar    1  UNL1        0.1387
      2 C          -8.4109  -19.6609   22.5638 C.ar    1  UNL1        0.0366
      3 C          -7.0160  -20.0463   22.1692 C.ar    1  UNL1       -0.0011
      4 C          -6.6229  -20.0607   20.7218 C.ar    1  UNL1       -0.0195
      5 C          -7.6247  -19.6896   19.6689 C.ar    1  UNL1       -0.0011
      6 C          -9.0196  -19.3042   20.0634 C.ar    1  UNL1        0.0366
      7 O         -10.8076  -18.9045   21.9055 O.3     1  UNL1       -0.4728
      8 C         -11.7146  -18.2469   20.9080 C.3     1  UNL1        0.2358
      9 C         -11.6678  -16.7597   20.7181 C.3     1  UNL1        0.1697
     10 O         -12.6902  -16.0813   19.8554 O.3     1  UNL1       -0.3793
     11 H         -12.5178  -15.1268   19.8395 H       1  UNL1        0.2106
     12 C         -10.5986  -15.9509   21.3910 C.3     1  UNL1        0.1020
     13 N         -10.4911  -15.9468   22.8872 N.3     1  UNL1       -0.2964
     14 H         -10.7944  -15.0252   23.2017 H       1  UNL1        0.1233
     15 C          -9.1239  -16.8522   24.9024 C.3     1  UNL1        0.0171
     16 C          -9.1701  -16.2157   23.5449 C.3     1  UNL1        0.0541
     17 C          -7.8952  -15.8481   22.8452 C.3     1  UNL1        0.0171
     18 C          -5.2279  -20.4460   20.3272 C.3     1  UNL1        0.0584
     19 C          -4.3300  -19.4410   19.6689 C.3     1  UNL1        0.1468
     20 O          -2.8563  -19.4552   19.9484 O.3     1  UNL1       -0.3534
     21 C          -2.3603  -19.3788   21.3621 C.3     1  UNL1        0.1421
     22 C          -2.9335  -18.3618   22.3040 C.3     1  UNL1        0.0297
     23 C          -2.9926  -16.9531   22.8158 C.3     1  UNL1        0.0026
     24 C          -3.8673  -18.0092   23.4237 C.3     1  UNL1        0.0026
@<TRIPOS>BOND
     1    15    16    1
     2    16    17    1
     3    16    13    1
     4    13    12    1
     5    12     9    1
     6     9    10    1
     7     9     8    1
     8     8     7    1
     9     7     1    1
    10     1     2   ar
    11     2     3   ar
    12     3     4   ar
    13     4    18    1
    14    18    19    1
    15    19    20    1
    16    20    21    1
    17    21    22    1
    18    22    23    1
    19    23    24    1
    20     4     5   ar
    21     5     6   ar
    22     6     1   ar
    23    24    22    1
    24    13    14    1
    25    10    11    1
@<TRIPOS>MOLECULE
*****
 24 25 0 0 0
SMALL
GASTEIGER

@<TRIPOS>ATOM
      1 C          -8.9749  -18.6801   21.0088 C.ar    1  UNL1        0.1387
      2 C          -8.4986  -17.8847   22.1880 C.ar    1  UNL1        0.0366
      3 C          -7.0629  -17.9633   22.6152 C.ar    1  UNL1       -0.0011
      4 C          -6.1034  -18.8372   21.8631 C.ar    1  UNL1       -0.0195
      5 C          -6.5796  -19.6326   20.6839 C.ar    1  UNL1       -0.0011
      6 C          -8.0154  -19.5540   20.2568 C.ar    1  UNL1        0.0366
      7 O         -10.4106  -18.6015   20.5817 O.3     1  UNL1       -0.4728
      8 C         -10.8499  -17.5373   19.6203 C.3     1  UNL1        0.2358
      9 C         -11.8360  -16.4941   20.0555 C.3     1  UNL1        0.1697
     10 O         -12.3176  -15.4632   19.0782 O.3     1  UNL1       -0.3793
     11 H         -12.9461  -14.8695   19.5179 H       1  UNL1        0.2106
     12 C         -12.3405  -16.4819   21.4681 C.3     1  UNL1        0.1020
     13 N         -13.0770  -17.6701   22.0118 N.3     1  UNL1       -0.2964
     14 H         -14.0700  -17.4985   21.8541 H       1  UNL1        0.1233
     15 C         -11.5678  -18.3493   24.0145 C.3     1  UNL1        0.0171
     16 C         -12.9269  -18.0495   23.4552 C.3     1  UNL1        0.0541
     17 C         -14.1361  -18.1290   24.3394 C.3     1  UNL1        0.0171
     18 C          -4.6676  -18.9158   22.2903 C.3     1  UNL1        0.0584
     19 C          -4.0411  -17.7704   23.0289 C.3     1  UNL1        0.1468
     20 O          -2.5876  -17.4564   22.8322 O.3     1  UNL1       -0.3534
     21 C          -2.1431  -16.6892   21.6222 C.3     1  UNL1        0.1421
     22 C          -2.1674  -17.3399   20.2709 C.3     1  UNL1        0.0297
     23 C          -1.7520  -18.4559   19.3590 C.3     1  UNL1        0.0026
     24 C          -2.6249  -17.3508   18.8425 C.3     1  UNL1        0.0026
@<TRIPOS>BOND
     1    15    16    1
     2    16    17    1
     3    16    13    1
     4    13    12    1
     5    12     9    1
     6     9    10    1
     7     9     8    1
     8     8     7    1
     9     7     1    1
    10     1     2   ar
    11     2     3   ar
    12     3     4   ar
    13     4    18    1
    14    18    19    1
    15    19    20    1
    16    20    21    1
    17    21    22    1
    18    22    23    1
    19    23    24    1
    20     4     5   ar
    21     5     6   ar
    22     6     1   ar
    23    24    22    1
    24    13    14    1
    25    10    11    1
@<TRIPOS>MOLECULE
*****
 24 25 0 0 0
SMALL
GASTEIGER

@<TRIPOS>ATOM
      1 C          -8.8411  -17.1986   22.0808 C.ar    1  UNL1        0.1387
      2 C          -7.5898  -16.8033   22.8073 C.ar    1  UNL1        0.0366
      3 C          -6.3850  -17.6959   22.7666 C.ar    1  UNL1       -0.0011
      4 C          -6.4315  -18.9839   21.9993 C.ar    1  UNL1       -0.0195
      5 C          -7.6828  -19.3793   21.2728 C.ar    1  UNL1       -0.0011
      6 C          -8.8876  -18.4867   21.3135 C.ar    1  UNL1        0.0366
      7 O         -10.0459  -16.3060   22.1216 O.3     1  UNL1       -0.4728
      8 C         -10.6160  -15.7570   20.8474 C.3     1  UNL1        0.2358
      9 C         -11.9886  -16.1667   20.4022 C.3     1  UNL1        0.1697
     10 O         -12.4904  -15.7601   19.0484 O.3     1  UNL1       -0.3793
     11 H         -13.3882  -16.1040   18.9196 H       1  UNL1        0.2106
     12 C         -12.8593  -16.9830   21.3108 C.3     1  UNL1        0.1020
     13 N         -12.2865  -18.1640   22.0368 N.3     1  UNL1       -0.2964
     14 H         -12.6785  -18.9975   21.5986 H       1  UNL1        0.1233
     15 C         -13.8433  -18.0194   24.1117 C.3     1  UNL1        0.0171
     16 C         -12.4987  -18.3112   23.5144 C.3     1  UNL1        0.0541
     17 C         -11.3662  -18.7501   24.3947 C.3     1  UNL1        0.0171
     18 C          -5.2267  -19.8766   21.9585 C.3     1  UNL1        0.0584
     19 C          -4.3604  -19.9117   20.7345 C.3     1  UNL1        0.1468
     20 O          -2.9345  -20.3659   20.8376 O.3     1  UNL1       -0.3534
     21 C          -1.8333  -19.3557   20.9684 C.3     1  UNL1        0.1421
     22 C          -2.1220  -18.0020   21.5464 C.3     1  UNL1        0.0297
     23 C          -2.6850  -17.1527   22.6472 C.3     1  UNL1        0.0026
     24 C          -2.0593  -16.5067   21.4467 C.3     1  UNL1        0.0026
@<TRIPOS>BOND
     1    15    16    1
     2    16    17    1
     3    16    13    1
     4    13    12    1
     5    12     9    1
     6     9    10    1
     7     9     8    1
     8     8     7    1
     9     7     1    1
    10     1     2   ar
    11     2     3   ar
    12     3     4   ar
    13     4    18    1
    14    18    19    1
    15    19    20    1
    16    20    21    1
    17    21    22    1
    18    22    23    1
    19    23    24    1
    20     4     5   ar
    21     5     6   ar
    22     6     1   ar
    23    24    22    1
    24    13    14    1
    25    10    11    1
@<TRIPOS>MOLECULE
*****
 24 25 0 0 0
SMALL
GASTEIGER

@<TRIPOS>ATOM
      1 C          -9.5338  -18.4469   23.5458 C.ar    1  UNL1        0.1387
      2 C          -8.6458  -17.2717   23.2627 C.ar    1  UNL1        0.0366
      3 C          -7.2885  -17.4850   22.6608 C.ar    1  UNL1       -0.0011
      4 C          -6.8192  -18.8736   22.3421 C.ar    1  UNL1       -0.0195
      5 C          -7.7072  -20.0488   22.6252 C.ar    1  UNL1       -0.0011
      6 C          -9.0645  -19.8355   23.2271 C.ar    1  UNL1        0.0366
      7 O         -10.8911  -18.2336   24.1477 O.3     1  UNL1       -0.4728
      8 C         -12.0499  -17.8608   23.2714 C.3     1  UNL1        0.2358
      9 C         -11.8953  -16.7800   22.2428 C.3     1  UNL1        0.1697
     10 O         -11.7322  -15.3525   22.6736 O.3     1  UNL1       -0.3793
     11 H         -11.6455  -14.7864   21.8907 H       1  UNL1        0.2106
     12 C         -11.9037  -17.1268   20.7834 C.3     1  UNL1        0.1020
     13 N         -10.6238  -17.4933   20.0923 N.3     1  UNL1       -0.2964
     14 H         -10.6843  -17.1219   19.1443 H       1  UNL1        0.1233
     15 C          -8.9572  -19.3020   19.2549 C.3     1  UNL1        0.0171
     16 C         -10.2244  -18.9338   19.9683 C.3     1  UNL1        0.0541
     17 C         -11.0920  -20.0062   20.5576 C.3     1  UNL1        0.0171
     18 C          -5.4619  -19.0869   21.7402 C.3     1  UNL1        0.0584
     19 C          -5.3304  -19.4043   20.2801 C.3     1  UNL1        0.1468
     20 O          -4.5029  -18.5227   19.3925 O.3     1  UNL1       -0.3534
     21 C          -3.0071  -18.5380   19.5045 C.3     1  UNL1        0.1421
     22 C          -2.3146  -17.5827   20.4307 C.3     1  UNL1        0.0297
     23 C          -2.2523  -16.8624   21.7449 C.3     1  UNL1        0.0026
     24 C          -1.1775  -16.6485   20.7207 C.3     1  UNL1        0.0026
@<TRIPOS>BOND
     1    15    16    1
     2    16    17    1
     3    16    13    1
     4    13    12    1
     5    12     9    1
     6     9    10    1
     7     9     8    1
     8     8     7    1
     9     7     1    1
    10     1     2   ar
    11     2     3   ar
    12     3     4   ar
    13     4    18    1
    14    18    19    1
    15    19    20    1
    16    20    21    1
    17    21    22    1
    18    22    23    1
    19    23    24    1
    20     4     5   ar
    21     5     6   ar
    22     6     1   ar
    23    24    22    1
    24    13    14    1
    25    10    11    1
