@<TRIPOS>MOLECULE
*****
 24 26 0 0 0
SMALL
GASTEIGER

@<TRIPOS>ATOM
      1 C         -10.9826  -17.3625   22.6764 C.3     1  UNL1        0.0710
      2 C         -11.9211  -18.4605   23.0812 C.3     1  UNL1        0.0257
      3 C         -13.2995  -17.8781   23.1830 C.3     1  UNL1        0.0690
      4 N         -13.2131  -16.4202   22.8411 N.3     1  UNL1       -0.2971
      5 C         -11.7812  -16.1015   22.5280 C.3     1  UNL1        0.0758
      6 H         -13.5272  -15.8597   23.6333 H       1  UNL1        0.1233
      7 C          -9.8268  -16.4900   22.2855 C.2     1  UNL1        0.1700
      8 O          -9.7227  -15.9665   20.8838 O.2     1  UNL1       -0.2916
      9 C          -8.7750  -16.1411   23.2966 C.2     1  UNL1        0.0192
     10 C          -7.3587  -15.9149   22.8579 C.2     1  UNL1        0.0301
     11 C          -6.3069  -15.5660   23.8689 C.2     1  UNL1        0.1571
     12 F          -4.8904  -15.3398   23.4301 F       1  UNL1       -0.2026
     13 C          -6.6717  -15.4432   25.3187 C.2     1  UNL1        0.1050
     14 N          -5.8568  -15.1143   26.5343 N.2     1  UNL1       -0.2419
     15 C          -6.7697  -15.1372   27.7243 C.2     1  UNL1        0.0986
     16 C          -8.1487  -15.4803   27.2442 C.2     1  UNL1        0.0183
     17 C          -8.0882  -15.6694   25.7574 C.2     1  UNL1        0.0037
     18 C          -9.1399  -16.0183   24.7464 C.3     1  UNL1        0.0572
     19 C          -9.9424  -18.4412   22.7431 C.3     1  UNL1        0.0086
     20 C          -9.9588  -19.5616   21.7459 C.3     1  UNL1        0.0005
     21 C         -10.3371  -19.4849   19.6600 C.3     1  UNL1        0.0000
     22 C          -9.1048  -19.4829   20.5152 C.3     1  UNL1        0.0000
     23 C          -7.8725  -19.4809   21.3704 C.3     1  UNL1        0.0000
     24 C          -8.2509  -19.4041   19.2845 C.3     1  UNL1        0.0000
@<TRIPOS>BOND
     1    21    22    1
     2    22    23    1
     3    22    24    1
     4    22    20    1
     5    20    19    1
     6    19     1    1
     7     1     7    1
     8     7     8    2
     9     7     9    1
    10     9    10    2
    11    10    11    1
    12    11    12    1
    13    11    13    2
    14    13    14    1
    15    14    15    2
    16    15    16    1
    17    16    17    2
    18    17    18    1
    19     1     2    1
    20     2     3    1
    21     3     4    1
    22     4     5    1
    23     5     1    1
    24    18     9    1
    25    17    13    1
    26     4     6    1
@<TRIPOS>MOLECULE
*****
 24 26 0 0 0
SMALL
GASTEIGER

@<TRIPOS>ATOM
      1 C          -9.3829  -18.8892   23.1288 C.3     1  UNL1        0.0710
      2 C         -10.0861  -18.3089   24.3200 C.3     1  UNL1        0.0257
      3 C         -10.2603  -19.4013   25.3330 C.3     1  UNL1        0.0690
      4 N          -9.6648  -20.6567   24.7679 N.3     1  UNL1       -0.2971
      5 C          -9.1226  -20.3403   23.4057 C.3     1  UNL1        0.0758
      6 H         -10.3823  -21.3781   24.6959 H       1  UNL1        0.1233
      7 C          -8.7046  -19.1789   21.8227 C.2     1  UNL1        0.1700
      8 O          -9.5239  -19.4502   20.5960 O.2     1  UNL1       -0.2916
      9 C          -7.2067  -19.1971   21.7434 C.2     1  UNL1        0.0192
     10 C          -6.5178  -20.1166   20.7792 C.2     1  UNL1        0.0301
     11 C          -5.0200  -20.1348   20.7000 C.2     1  UNL1        0.1571
     12 F          -4.3311  -21.0545   19.7357 F       1  UNL1       -0.2026
     13 C          -4.2111  -19.2334   21.5850 C.2     1  UNL1        0.1050
     14 N          -2.7317  -19.0327   21.7294 N.2     1  UNL1       -0.2419
     15 C          -2.5063  -17.9890   22.7830 C.2     1  UNL1        0.0986
     16 C          -3.8464  -17.5448   23.2896 C.2     1  UNL1        0.0183
     17 C          -4.9001  -18.3139   22.5492 C.2     1  UNL1        0.0037
     18 C          -6.3979  -18.2957   22.6284 C.3     1  UNL1        0.0572
     19 C          -9.5015  -17.4987   22.5788 C.3     1  UNL1        0.0086
     20 C         -10.8483  -16.8471   22.4709 C.3     1  UNL1        0.0005
     21 C         -12.6006  -17.3016   21.3651 C.3     1  UNL1        0.0000
     22 C         -11.3859  -16.4545   21.1267 C.3     1  UNL1        0.0000
     23 C         -10.1712  -15.6073   20.8884 C.3     1  UNL1        0.0000
     24 C         -11.9235  -16.0618   19.7826 C.3     1  UNL1        0.0000
@<TRIPOS>BOND
     1    21    22    1
     2    22    23    1
     3    22    24    1
     4    22    20    1
     5    20    19    1
     6    19     1    1
     7     1     7    1
     8     7     8    2
     9     7     9    1
    10     9    10    2
    11    10    11    1
    12    11    12    1
    13    11    13    2
    14    13    14    1
    15    14    15    2
    16    15    16    1
    17    16    17    2
    18    17    18    1
    19     1     2    1
    20     2     3    1
    21     3     4    1
    22     4     5    1
    23     5     1    1
    24    18     9    1
    25    17    13    1
    26     4     6    1
@<TRIPOS>MOLECULE
*****
 24 26 0 0 0
SMALL
GASTEIGER

@<TRIPOS>ATOM
      1 C          -9.1778  -18.1045   23.5449 C.3     1  UNL1        0.0710
      2 C          -9.8087  -18.1443   24.9053 C.3     1  UNL1        0.0257
      3 C         -10.3918  -19.5116   25.1060 C.3     1  UNL1        0.0690
      4 N         -10.1213  -20.3169   23.8697 N.3     1  UNL1       -0.2971
      5 C          -9.3711  -19.4473   22.9049 C.3     1  UNL1        0.0758
      6 H         -11.0024  -20.6168   23.4524 H       1  UNL1        0.1233
      7 C          -8.4759  -17.7694   22.2623 C.2     1  UNL1        0.1700
      8 O          -9.0599  -16.7476   21.3326 O.2     1  UNL1       -0.2916
      9 C          -7.1899  -18.4564   21.9096 C.2     1  UNL1        0.0192
     10 C          -7.1973  -19.6256   20.9701 C.2     1  UNL1        0.0301
     11 C          -5.9113  -20.3126   20.6174 C.2     1  UNL1        0.1571
     12 F          -5.9187  -21.4819   19.6779 F       1  UNL1       -0.2026
     13 C          -4.6179  -19.8301   21.2042 C.2     1  UNL1        0.1050
     14 N          -3.2038  -20.3038   21.0424 N.2     1  UNL1       -0.2419
     15 C          -2.3225  -19.4271   21.8819 C.2     1  UNL1        0.0986
     16 C          -3.1918  -18.4117   22.5625 C.2     1  UNL1        0.0183
     17 C          -4.6105  -18.6608   22.1437 C.2     1  UNL1        0.0037
     18 C          -5.8965  -17.9739   22.4964 C.3     1  UNL1        0.0572
     19 C          -8.8378  -16.6917   23.9168 C.3     1  UNL1        0.0086
     20 C          -8.7673  -16.2925   25.3610 C.3     1  UNL1        0.0005
     21 C          -7.1154  -15.2315   24.5575 C.3     1  UNL1        0.0000
     22 C          -7.4964  -15.7262   25.9214 C.3     1  UNL1        0.0000
     23 C          -7.8774  -16.2208   27.2853 C.3     1  UNL1        0.0000
     24 C          -6.2255  -15.1598   26.4818 C.3     1  UNL1        0.0000
@<TRIPOS>BOND
     1    21    22    1
     2    22    23    1
     3    22    24    1
     4    22    20    1
     5    20    19    1
     6    19     1    1
     7     1     7    1
     8     7     8    2
     9     7     9    1
    10     9    10    2
    11    10    11    1
    12    11    12    1
    13    11    13    2
    14    13    14    1
    15    14    15    2
    16    15    16    1
    17    16    17    2
    18    17    18    1
    19     1     2    1
    20     2     3    1
    21     3     4    1
    22     4     5    1
    23     5     1    1
    24    18     9    1
    25    17    13    1
    26     4     6    1
@<TRIPOS>MOLECULE
*****
 24 26 0 0 0
SMALL
GASTEIGER

@<TRIPOS>ATOM
      1 C          -9.4909  -17.7425   22.5495 C.3     1  UNL1        0.0710
      2 C         -10.2600  -16.4560   22.6100 C.3     1  UNL1        0.0257
      3 C         -10.7363  -16.1352   21.2244 C.3     1  UNL1        0.0690
      4 N         -10.2617  -17.2233   20.3075 N.3     1  UNL1       -0.2971
      5 C          -9.4920  -18.2167   21.1264 C.3     1  UNL1        0.0758
      6 H          -9.6589  -16.8289   19.5853 H       1  UNL1        0.1233
      7 C          -8.6865  -18.9841   22.7973 C.2     1  UNL1        0.1700
      8 O          -9.3225  -20.1702   23.4594 O.2     1  UNL1       -0.2916
      9 C          -7.2459  -19.0394   22.3829 C.2     1  UNL1        0.0192
     10 C          -6.7951  -20.0496   21.3699 C.2     1  UNL1        0.0301
     11 C          -5.3545  -20.1050   20.9555 C.2     1  UNL1        0.1571
     12 F          -4.9038  -21.1153   19.9424 F       1  UNL1       -0.2026
     13 C          -4.3647  -19.1500   21.5541 C.2     1  UNL1        0.1050
     14 N          -2.8909  -18.9683   21.3423 N.2     1  UNL1       -0.2419
     15 C          -2.4309  -17.8457   22.2244 C.2     1  UNL1        0.0986
     16 C          -3.6203  -17.3336   22.9814 C.2     1  UNL1        0.0183
     17 C          -4.8155  -18.1398   22.5672 C.2     1  UNL1        0.0037
     18 C          -6.2561  -18.0845   22.9815 C.3     1  UNL1        0.0572
     19 C          -9.3217  -17.5279   24.0244 C.3     1  UNL1        0.0086
     20 C          -9.1248  -16.1418   24.5629 C.3     1  UNL1        0.0005
     21 C          -7.3556  -14.9808   24.4147 C.3     1  UNL1        0.0000
     22 C          -7.9696  -15.8480   25.4735 C.3     1  UNL1        0.0000
     23 C          -8.5837  -16.7152   26.5323 C.3     1  UNL1        0.0000
     24 C          -6.8144  -15.5542   26.3841 C.3     1  UNL1        0.0000
@<TRIPOS>BOND
     1    21    22    1
     2    22    23    1
     3    22    24    1
     4    22    20    1
     5    20    19    1
     6    19     1    1
     7     1     7    1
     8     7     8    2
     9     7     9    1
    10     9    10    2
    11    10    11    1
    12    11    12    1
    13    11    13    2
    14    13    14    1
    15    14    15    2
    16    15    16    1
    17    16    17    2
    18    17    18    1
    19     1     2    1
    20     2     3    1
    21     3     4    1
    22     4     5    1
    23     5     1    1
    24    18     9    1
    25    17    13    1
    26     4     6    1
@<TRIPOS>MOLECULE
*****
 24 26 0 0 0
SMALL
GASTEIGER

@<TRIPOS>ATOM
      1 C          -9.2945  -17.9990   23.4601 C.3     1  UNL1        0.0710
      2 C         -10.0587  -18.1557   24.7414 C.3     1  UNL1        0.0257
      3 C         -10.6789  -19.5214   24.7470 C.3     1  UNL1        0.0690
      4 N         -10.2982  -20.2087   23.4694 N.3     1  UNL1       -0.2971
      5 C          -9.4425  -19.2679   22.6740 C.3     1  UNL1        0.0758
      6 H         -11.1374  -20.4449   22.9399 H       1  UNL1        0.1233
      7 C          -8.4630  -17.5578   22.2922 C.2     1  UNL1        0.1700
      8 O          -9.0308  -16.6010   21.2862 O.2     1  UNL1       -0.2916
      9 C          -7.0637  -18.0735   22.1304 C.2     1  UNL1        0.0192
     10 C          -5.9939  -17.6550   23.0948 C.2     1  UNL1        0.0301
     11 C          -4.5946  -18.1707   22.9329 C.2     1  UNL1        0.1571
     12 F          -3.5248  -17.7521   23.8974 F       1  UNL1       -0.2026
     13 C          -4.2653  -19.1050   21.8066 C.2     1  UNL1        0.1050
     14 N          -2.9856  -19.7718   21.3973 N.2     1  UNL1       -0.2419
     15 C          -3.2645  -20.6024   20.1798 C.2     1  UNL1        0.0986
     16 C          -4.7167  -20.4490   19.8367 C.2     1  UNL1        0.0183
     17 C          -5.3352  -19.5235   20.8421 C.2     1  UNL1        0.0037
     18 C          -6.7344  -19.0078   21.0040 C.3     1  UNL1        0.0572
     19 C          -8.9726  -16.6379   24.0021 C.3     1  UNL1        0.0086
     20 C          -9.0013  -16.3938   25.4819 C.3     1  UNL1        0.0005
     21 C          -8.1964  -16.4586   27.4435 C.3     1  UNL1        0.0000
     22 C          -7.8165  -15.7756   26.1632 C.3     1  UNL1        0.0000
     23 C          -7.4367  -15.0926   24.8828 C.3     1  UNL1        0.0000
     24 C          -6.6317  -15.1574   26.8444 C.3     1  UNL1        0.0000
@<TRIPOS>BOND
     1    21    22    1
     2    22    23    1
     3    22    24    1
     4    22    20    1
     5    20    19    1
     6    19     1    1
     7     1     7    1
     8     7     8    2
     9     7     9    1
    10     9    10    2
    11    10    11    1
    12    11    12    1
    13    11    13    2
    14    13    14    1
    15    14    15    2
    16    15    16    1
    17    16    17    2
    18    17    18    1
    19     1     2    1
    20     2     3    1
    21     3     4    1
    22     4     5    1
    23     5     1    1
    24    18     9    1
    25    17    13    1
    26     4     6    1
@<TRIPOS>MOLECULE
*****
 24 26 0 0 0
SMALL
GASTEIGER

@<TRIPOS>ATOM
      1 C         -10.9694  -17.8351   22.8046 C.3     1  UNL1        0.0710
      2 C         -11.5588  -16.4789   23.0568 C.3     1  UNL1        0.0257
      3 C         -12.6886  -16.2776   22.0911 C.3     1  UNL1        0.0690
      4 N         -12.7977  -17.5093   21.2420 N.3     1  UNL1       -0.2971
      5 C         -11.7352  -18.4719   21.6829 C.3     1  UNL1        0.0758
      6 H         -12.6594  -17.2668   20.2609 H       1  UNL1        0.1233
      7 C         -10.1858  -19.1140   22.7860 C.2     1  UNL1        0.1700
      8 O         -10.6613  -20.2965   23.5769 O.2     1  UNL1       -0.2916
      9 C          -8.9267  -19.2104   21.9765 C.2     1  UNL1        0.0192
     10 C          -8.9983  -19.2366   20.4785 C.2     1  UNL1        0.0301
     11 C          -7.7391  -19.3330   19.6690 C.2     1  UNL1        0.1571
     12 F          -7.8108  -19.3593   18.1709 F       1  UNL1       -0.2026
     13 C          -6.4084  -19.4031   20.3576 C.2     1  UNL1        0.1050
     14 N          -5.0084  -19.5025   19.8283 N.2     1  UNL1       -0.2419
     15 C          -4.0716  -19.5378   20.9992 C.2     1  UNL1        0.0986
     16 C          -4.8925  -19.4600   22.2522 C.2     1  UNL1        0.0183
     17 C          -6.3368  -19.3768   21.8557 C.2     1  UNL1        0.0037
     18 C          -7.5959  -19.2804   22.6651 C.3     1  UNL1        0.0572
     19 C         -10.0399  -17.4657   23.9224 C.3     1  UNL1        0.0086
     20 C          -9.5258  -16.0612   24.0372 C.3     1  UNL1        0.0005
     21 C          -8.3399  -15.9972   25.7948 C.3     1  UNL1        0.0000
     22 C          -8.0754  -15.8150   24.3296 C.3     1  UNL1        0.0000
     23 C          -7.8109  -15.6327   22.8644 C.3     1  UNL1        0.0000
     24 C          -6.6249  -15.5687   24.6221 C.3     1  UNL1        0.0000
@<TRIPOS>BOND
     1    21    22    1
     2    22    23    1
     3    22    24    1
     4    22    20    1
     5    20    19    1
     6    19     1    1
     7     1     7    1
     8     7     8    2
     9     7     9    1
    10     9    10    2
    11    10    11    1
    12    11    12    1
    13    11    13    2
    14    13    14    1
    15    14    15    2
    16    15    16    1
    17    16    17    2
    18    17    18    1
    19     1     2    1
    20     2     3    1
    21     3     4    1
    22     4     5    1
    23     5     1    1
    24    18     9    1
    25    17    13    1
    26     4     6    1
@<TRIPOS>MOLECULE
*****
 24 26 0 0 0
SMALL
GASTEIGER

@<TRIPOS>ATOM
      1 C          -9.3102  -19.0278   21.6306 C.3     1  UNL1        0.0710
      2 C         -10.5022  -18.4211   20.9515 C.3     1  UNL1        0.0257
      3 C         -10.2796  -18.4962   19.4700 C.3     1  UNL1        0.0690
      4 N          -8.9501  -19.1492   19.2336 N.3     1  UNL1       -0.2971
      5 C          -8.3510  -19.4777   20.5688 C.3     1  UNL1        0.0758
      6 H          -8.3366  -18.5114   18.7264 H       1  UNL1        0.1233
      7 C          -8.2735  -19.5638   22.5728 C.2     1  UNL1        0.1700
      8 O          -8.6082  -20.7064   23.4851 O.2     1  UNL1       -0.2916
      9 C          -6.9019  -18.9571   22.6028 C.2     1  UNL1        0.0192
     10 C          -6.7104  -17.5610   23.1165 C.2     1  UNL1        0.0301
     11 C          -5.3389  -16.9543   23.1464 C.2     1  UNL1        0.1571
     12 F          -5.1474  -15.5580   23.6603 F       1  UNL1       -0.2026
     13 C          -4.1589  -17.7438   22.6625 C.2     1  UNL1        0.1050
     14 N          -2.6987  -17.4127   22.5720 N.2     1  UNL1       -0.2419
     15 C          -1.9877  -18.6043   22.0022 C.2     1  UNL1        0.0986
     16 C          -3.0085  -19.6718   21.7406 C.2     1  UNL1        0.0183
     17 C          -4.3504  -19.1400   22.1487 C.2     1  UNL1        0.0037
     18 C          -5.7219  -19.7466   22.1188 C.3     1  UNL1        0.0572
     19 C         -10.0527  -18.6899   22.8894 C.3     1  UNL1        0.0086
     20 C         -11.3748  -17.9853   22.8141 C.3     1  UNL1        0.0005
     21 C         -11.4148  -18.9765   24.6892 C.3     1  UNL1        0.0000
     22 C         -12.4242  -18.2466   23.8536 C.3     1  UNL1        0.0000
     23 C         -13.4336  -17.5166   23.0180 C.3     1  UNL1        0.0000
     24 C         -13.4736  -18.5078   24.8931 C.3     1  UNL1        0.0000
@<TRIPOS>BOND
     1    21    22    1
     2    22    23    1
     3    22    24    1
     4    22    20    1
     5    20    19    1
     6    19     1    1
     7     1     7    1
     8     7     8    2
     9     7     9    1
    10     9    10    2
    11    10    11    1
    12    11    12    1
    13    11    13    2
    14    13    14    1
    15    14    15    2
    16    15    16    1
    17    16    17    2
    18    17    18    1
    19     1     2    1
    20     2     3    1
    21     3     4    1
    22     4     5    1
    23     5     1    1
    24    18     9    1
    25    17    13    1
    26     4     6    1
@<TRIPOS>MOLECULE
*****
 24 26 0 0 0
SMALL
GASTEIGER

@<TRIPOS>ATOM
      1 C         -11.5426   -6.7081   18.2475 C.3     1  UNL1        0.0710
      2 C         -10.3513   -6.5998   19.1526 C.3     1  UNL1        0.0257
      3 C          -9.3787   -7.6754   18.7693 C.3     1  UNL1        0.0690
      4 N          -9.9688   -8.4485   17.6274 N.3     1  UNL1       -0.2971
      5 C         -11.3062   -7.8508   17.3049 C.3     1  UNL1        0.0758
      6 H         -10.0820   -9.4267   17.8935 H       1  UNL1        0.1233
      7 C         -12.8400   -6.5717   17.5072 C.2     1  UNL1        0.1700
      8 O         -12.9335   -5.6606   16.3194 O.2     1  UNL1       -0.2916
      9 C         -14.0440   -7.3465   17.9548 C.2     1  UNL1        0.0192
     10 C         -14.1225   -8.8228   17.7018 C.2     1  UNL1        0.0301
     11 C         -15.3264   -9.5976   18.1494 C.2     1  UNL1        0.1571
     12 F         -15.4048  -11.0741   17.8963 F       1  UNL1       -0.2026
     13 C         -16.4518   -8.8959   18.8501 C.2     1  UNL1        0.1050
     14 N         -17.7551   -9.3923   19.4025 N.2     1  UNL1       -0.2419
     15 C         -18.4821   -8.2226   19.9969 C.2     1  UNL1        0.0986
     16 C         -17.6281   -7.0034   19.8120 C.2     1  UNL1        0.0183
     17 C         -16.3733   -7.4195   19.1032 C.2     1  UNL1        0.0037
     18 C         -15.1694   -6.6448   18.6556 C.3     1  UNL1        0.0572
     19 C         -12.0502   -5.5370   19.0354 C.3     1  UNL1        0.0086
     20 C         -11.2860   -4.2463   19.0371 C.3     1  UNL1        0.0005
     21 C         -13.0874   -3.4761   19.8506 C.3     1  UNL1        0.0000
     22 C         -12.0187   -2.9407   18.9444 C.3     1  UNL1        0.0000
     23 C         -10.9500   -2.4052   18.0383 C.3     1  UNL1        0.0000
     24 C         -12.7514   -1.6351   18.8518 C.3     1  UNL1        0.0000
@<TRIPOS>BOND
     1    21    22    1
     2    22    23    1
     3    22    24    1
     4    22    20    1
     5    20    19    1
     6    19     1    1
     7     1     7    1
     8     7     8    2
     9     7     9    1
    10     9    10    2
    11    10    11    1
    12    11    12    1
    13    11    13    2
    14    13    14    1
    15    14    15    2
    16    15    16    1
    17    16    17    2
    18    17    18    1
    19     1     2    1
    20     2     3    1
    21     3     4    1
    22     4     5    1
    23     5     1    1
    24    18     9    1
    25    17    13    1
    26     4     6    1
@<TRIPOS>MOLECULE
*****
 24 26 0 0 0
SMALL
GASTEIGER

@<TRIPOS>ATOM
      1 C         -11.1009   -6.5995   18.1600 C.3     1  UNL1        0.0710
      2 C          -9.8672   -6.6921   19.0082 C.3     1  UNL1        0.0257
      3 C          -9.1729   -7.9799   18.6774 C.3     1  UNL1        0.0690
      4 N          -9.9775   -8.6832   17.6249 N.3     1  UNL1       -0.2971
      5 C         -11.1691   -7.8301   17.3051 C.3     1  UNL1        0.0758
      6 H         -10.2853   -9.5910   17.9735 H       1  UNL1        0.1233
      7 C         -12.3761   -6.2337   17.4600 C.2     1  UNL1        0.1700
      8 O         -12.3303   -5.5853   16.1082 O.2     1  UNL1       -0.2916
      9 C         -13.6972   -6.5164   18.1119 C.2     1  UNL1        0.0192
     10 C         -14.4938   -5.3948   18.7097 C.2     1  UNL1        0.0301
     11 C         -15.8149   -5.6775   19.3616 C.2     1  UNL1        0.1571
     12 F         -16.6115   -4.5558   19.9594 F       1  UNL1       -0.2026
     13 C         -16.3393   -7.0818   19.4156 C.2     1  UNL1        0.1050
     14 N         -17.5988   -7.6615   19.9880 N.2     1  UNL1       -0.2419
     15 C         -17.5805   -9.1414   19.7439 C.2     1  UNL1        0.0986
     16 C         -16.3098   -9.4763   19.0207 C.2     1  UNL1        0.0183
     17 C         -15.5426   -8.2034   18.8178 C.2     1  UNL1        0.0037
     18 C         -14.2216   -7.9207   18.1659 C.3     1  UNL1        0.0572
     19 C         -11.2994   -5.2924   18.8686 C.3     1  UNL1        0.0086
     20 C         -10.2666   -4.2110   18.7507 C.3     1  UNL1        0.0005
     21 C          -9.4174   -3.6761   16.8818 C.3     1  UNL1        0.0000
     22 C         -10.4657   -3.0865   17.7782 C.3     1  UNL1        0.0000
     23 C         -11.5140   -2.4969   18.6746 C.3     1  UNL1        0.0000
     24 C         -10.6649   -1.9620   16.8057 C.3     1  UNL1        0.0000
@<TRIPOS>BOND
     1    21    22    1
     2    22    23    1
     3    22    24    1
     4    22    20    1
     5    20    19    1
     6    19     1    1
     7     1     7    1
     8     7     8    2
     9     7     9    1
    10     9    10    2
    11    10    11    1
    12    11    12    1
    13    11    13    2
    14    13    14    1
    15    14    15    2
    16    15    16    1
    17    16    17    2
    18    17    18    1
    19     1     2    1
    20     2     3    1
    21     3     4    1
    22     4     5    1
    23     5     1    1
    24    18     9    1
    25    17    13    1
    26     4     6    1
