@<TRIPOS>MOLECULE
*****
 38 42 0 0 0
SMALL
GASTEIGER

@<TRIPOS>ATOM
      1 C          -4.9619  -15.8446   24.8556 C.3     1  UNL1        0.0666
      2 S          -5.6458  -15.1843   23.6953 S.3     1  UNL1       -0.0756
      3 C          -8.1758  -16.0669   25.5580 C.3     1  UNL1        0.1340
      4 N          -8.1252  -16.1143   24.0596 N.ar    1  UNL1       -0.2884
      5 C          -6.9623  -15.7086   23.2034 C.ar    1  UNL1        0.1932
      6 N          -7.3469  -15.9193   21.7690 N.ar    1  UNL1       -0.1221
      7 N          -8.7476  -16.4552   21.7386 N.ar    1  UNL1       -0.1282
      8 C          -9.2287  -16.5758   23.1543 C.ar    1  UNL1        0.1683
      9 C         -10.5764  -17.0708   23.5884 C.ar    1  UNL1        0.0551
     10 C         -11.8204  -16.4244   23.0548 C.ar    1  UNL1        0.0063
     11 C         -13.1682  -16.9194   23.4890 C.ar    1  UNL1        0.0239
     12 C         -13.2719  -18.0609   24.4567 C.ar    1  UNL1        0.1342
     13 N         -12.0279  -18.7073   24.9903 N.ar    1  UNL1       -0.2392
     14 C         -10.6801  -18.2122   24.5561 C.ar    1  UNL1        0.1020
     15 C         -14.6197  -18.5559   24.8908 C.2     1  UNL1        0.2605
     16 N         -15.7382  -18.6552   23.8964 N.am    1  UNL1       -0.3241
     17 O         -14.8489  -18.9516   26.3194 O.2     1  UNL1       -0.2687
     18 H         -15.5878  -18.3955   22.9588 H       1  UNL1        0.1453
     19 H         -16.6228  -18.9801   24.1813 H       1  UNL1        0.1453
     20 C          -4.1257  -17.0702   24.6349 C.3     1  UNL1        0.0294
     21 C          -3.1086  -17.0958   23.5328 C.3     1  UNL1        0.0730
     22 N          -3.1755  -18.1572   22.4749 N.3     1  UNL1       -0.2726
     23 C          -2.0032  -18.8472   21.8428 C.3     1  UNL1        0.0721
     24 C          -2.5297  -19.8312   20.8406 C.3     1  UNL1        0.0190
     25 C          -4.0275  -19.7494   20.8533 C.3     1  UNL1        0.0201
     26 C          -4.2506  -20.7963   19.8025 C.3     1  UNL1        0.0061
     27 C          -5.4230  -20.1063   20.4346 C.3     1  UNL1        0.0237
     28 C          -4.4266  -18.7147   21.8633 C.3     1  UNL1        0.0724
     29 C          -6.9054  -19.9139   20.5578 C.ar    1  UNL1       -0.0225
     30 C          -7.7285  -19.6270   19.3370 C.ar    1  UNL1       -0.0043
     31 C          -9.2110  -19.4346   19.4602 C.ar    1  UNL1        0.0035
     32 C          -9.8704  -19.5291   20.8042 C.ar    1  UNL1        0.0714
     33 C          -9.0473  -19.8160   22.0250 C.ar    1  UNL1        0.0035
     34 C          -7.5648  -20.0084   21.9018 C.ar    1  UNL1       -0.0043
     35 C         -11.3529  -19.3368   20.9274 C.3     1  UNL1        0.4186
     36 F         -12.8355  -19.1444   21.0506 F       1  UNL1       -0.1659
     37 F         -11.4126  -20.4441   21.9374 F       1  UNL1       -0.1659
     38 F         -11.2931  -18.2294   19.9174 F       1  UNL1       -0.1659
@<TRIPOS>BOND
     1     3     4    1
     2     4     5   ar
     3     5     2    1
     4     2     1    1
     5     1    20    1
     6    20    21    1
     7    21    22    1
     8    22    23    1
     9    23    24    1
    10    25    24    1
    11    25    26    1
    12    26    27    1
    13    27    29    1
    14    29    30   ar
    15    30    31   ar
    16    31    32   ar
    17    32    35    1
    18    35    36    1
    19    35    37    1
    20    35    38    1
    21    32    33   ar
    22    33    34   ar
    23    25    28    1
    24     5     6   ar
    25     6     7   ar
    26     7     8   ar
    27     8     9    1
    28     9    10   ar
    29    10    11   ar
    30    11    12   ar
    31    12    15    1
    32    15    16   am
    33    15    17    2
    34    12    13   ar
    35    13    14   ar
    36     8     4   ar
    37    14     9   ar
    38    28    22    1
    39    27    25    1
    40    34    29   ar
    41    16    18    1
    42    16    19    1
@<TRIPOS>MOLECULE
*****
 38 42 0 0 0
SMALL
GASTEIGER

@<TRIPOS>ATOM
      1 C           3.9363   -0.1067   26.0522 C.3     1  UNL1        0.0666
      2 S           3.5679   -1.2035   27.0067 S.3     1  UNL1       -0.0756
      3 C           5.4295   -1.2875   29.6857 C.3     1  UNL1        0.1340
      4 N           3.9797   -0.9063   29.6311 N.ar    1  UNL1       -0.2884
      5 C           3.1240   -0.8677   28.3997 C.ar    1  UNL1        0.1932
      6 N           1.7466   -0.4343   28.8057 N.ar    1  UNL1       -0.1221
      7 N           1.7510   -0.2051   30.2881 N.ar    1  UNL1       -0.1282
      8 C           3.1311   -0.4968   30.7983 C.ar    1  UNL1        0.1683
      9 C           3.5833   -0.3966   32.2250 C.ar    1  UNL1        0.0551
     10 C           4.0917   -1.6144   32.9380 C.ar    1  UNL1        0.0063
     11 C           4.5438   -1.5142   34.3647 C.ar    1  UNL1        0.0239
     12 C           4.4875   -0.1960   35.0784 C.ar    1  UNL1        0.1342
     13 N           3.9790    1.0219   34.3654 N.ar    1  UNL1       -0.2392
     14 C           3.5269    0.9215   32.9387 C.ar    1  UNL1        0.1020
     15 C           4.9396   -0.0957   36.5051 C.2     1  UNL1        0.2605
     16 N           3.9961    0.4069   37.5573 N.am    1  UNL1       -0.3241
     17 O           6.3352   -0.4982   36.8796 O.2     1  UNL1       -0.2687
     18 H           3.0801    0.6711   37.3115 H       1  UNL1        0.1453
     19 H           4.2929    0.4727   38.4937 H       1  UNL1        0.1453
     20 C           4.4660   -0.4445   24.6900 C.3     1  UNL1        0.0294
     21 C           4.8947   -1.8477   24.3786 C.3     1  UNL1        0.0730
     22 N           4.6609   -2.4174   23.0109 N.3     1  UNL1       -0.2726
     23 C           5.2039   -3.7157   22.4918 C.3     1  UNL1        0.0721
     24 C           4.7215   -3.8894   21.0822 C.3     1  UNL1        0.0190
     25 C           3.8804   -2.6984   20.7300 C.3     1  UNL1        0.0201
     26 C           3.5599   -3.1404   19.3329 C.3     1  UNL1        0.0061
     27 C           3.0168   -1.8421   19.8519 C.3     1  UNL1        0.0237
     28 C           3.8429   -1.7886   21.9220 C.3     1  UNL1        0.0724
     29 C           2.2047   -0.5981   19.6447 C.ar    1  UNL1       -0.0225
     30 C           2.6488    0.4299   18.6466 C.ar    1  UNL1       -0.0043
     31 C           1.8368    1.6739   18.4394 C.ar    1  UNL1        0.0035
     32 C           0.5806    1.8899   19.2301 C.ar    1  UNL1        0.0714
     33 C           0.1365    0.8619   20.2282 C.ar    1  UNL1        0.0035
     34 C           0.9485   -0.3821   20.4354 C.ar    1  UNL1       -0.0043
     35 C          -0.2315    3.1339   19.0229 C.3     1  UNL1        0.4186
     36 F          -1.0437    4.3779   18.8156 F       1  UNL1       -0.1659
     37 F           0.7773    3.6267   18.0282 F       1  UNL1       -0.1659
     38 F          -1.2403    2.6411   20.0176 F       1  UNL1       -0.1659
@<TRIPOS>BOND
     1     3     4    1
     2     4     5   ar
     3     5     2    1
     4     2     1    1
     5     1    20    1
     6    20    21    1
     7    21    22    1
     8    22    23    1
     9    23    24    1
    10    25    24    1
    11    25    26    1
    12    26    27    1
    13    27    29    1
    14    29    30   ar
    15    30    31   ar
    16    31    32   ar
    17    32    35    1
    18    35    36    1
    19    35    37    1
    20    35    38    1
    21    32    33   ar
    22    33    34   ar
    23    25    28    1
    24     5     6   ar
    25     6     7   ar
    26     7     8   ar
    27     8     9    1
    28     9    10   ar
    29    10    11   ar
    30    11    12   ar
    31    12    15    1
    32    15    16   am
    33    15    17    2
    34    12    13   ar
    35    13    14   ar
    36     8     4   ar
    37    14     9   ar
    38    28    22    1
    39    27    25    1
    40    34    29   ar
    41    16    18    1
    42    16    19    1
@<TRIPOS>MOLECULE
*****
 38 42 0 0 0
SMALL
GASTEIGER

@<TRIPOS>ATOM
      1 C          -3.8945  -16.7399   26.3278 C.3     1  UNL1        0.0666
      2 S          -4.9494  -15.6971   26.5501 S.3     1  UNL1       -0.0756
      3 C          -5.9620  -15.1255   23.5009 C.3     1  UNL1        0.1340
      4 N          -6.8043  -15.6499   24.6260 N.ar    1  UNL1       -0.2884
      5 C          -6.3388  -15.9126   26.0275 C.ar    1  UNL1        0.1932
      6 N          -7.5067  -16.4286   26.8148 N.ar    1  UNL1       -0.1221
      7 N          -8.6940  -16.4849   25.8997 N.ar    1  UNL1       -0.1282
      8 C          -8.2599  -16.0036   24.5470 C.ar    1  UNL1        0.1683
      9 C          -9.1288  -15.8950   23.3291 C.ar    1  UNL1        0.0551
     10 C         -10.6171  -16.0328   23.4549 C.ar    1  UNL1        0.0063
     11 C         -11.4861  -15.9243   22.2370 C.ar    1  UNL1        0.0239
     12 C         -10.8665  -15.6780   20.8933 C.ar    1  UNL1        0.1342
     13 N          -9.3781  -15.5402   20.7674 N.ar    1  UNL1       -0.2392
     14 C          -8.5093  -15.6488   21.9854 C.ar    1  UNL1        0.1020
     15 C         -11.7354  -15.5694   19.6754 C.2     1  UNL1        0.2605
     16 N         -13.1205  -16.1451   19.6885 N.am    1  UNL1       -0.3241
     17 O         -11.2192  -14.8853   18.4444 O.2     1  UNL1       -0.2687
     18 H         -13.4592  -16.5941   20.4965 H       1  UNL1        0.1453
     19 H         -13.6907  -16.0739   18.8892 H       1  UNL1        0.1453
     20 C          -3.9656  -17.6344   25.1258 C.3     1  UNL1        0.0294
     21 C          -2.9656  -17.4834   24.0181 C.3     1  UNL1        0.0730
     22 N          -3.0686  -18.3419   22.7924 N.3     1  UNL1       -0.2726
     23 C          -1.9191  -18.9246   22.0249 C.3     1  UNL1        0.0721
     24 C          -2.4793  -19.7112   20.8772 C.3     1  UNL1        0.0190
     25 C          -3.9751  -19.6146   20.9352 C.3     1  UNL1        0.0201
     26 C          -4.2339  -20.4583   19.7223 C.3     1  UNL1        0.0061
     27 C          -5.3835  -19.8755   20.4897 C.3     1  UNL1        0.0237
     28 C          -4.3393  -18.7683   22.1189 C.3     1  UNL1        0.0724
     29 C          -6.8602  -19.6896   20.6756 C.ar    1  UNL1       -0.0225
     30 C          -7.7542  -19.5434   19.4800 C.ar    1  UNL1       -0.0043
     31 C          -9.2309  -19.3576   19.6659 C.ar    1  UNL1        0.0035
     32 C          -9.8138  -19.3180   21.0474 C.ar    1  UNL1        0.0714
     33 C          -8.9199  -19.4642   22.2431 C.ar    1  UNL1        0.0035
     34 C          -7.4431  -19.6500   22.0572 C.ar    1  UNL1       -0.0043
     35 C         -11.2906  -19.1321   21.2333 C.3     1  UNL1        0.4186
     36 F         -12.7674  -18.9462   21.4191 F       1  UNL1       -0.1659
     37 F         -11.1393  -19.3987   22.7016 F       1  UNL1       -0.1659
     38 F         -11.4418  -18.8655   19.7650 F       1  UNL1       -0.1659
@<TRIPOS>BOND
     1     3     4    1
     2     4     5   ar
     3     5     2    1
     4     2     1    1
     5     1    20    1
     6    20    21    1
     7    21    22    1
     8    22    23    1
     9    23    24    1
    10    25    24    1
    11    25    26    1
    12    26    27    1
    13    27    29    1
    14    29    30   ar
    15    30    31   ar
    16    31    32   ar
    17    32    35    1
    18    35    36    1
    19    35    37    1
    20    35    38    1
    21    32    33   ar
    22    33    34   ar
    23    25    28    1
    24     5     6   ar
    25     6     7   ar
    26     7     8   ar
    27     8     9    1
    28     9    10   ar
    29    10    11   ar
    30    11    12   ar
    31    12    15    1
    32    15    16   am
    33    15    17    2
    34    12    13   ar
    35    13    14   ar
    36     8     4   ar
    37    14     9   ar
    38    28    22    1
    39    27    25    1
    40    34    29   ar
    41    16    18    1
    42    16    19    1
@<TRIPOS>MOLECULE
*****
 38 42 0 0 0
SMALL
GASTEIGER

@<TRIPOS>ATOM
      1 C          -9.9177   -5.2104   17.2214 C.3     1  UNL1        0.0666
      2 S         -10.4883   -4.2197   16.2504 S.3     1  UNL1       -0.0756
      3 C         -10.8136   -1.3602   17.7889 C.3     1  UNL1        0.1340
      4 N         -11.9319   -2.2125   17.2665 N.ar    1  UNL1       -0.2884
      5 C         -11.7824   -3.5269   16.5593 C.ar    1  UNL1        0.1932
      6 N         -13.1542   -4.0269   16.2153 N.ar    1  UNL1       -0.1221
      7 N         -14.1515   -3.0215   16.7098 N.ar    1  UNL1       -0.1282
      8 C         -13.3962   -1.9001   17.3595 C.ar    1  UNL1        0.1683
      9 C         -13.9991   -0.6805   17.9912 C.ar    1  UNL1        0.0551
     10 C         -15.1706   -0.8173   18.9179 C.ar    1  UNL1        0.0063
     11 C         -15.7736    0.4022   19.5497 C.ar    1  UNL1        0.0239
     12 C         -15.2050    1.7586   19.2546 C.ar    1  UNL1        0.1342
     13 N         -14.0334    1.8954   18.3279 N.ar    1  UNL1       -0.2392
     14 C         -13.4305    0.6758   17.6962 C.ar    1  UNL1        0.1020
     15 C         -15.8079    2.9782   19.8864 C.2     1  UNL1        0.2605
     16 N         -17.2858    3.2178   19.7940 N.am    1  UNL1       -0.3241
     17 O         -14.9330    3.9581   20.6104 O.2     1  UNL1       -0.2687
     18 H         -17.8600    2.5746   19.3188 H       1  UNL1        0.1453
     19 H         -17.6815    4.0182   20.2087 H       1  UNL1        0.1453
     20 C         -10.6523   -6.4859   17.5105 C.3     1  UNL1        0.0294
     21 C         -11.2786   -6.7023   18.8562 C.3     1  UNL1        0.0730
     22 N         -12.4399   -5.8567   19.2877 N.3     1  UNL1       -0.2726
     23 C         -12.3545   -4.5286   19.9798 C.3     1  UNL1        0.0721
     24 C         -13.7523   -4.0418   20.2228 C.3     1  UNL1        0.0190
     25 C         -14.7017   -5.0690   19.6809 C.3     1  UNL1        0.0201
     26 C         -15.9559   -4.3354   20.0534 C.3     1  UNL1        0.0061
     27 C         -16.0413   -5.6634   19.3614 C.3     1  UNL1        0.0237
     28 C         -13.8906   -6.1907   19.1030 C.3     1  UNL1        0.0724
     29 C         -16.8640   -6.7734   18.7774 C.ar    1  UNL1       -0.0225
     30 C         -17.1909   -6.7744   17.3134 C.ar    1  UNL1       -0.0043
     31 C         -18.0136   -7.8844   16.7294 C.ar    1  UNL1        0.0035
     32 C         -18.5095   -8.9933   17.6094 C.ar    1  UNL1        0.0714
     33 C         -18.1827   -8.9923   19.0733 C.ar    1  UNL1        0.0035
     34 C         -17.3600   -7.8823   19.6573 C.ar    1  UNL1       -0.0043
     35 C         -19.3322  -10.1032   17.0253 C.3     1  UNL1        0.4186
     36 F         -20.1550  -11.2133   16.4413 F       1  UNL1       -0.1659
     37 F         -19.8608   -9.1630   15.9830 F       1  UNL1       -0.1659
     38 F         -18.8037  -11.0435   18.0677 F       1  UNL1       -0.1659
@<TRIPOS>BOND
     1     3     4    1
     2     4     5   ar
     3     5     2    1
     4     2     1    1
     5     1    20    1
     6    20    21    1
     7    21    22    1
     8    22    23    1
     9    23    24    1
    10    25    24    1
    11    25    26    1
    12    26    27    1
    13    27    29    1
    14    29    30   ar
    15    30    31   ar
    16    31    32   ar
    17    32    35    1
    18    35    36    1
    19    35    37    1
    20    35    38    1
    21    32    33   ar
    22    33    34   ar
    23    25    28    1
    24     5     6   ar
    25     6     7   ar
    26     7     8   ar
    27     8     9    1
    28     9    10   ar
    29    10    11   ar
    30    11    12   ar
    31    12    15    1
    32    15    16   am
    33    15    17    2
    34    12    13   ar
    35    13    14   ar
    36     8     4   ar
    37    14     9   ar
    38    28    22    1
    39    27    25    1
    40    34    29   ar
    41    16    18    1
    42    16    19    1
@<TRIPOS>MOLECULE
*****
 38 42 0 0 0
SMALL
GASTEIGER

@<TRIPOS>ATOM
      1 C           7.8102   -2.0681   19.7840 C.3     1  UNL1        0.0666
      2 S           8.8420   -3.0595   20.2340 S.3     1  UNL1       -0.0756
      3 C           8.5500   -2.0911   23.3367 C.3     1  UNL1        0.1340
      4 N           8.4323   -3.5010   22.8383 N.ar    1  UNL1       -0.2884
      5 C           8.5665   -3.9461   21.4121 C.ar    1  UNL1        0.1932
      6 N           8.3768   -5.4335   21.3709 N.ar    1  UNL1       -0.1221
      7 N           8.1253   -5.9077   22.7716 N.ar    1  UNL1       -0.1282
      8 C           8.1596   -4.7134   23.6785 C.ar    1  UNL1        0.1683
      9 C           7.9568   -4.7287   25.1647 C.ar    1  UNL1        0.0551
     10 C           6.6670   -5.2333   25.7405 C.ar    1  UNL1        0.0063
     11 C           6.4642   -5.2487   27.2267 C.ar    1  UNL1        0.0239
     12 C           7.5515   -4.7593   28.1370 C.ar    1  UNL1        0.1342
     13 N           8.8413   -4.2547   27.5612 N.ar    1  UNL1       -0.2392
     14 C           9.0440   -4.2394   26.0750 C.ar    1  UNL1        0.1020
     15 C           7.3487   -4.7746   29.6231 C.2     1  UNL1        0.2605
     16 N           7.4997   -3.5089   30.4138 N.am    1  UNL1       -0.3241
     17 O           6.9949   -6.0557   30.3186 O.2     1  UNL1       -0.2687
     18 H           7.7319   -2.6681   29.9573 H       1  UNL1        0.1453
     19 H           7.3667   -3.5190   31.3892 H       1  UNL1        0.1453
     20 C           7.3064   -2.0989   18.3714 C.3     1  UNL1        0.0294
     21 C           6.4889   -0.9583   17.8416 C.3     1  UNL1        0.0730
     22 N           5.0486   -0.8206   18.2372 N.3     1  UNL1       -0.2726
     23 C           3.9012   -0.5511   17.3093 C.3     1  UNL1        0.0721
     24 C           2.6463   -0.4922   18.1289 C.3     1  UNL1        0.0190
     25 C           3.0180   -0.7252   19.5633 C.3     1  UNL1        0.0201
     26 C           1.6245   -0.6126   20.1067 C.3     1  UNL1        0.0061
     27 C           2.7718   -0.8820   21.0346 C.3     1  UNL1        0.0237
     28 C           4.5027   -0.9282   19.6303 C.3     1  UNL1        0.0724
     29 C           3.2921   -1.1281   22.4198 C.ar    1  UNL1       -0.0225
     30 C           4.2390   -2.2632   22.6746 C.ar    1  UNL1       -0.0043
     31 C           4.7593   -2.5094   24.0598 C.ar    1  UNL1        0.0035
     32 C           4.3326   -1.6204   25.1901 C.ar    1  UNL1        0.0714
     33 C           3.3857   -0.4853   24.9353 C.ar    1  UNL1        0.0035
     34 C           2.8654   -0.2392   23.5501 C.ar    1  UNL1       -0.0043
     35 C           4.8528   -1.8665   26.5753 C.3     1  UNL1        0.4186
     36 F           5.3732   -2.1127   27.9606 F       1  UNL1       -0.1659
     37 F           3.4503   -1.8415   27.1065 F       1  UNL1       -0.1659
     38 F           6.2554   -1.8916   26.0441 F       1  UNL1       -0.1659
@<TRIPOS>BOND
     1     3     4    1
     2     4     5   ar
     3     5     2    1
     4     2     1    1
     5     1    20    1
     6    20    21    1
     7    21    22    1
     8    22    23    1
     9    23    24    1
    10    25    24    1
    11    25    26    1
    12    26    27    1
    13    27    29    1
    14    29    30   ar
    15    30    31   ar
    16    31    32   ar
    17    32    35    1
    18    35    36    1
    19    35    37    1
    20    35    38    1
    21    32    33   ar
    22    33    34   ar
    23    25    28    1
    24     5     6   ar
    25     6     7   ar
    26     7     8   ar
    27     8     9    1
    28     9    10   ar
    29    10    11   ar
    30    11    12   ar
    31    12    15    1
    32    15    16   am
    33    15    17    2
    34    12    13   ar
    35    13    14   ar
    36     8     4   ar
    37    14     9   ar
    38    28    22    1
    39    27    25    1
    40    34    29   ar
    41    16    18    1
    42    16    19    1
@<TRIPOS>MOLECULE
*****
 38 42 0 0 0
SMALL
GASTEIGER

@<TRIPOS>ATOM
      1 C           0.4064    5.6759   20.0092 C.3     1  UNL1        0.0666
      2 S           0.2060    4.7199   21.1475 S.3     1  UNL1       -0.0756
      3 C           2.9526    3.0848   20.4898 C.3     1  UNL1        0.1340
      4 N           1.5806    2.4908   20.6122 N.ar    1  UNL1       -0.2884
      5 C           0.3182    3.2424   20.9146 C.ar    1  UNL1        0.1932
      6 N          -0.8124    2.2570   20.9431 N.ar    1  UNL1       -0.1221
      7 N          -0.2487    0.8964   20.6584 N.ar    1  UNL1       -0.1282
      8 C           1.2303    1.0409   20.4539 C.ar    1  UNL1        0.1683
      9 C           2.1903   -0.0696   20.1453 C.ar    1  UNL1        0.0551
     10 C           2.6871   -0.2635   18.7433 C.ar    1  UNL1        0.0063
     11 C           3.6471   -1.3740   18.4347 C.ar    1  UNL1        0.0239
     12 C           4.1103   -2.2905   19.5281 C.ar    1  UNL1        0.1342
     13 N           3.6135   -2.0966   20.9301 N.ar    1  UNL1       -0.2392
     14 C           2.6534   -0.9860   21.2387 C.ar    1  UNL1        0.1020
     15 C           5.0703   -3.4010   19.2195 C.2     1  UNL1        0.2605
     16 N           4.6064   -4.6006   18.4478 N.am    1  UNL1       -0.3241
     17 O           6.4942   -3.3118   19.6826 O.2     1  UNL1       -0.2687
     18 H           3.6718   -4.6592   18.1439 H       1  UNL1        0.1453
     19 H           5.2365   -5.3295   18.2452 H       1  UNL1        0.1453
     20 C          -0.7031    5.9185   19.0293 C.3     1  UNL1        0.0294
     21 C          -1.1130    4.8347   18.0768 C.3     1  UNL1        0.0730
     22 N          -2.5416    4.3798   18.0281 N.3     1  UNL1       -0.2726
     23 C          -3.2945    3.9687   16.7977 C.3     1  UNL1        0.0721
     24 C          -4.6862    3.5910   17.2105 C.3     1  UNL1        0.0190
     25 C          -4.7934    3.7687   18.6960 C.3     1  UNL1        0.0201
     26 C          -6.2253    3.3349   18.8029 C.3     1  UNL1        0.0061
     27 C          -5.4724    3.7460   20.0334 C.3     1  UNL1        0.0237
     28 C          -3.4680    4.2562   19.2014 C.3     1  UNL1        0.0724
     29 C          -5.4297    3.9702   21.5159 C.ar    1  UNL1       -0.0225
     30 C          -5.9896    5.2334   22.0998 C.ar    1  UNL1       -0.0043
     31 C          -5.9469    5.4576   23.5824 C.ar    1  UNL1        0.0035
     32 C          -5.3442    4.4187   24.4809 C.ar    1  UNL1        0.0714
     33 C          -4.7843    3.1555   23.8970 C.ar    1  UNL1        0.0035
     34 C          -4.8271    2.9313   22.4145 C.ar    1  UNL1       -0.0043
     35 C          -5.3015    4.6430   25.9634 C.3     1  UNL1        0.4186
     36 F          -5.2588    4.8672   27.4460 F       1  UNL1       -0.1659
     37 F          -4.2769    3.5558   26.0984 F       1  UNL1       -0.1659
     38 F          -6.3262    5.7301   25.8285 F       1  UNL1       -0.1659
@<TRIPOS>BOND
     1     3     4    1
     2     4     5   ar
     3     5     2    1
     4     2     1    1
     5     1    20    1
     6    20    21    1
     7    21    22    1
     8    22    23    1
     9    23    24    1
    10    25    24    1
    11    25    26    1
    12    26    27    1
    13    27    29    1
    14    29    30   ar
    15    30    31   ar
    16    31    32   ar
    17    32    35    1
    18    35    36    1
    19    35    37    1
    20    35    38    1
    21    32    33   ar
    22    33    34   ar
    23    25    28    1
    24     5     6   ar
    25     6     7   ar
    26     7     8   ar
    27     8     9    1
    28     9    10   ar
    29    10    11   ar
    30    11    12   ar
    31    12    15    1
    32    15    16   am
    33    15    17    2
    34    12    13   ar
    35    13    14   ar
    36     8     4   ar
    37    14     9   ar
    38    28    22    1
    39    27    25    1
    40    34    29   ar
    41    16    18    1
    42    16    19    1
@<TRIPOS>MOLECULE
*****
 38 42 0 0 0
SMALL
GASTEIGER

@<TRIPOS>ATOM
      1 C           7.5754   -2.3770   30.0335 C.3     1  UNL1        0.0666
      2 S           7.6757   -2.5749   31.5170 S.3     1  UNL1       -0.0756
      3 C           7.2858    0.1318   33.2979 C.3     1  UNL1        0.1340
      4 N           6.3231   -1.0155   33.2152 N.ar    1  UNL1       -0.2884
      5 C           6.5023   -2.2596   32.3967 C.ar    1  UNL1        0.1932
      6 N           5.3021   -3.1332   32.6121 N.ar    1  UNL1       -0.1221
      7 N           4.3811   -2.4289   33.5639 N.ar    1  UNL1       -0.1282
      8 C           5.0121   -1.1201   33.9367 C.ar    1  UNL1        0.1683
      9 C           4.4336   -0.0959   34.8674 C.ar    1  UNL1        0.0551
     10 C           4.6466   -0.2216   36.3469 C.ar    1  UNL1        0.0063
     11 C           4.0681    0.8027   37.2776 C.ar    1  UNL1        0.0239
     12 C           3.2767    1.9527   36.7288 C.ar    1  UNL1        0.1342
     13 N           3.0638    2.0785   35.2493 N.ar    1  UNL1       -0.2392
     14 C           3.6423    1.0541   34.3186 C.ar    1  UNL1        0.1020
     15 C           2.6983    2.9770   37.6595 C.2     1  UNL1        0.2605
     16 N           3.5111    3.4864   38.8127 N.am    1  UNL1       -0.3241
     17 O           1.3071    3.4919   37.4370 O.2     1  UNL1       -0.2687
     18 H           4.4241    3.1485   38.9588 H       1  UNL1        0.1453
     19 H           3.1314    4.1587   39.4236 H       1  UNL1        0.1453
     20 C           6.2375   -2.1430   29.3968 C.3     1  UNL1        0.0294
     21 C           6.0955   -2.2062   27.9049 C.3     1  UNL1        0.0730
     22 N           5.0939   -1.3328   27.2092 N.3     1  UNL1       -0.2726
     23 C           4.3663   -0.1697   27.8159 C.3     1  UNL1        0.0721
     24 C           3.4668    0.4127   26.7663 C.3     1  UNL1        0.0190
     25 C           3.6384   -0.3903   25.5110 C.3     1  UNL1        0.0201
     26 C           2.6602    0.3943   24.6880 C.3     1  UNL1        0.0061
     27 C           3.3877   -0.7688   24.0813 C.3     1  UNL1        0.0237
     28 C           4.6440   -1.4691   25.7848 C.3     1  UNL1        0.0724
     29 C           3.6631   -1.6587   22.9057 C.ar    1  UNL1       -0.0225
     30 C           4.4208   -2.9393   23.0957 C.ar    1  UNL1       -0.0043
     31 C           4.6962   -3.8292   21.9200 C.ar    1  UNL1        0.0035
     32 C           4.2138   -3.4386   20.5545 C.ar    1  UNL1        0.0714
     33 C           3.4561   -2.1581   20.3645 C.ar    1  UNL1        0.0035
     34 C           3.1808   -1.2681   21.5402 C.ar    1  UNL1       -0.0043
     35 C           4.4892   -4.3286   19.3789 C.3     1  UNL1        0.4186
     36 F           4.7646   -5.2186   18.2031 F       1  UNL1       -0.1659
     37 F           5.9561   -4.2843   19.6889 F       1  UNL1       -0.1659
     38 F           3.0223   -4.3728   19.0688 F       1  UNL1       -0.1659
@<TRIPOS>BOND
     1     3     4    1
     2     4     5   ar
     3     5     2    1
     4     2     1    1
     5     1    20    1
     6    20    21    1
     7    21    22    1
     8    22    23    1
     9    23    24    1
    10    25    24    1
    11    25    26    1
    12    26    27    1
    13    27    29    1
    14    29    30   ar
    15    30    31   ar
    16    31    32   ar
    17    32    35    1
    18    35    36    1
    19    35    37    1
    20    35    38    1
    21    32    33   ar
    22    33    34   ar
    23    25    28    1
    24     5     6   ar
    25     6     7   ar
    26     7     8   ar
    27     8     9    1
    28     9    10   ar
    29    10    11   ar
    30    11    12   ar
    31    12    15    1
    32    15    16   am
    33    15    17    2
    34    12    13   ar
    35    13    14   ar
    36     8     4   ar
    37    14     9   ar
    38    28    22    1
    39    27    25    1
    40    34    29   ar
    41    16    18    1
    42    16    19    1
@<TRIPOS>MOLECULE
*****
 38 42 0 0 0
SMALL
GASTEIGER

@<TRIPOS>ATOM
      1 C           2.4674    0.2209   29.4035 C.3     1  UNL1        0.0666
      2 S           1.5799    1.2824   29.9828 S.3     1  UNL1       -0.0756
      3 C          -1.0142    0.6130   28.1195 C.3     1  UNL1        0.1340
      4 N          -0.3191    1.9384   28.2197 N.ar    1  UNL1       -0.2884
      5 C           0.8733    2.2461   29.0762 C.ar    1  UNL1        0.1932
      6 N           1.2350    3.6867   28.8669 N.ar    1  UNL1       -0.1221
      7 N           0.2662    4.2694   27.8811 N.ar    1  UNL1       -0.1282
      8 C          -0.6944    3.1889   27.4810 C.ar    1  UNL1        0.1683
      9 C          -1.8306    3.3335   26.5124 C.ar    1  UNL1        0.0551
     10 C          -3.2004    3.6875   27.0107 C.ar    1  UNL1        0.0063
     11 C          -4.3366    3.8320   26.0421 C.ar    1  UNL1        0.0239
     12 C          -4.1028    3.6226   24.5752 C.ar    1  UNL1        0.1342
     13 N          -2.7330    3.2687   24.0770 N.ar    1  UNL1       -0.2392
     14 C          -1.5968    3.1241   25.0457 C.ar    1  UNL1        0.1020
     15 C          -5.2391    3.7672   23.6066 C.2     1  UNL1        0.2605
     16 N          -6.6310    4.0035   24.1132 N.am    1  UNL1       -0.3241
     17 O          -4.9833    3.6756   22.1315 O.2     1  UNL1       -0.2687
     18 H          -6.7989    4.0637   25.0815 H       1  UNL1        0.1453
     19 H          -7.3767    4.0984   23.4775 H       1  UNL1        0.1453
     20 C           3.3014    0.5191   28.1929 C.3     1  UNL1        0.0294
     21 C           3.0669   -0.2333   26.9166 C.3     1  UNL1        0.0730
     22 N           2.6903    0.5073   25.6678 N.3     1  UNL1       -0.2726
     23 C           2.1296    1.8970   25.6020 C.3     1  UNL1        0.0721
     24 C           1.9011    2.2367   24.1590 C.3     1  UNL1        0.0190
     25 C           2.3205    1.0570   23.3329 C.3     1  UNL1        0.0201
     26 C           1.9899    1.6702   22.0045 C.3     1  UNL1        0.0061
     27 C           2.5506    0.2805   22.0703 C.3     1  UNL1        0.0237
     28 C           2.8083   -0.0119   24.2654 C.3     1  UNL1        0.0724
     29 C           3.0071   -0.9702   21.3793 C.ar    1  UNL1       -0.0225
     30 C           2.6722   -1.1936   19.9344 C.ar    1  UNL1       -0.0043
     31 C           3.1287   -2.4443   19.2434 C.ar    1  UNL1        0.0035
     32 C           3.9201   -3.4715   19.9974 C.ar    1  UNL1        0.0714
     33 C           4.2550   -3.2480   21.4424 C.ar    1  UNL1        0.0035
     34 C           3.7985   -1.9973   22.1334 C.ar    1  UNL1       -0.0043
     35 C           4.3766   -4.7221   19.3065 C.3     1  UNL1        0.4186
     36 F           4.8332   -5.9728   18.6155 F       1  UNL1       -0.1659
     37 F           3.5663   -5.5462   20.2627 F       1  UNL1       -0.1659
     38 F           5.1870   -3.8981   18.3503 F       1  UNL1       -0.1659
@<TRIPOS>BOND
     1     3     4    1
     2     4     5   ar
     3     5     2    1
     4     2     1    1
     5     1    20    1
     6    20    21    1
     7    21    22    1
     8    22    23    1
     9    23    24    1
    10    25    24    1
    11    25    26    1
    12    26    27    1
    13    27    29    1
    14    29    30   ar
    15    30    31   ar
    16    31    32   ar
    17    32    35    1
    18    35    36    1
    19    35    37    1
    20    35    38    1
    21    32    33   ar
    22    33    34   ar
    23    25    28    1
    24     5     6   ar
    25     6     7   ar
    26     7     8   ar
    27     8     9    1
    28     9    10   ar
    29    10    11   ar
    30    11    12   ar
    31    12    15    1
    32    15    16   am
    33    15    17    2
    34    12    13   ar
    35    13    14   ar
    36     8     4   ar
    37    14     9   ar
    38    28    22    1
    39    27    25    1
    40    34    29   ar
    41    16    18    1
    42    16    19    1
@<TRIPOS>MOLECULE
*****
 38 42 0 0 0
SMALL
GASTEIGER

@<TRIPOS>ATOM
      1 C          -1.1211    2.5624   25.9450 C.3     1  UNL1        0.0666
      2 S          -0.3753    3.3424   24.9032 S.3     1  UNL1       -0.0756
      3 C           2.0745    1.5942   23.6414 C.3     1  UNL1        0.1340
      4 N           0.8333    2.0236   22.9169 N.ar    1  UNL1       -0.2884
      5 C          -0.2927    2.8272   23.4968 C.ar    1  UNL1        0.1932
      6 N          -1.3218    3.0251   22.4236 N.ar    1  UNL1       -0.1221
      7 N          -0.8317    2.3439   21.1803 N.ar    1  UNL1       -0.1282
      8 C           0.5002    1.7249   21.4851 C.ar    1  UNL1        0.1683
      9 C           1.3498    0.9443   20.5266 C.ar    1  UNL1        0.0551
     10 C           1.6121   -0.5122   20.7714 C.ar    1  UNL1        0.0063
     11 C           2.4617   -1.2928   19.8129 C.ar    1  UNL1        0.0239
     12 C           3.0490   -0.6168   18.6094 C.ar    1  UNL1        0.1342
     13 N           2.7867    0.8396   18.3645 N.ar    1  UNL1       -0.2392
     14 C           1.9371    1.6202   19.3231 C.ar    1  UNL1        0.1020
     15 C           3.8986   -1.3974   17.6508 C.2     1  UNL1        0.2605
     16 N           4.5898   -2.6477   18.1080 N.am    1  UNL1       -0.3241
     17 O           4.0570   -0.9277   16.2351 O.2     1  UNL1       -0.2687
     18 H           4.4859   -2.9560   19.0372 H       1  UNL1        0.1453
     19 H           5.1475   -3.1600   17.4789 H       1  UNL1        0.1453
     20 C          -0.4776    1.3740   26.5957 C.3     1  UNL1        0.0294
     21 C           0.1205    1.5011   27.9655 C.3     1  UNL1        0.0730
     22 N           1.3239    0.6863   28.3370 N.3     1  UNL1       -0.2726
     23 C           1.6440    0.1595   29.7044 C.3     1  UNL1        0.0721
     24 C           2.9364   -0.5970   29.6188 C.3     1  UNL1        0.0190
     25 C           3.4150   -0.5378   28.1984 C.3     1  UNL1        0.0201
     26 C           4.6619   -1.3419   28.4194 C.3     1  UNL1        0.0061
     27 C           4.3417   -0.8150   27.0519 C.3     1  UNL1        0.0237
     28 C           2.4184    0.2554   27.4062 C.3     1  UNL1        0.0724
     29 C           4.6919   -0.6709   25.6005 C.ar    1  UNL1       -0.0225
     30 C           3.9606   -1.4778   24.5689 C.ar    1  UNL1       -0.0043
     31 C           4.3108   -1.3337   23.1175 C.ar    1  UNL1        0.0035
     32 C           5.3922   -0.3827   22.6977 C.ar    1  UNL1        0.0714
     33 C           6.1235    0.4241   23.7294 C.ar    1  UNL1        0.0035
     34 C           5.7733    0.2800   25.1808 C.ar    1  UNL1       -0.0043
     35 C           5.7424   -0.2386   21.2463 C.3     1  UNL1        0.4186
     36 F           6.0926   -0.0946   19.7948 F       1  UNL1       -0.1659
     37 F           4.7273    0.8572   21.1102 F       1  UNL1       -0.1659
     38 F           6.7575   -1.3345   21.3824 F       1  UNL1       -0.1659
@<TRIPOS>BOND
     1     3     4    1
     2     4     5   ar
     3     5     2    1
     4     2     1    1
     5     1    20    1
     6    20    21    1
     7    21    22    1
     8    22    23    1
     9    23    24    1
    10    25    24    1
    11    25    26    1
    12    26    27    1
    13    27    29    1
    14    29    30   ar
    15    30    31   ar
    16    31    32   ar
    17    32    35    1
    18    35    36    1
    19    35    37    1
    20    35    38    1
    21    32    33   ar
    22    33    34   ar
    23    25    28    1
    24     5     6   ar
    25     6     7   ar
    26     7     8   ar
    27     8     9    1
    28     9    10   ar
    29    10    11   ar
    30    11    12   ar
    31    12    15    1
    32    15    16   am
    33    15    17    2
    34    12    13   ar
    35    13    14   ar
    36     8     4   ar
    37    14     9   ar
    38    28    22    1
    39    27    25    1
    40    34    29   ar
    41    16    18    1
    42    16    19    1
