@<TRIPOS>MOLECULE
*****
 52 56 0 0 0
SMALL
GASTEIGER

@<TRIPOS>ATOM
      1 C           1.0989    2.6295   28.8220 C.3     1  UNL1        0.1205
      2 N           1.5975    2.9995   30.1874 N.am    1  UNL1       -0.2737
      3 C           0.8554    2.5390   31.4071 C.2     1  UNL1        0.2506
      4 O          -0.3852    1.7086   31.2612 O.2     1  UNL1       -0.2699
      5 C           2.8381    3.8299   30.3333 C.3     1  UNL1        0.0939
      6 C           3.5801    4.2904   29.1138 C.3     1  UNL1        0.0257
      7 C           3.0815    3.9204   27.7483 C.3     1  UNL1        0.0525
      8 C           1.8410    3.0899   27.6024 C.3     1  UNL1        0.2170
      9 C           2.1948    3.2856   26.1580 C.2     1  UNL1        0.2636
     10 O           2.2333    4.0691   25.5635 O.2     1  UNL1       -0.2711
     11 N           2.5971    2.1095   25.3183 N.am    1  UNL1       -0.2732
     12 C           2.6455    0.7377   25.9232 C.3     1  UNL1        0.1149
     13 C           3.0478   -0.4384   25.0836 C.3     1  UNL1        0.1124
     14 N           3.4017   -0.2428   23.6392 N.pl3   1  UNL1       -0.3017
     15 C           3.3533    1.1291   23.0343 C.3     1  UNL1        0.1124
     16 C           2.9510    2.3051   23.8739 C.3     1  UNL1        0.1149
     17 C           3.8040   -1.4188   22.7995 C.ar    1  UNL1        0.0824
     18 C           4.6237   -2.5229   23.3989 C.ar    1  UNL1        0.0176
     19 C           5.0260   -3.6990   22.5594 C.ar    1  UNL1        0.0015
     20 C           4.6087   -3.7710   21.1204 C.ar    1  UNL1        0.0032
     21 C           3.7891   -2.6669   20.5210 C.ar    1  UNL1        0.0382
     22 C           3.3867   -1.4909   21.3605 C.ar    1  UNL1        0.1517
     23 O           2.5671   -0.3868   20.7611 O.3     1  UNL1       -0.4742
     24 C           2.4189   -0.2864   19.2719 C.3     1  UNL1        0.2059
     25 C           3.1676    0.7689   18.5131 C.3     1  UNL1        0.0532
     26 C           4.6164    0.5678   18.1804 C.3     1  UNL1        0.0455
     27 C           5.0157   -0.4499   17.1533 C.2     1  UNL1        0.0505
     28 O           6.4349   -0.9306   17.0861 O.co2   1  UNL1       -0.5492
     29 O           3.9956   -0.9868   16.1935 O.co2   1  UNL1       -0.5492
     30 C           1.3540    2.9090   32.7725 C.ar    1  UNL1        0.0766
     31 C           2.2362    1.9621   33.5309 C.ar    1  UNL1        0.1033
     32 N           2.7347    2.3322   34.8964 N.ar    1  UNL1       -0.2422
     33 C           2.3511    3.6491   35.5035 C.ar    1  UNL1        0.0988
     34 C           1.4690    4.5960   34.7451 C.ar    1  UNL1        0.0247
     35 C           0.9704    4.2260   33.3796 C.ar    1  UNL1        0.0788
     36 C           0.0882    5.1729   32.6212 C.3     1  UNL1        0.4188
     37 F          -0.7940    6.1198   31.8628 F       1  UNL1       -0.1659
     38 F           1.2995    5.9120   32.1350 F       1  UNL1       -0.1659
     39 F          -1.1231    4.4338   33.1074 F       1  UNL1       -0.1659
     40 C          -0.1417    1.7990   28.6761 C.3     1  UNL1        0.0239
     41 C          -1.2947   -0.5290   28.6982 C.3     1  UNL1        0.0001
     42 C          -0.0463    0.3021   28.6744 C.3     1  UNL1        0.0018
     43 O           0.7233    2.3274   26.9548 O.3     1  UNL1       -0.4718
     44 C          -0.4359    3.0636   26.3513 C.ar    1  UNL1        0.1459
     45 C          -0.9568    4.3999   26.7906 C.ar    1  UNL1        0.0722
     46 S          -2.1206    4.7550   25.9134 S.2     1  UNL1       -0.0794
     47 C          -2.3190    3.6381   24.9320 C.ar    1  UNL1        0.1041
     48 C          -1.2778    2.5927   25.2026 C.ar    1  UNL1        0.0478
     49 C          -3.3735    3.5772   23.8669 C.3     1  UNL1        0.4242
     50 F          -4.4279    3.5162   22.8017 F       1  UNL1       -0.1654
     51 F          -4.4300    3.8440   24.8976 F       1  UNL1       -0.1654
     52 F          -2.3168    3.3103   22.8362 F       1  UNL1       -0.1654
@<TRIPOS>UNITY_ATOM_ATTR
28 1
charge -1
@<TRIPOS>BOND
     1    41    42    1
     2    42    40    1
     3     1    40    1
     4     1     2    1
     5     2     3   am
     6     3     4    2
     7     3    30    1
     8    30    31   ar
     9    31    32   ar
    10    32    33   ar
    11    33    34   ar
    12    34    35   ar
    13    35    36    1
    14    36    37    1
    15    36    38    1
    16    36    39    1
    17     2     5    1
    18     5     6    1
    19     6     7    1
    20     7     8    1
    21     8    43    1
    22    43    44    1
    23    44    45   ar
    24    45    46   ar
    25    46    47   ar
    26    47    49    1
    27    49    50    1
    28    49    51    1
    29    49    52    1
    30    47    48   ar
    31     8     9    1
    32     9    10    2
    33     9    11   am
    34    11    12    1
    35    12    13    1
    36    13    14    1
    37    14    17    1
    38    17    18   ar
    39    18    19   ar
    40    19    20   ar
    41    20    21   ar
    42    21    22   ar
    43    22    23    1
    44    23    24    1
    45    24    25    1
    46    25    26    1
    47    26    27    1
    48    27    28   ar
    49    27    29   ar
    50    14    15    1
    51    15    16    1
    52     8     1    1
    53    48    44   ar
    54    16    11    1
    55    35    30   ar
    56    22    17   ar
@<TRIPOS>MOLECULE
*****
 52 56 0 0 0
SMALL
GASTEIGER

@<TRIPOS>ATOM
      1 C           1.1940    2.5985   28.8264 C.3     1  UNL1        0.1205
      2 N           1.6767    2.9539   30.2014 N.am    1  UNL1       -0.2737
      3 C           0.9116    2.4943   31.4070 C.2     1  UNL1        0.2506
      4 O          -0.3362    1.6792   31.2375 O.2     1  UNL1       -0.2699
      5 C           2.9245    3.7690   30.3708 C.3     1  UNL1        0.0939
      6 C           3.6896    4.2287   29.1653 C.3     1  UNL1        0.0257
      7 C           3.2069    3.8732   27.7903 C.3     1  UNL1        0.0525
      8 C           1.9591    3.0582   27.6209 C.3     1  UNL1        0.2170
      9 C           2.3363    3.2590   26.1831 C.2     1  UNL1        0.2636
     10 O           2.3968    4.0464   25.5956 O.2     1  UNL1       -0.2711
     11 N           2.7295    2.0827   25.3394 N.am    1  UNL1       -0.2732
     12 C           2.7455    0.7055   25.9336 C.3     1  UNL1        0.1149
     13 C           3.1386   -0.4708   25.0901 C.3     1  UNL1        0.1124
     14 N           3.5159   -0.2700   23.6523 N.pl3   1  UNL1       -0.3017
     15 C           3.4999    1.1072   23.0580 C.3     1  UNL1        0.1124
     16 C           3.1068    2.2835   23.9016 C.3     1  UNL1        0.1149
     17 C           3.9091   -1.4463   22.8086 C.ar    1  UNL1        0.0824
     18 C           4.6561   -2.5931   23.4224 C.ar    1  UNL1        0.0176
     19 C           5.0493   -3.7694   22.5789 C.ar    1  UNL1        0.0015
     20 C           4.6956   -3.7989   21.1215 C.ar    1  UNL1        0.0032
     21 C           3.9485   -2.6520   20.5077 C.ar    1  UNL1        0.0382
     22 C           3.5553   -1.4758   21.3512 C.ar    1  UNL1        0.1517
     23 O           2.8083   -0.3289   20.7374 O.3     1  UNL1       -0.4742
     24 C           1.4252   -0.5386   20.1961 C.3     1  UNL1        0.2059
     25 C           0.8420    0.4463   19.2266 C.3     1  UNL1        0.0532
     26 C           0.5672    1.8550   19.6626 C.3     1  UNL1        0.0455
     27 C          -0.4016    2.1197   20.7768 C.2     1  UNL1        0.0505
     28 O           0.0494    2.0151   22.2035 O.co2   1  UNL1       -0.5492
     29 O          -1.8214    2.4891   20.4641 O.co2   1  UNL1       -0.5492
     30 C           1.3943    2.8497   32.7820 C.ar    1  UNL1        0.0766
     31 C           2.2494    1.8853   33.5493 C.ar    1  UNL1        0.1033
     32 N           2.7321    2.2407   34.9243 N.ar    1  UNL1       -0.2422
     33 C           2.3597    3.5606   35.5320 C.ar    1  UNL1        0.0988
     34 C           1.5047    4.5250   34.7647 C.ar    1  UNL1        0.0247
     35 C           1.0220    4.1696   33.3897 C.ar    1  UNL1        0.0788
     36 C           0.1669    5.1340   32.6224 C.3     1  UNL1        0.4188
     37 F          -0.6881    6.0985   31.8551 F       1  UNL1       -0.1659
     38 F           1.3922    5.9001   32.2199 F       1  UNL1       -0.1659
     39 F          -1.0583    4.3680   33.0249 F       1  UNL1       -0.1659
     40 C          -0.0538    1.7835   28.6569 C.3     1  UNL1        0.0239
     41 C          -1.2261   -0.5341   28.7228 C.3     1  UNL1        0.0001
     42 C           0.0265    0.2859   28.6302 C.3     1  UNL1        0.0018
     43 O           0.8423    2.3129   26.9520 O.3     1  UNL1       -0.4718
     44 C          -0.3504    3.0583   26.4308 C.ar    1  UNL1        0.1459
     45 C          -0.7207    4.4731   26.7642 C.ar    1  UNL1        0.0722
     46 S          -1.9815    4.8089   26.0241 S.2     1  UNL1       -0.0794
     47 C          -2.3903    3.6017   25.2333 C.ar    1  UNL1        0.1041
     48 C          -1.3823    2.5197   25.4846 C.ar    1  UNL1        0.0478
     49 C          -3.5956    3.4951   24.3467 C.3     1  UNL1        0.4242
     50 F          -4.8009    3.3885   23.4601 F       1  UNL1       -0.1654
     51 F          -4.4805    3.4391   25.5565 F       1  UNL1       -0.1654
     52 F          -2.7106    3.5511   23.1369 F       1  UNL1       -0.1654
@<TRIPOS>UNITY_ATOM_ATTR
28 1
charge -1
@<TRIPOS>BOND
     1    41    42    1
     2    42    40    1
     3     1    40    1
     4     1     2    1
     5     2     3   am
     6     3     4    2
     7     3    30    1
     8    30    31   ar
     9    31    32   ar
    10    32    33   ar
    11    33    34   ar
    12    34    35   ar
    13    35    36    1
    14    36    37    1
    15    36    38    1
    16    36    39    1
    17     2     5    1
    18     5     6    1
    19     6     7    1
    20     7     8    1
    21     8    43    1
    22    43    44    1
    23    44    45   ar
    24    45    46   ar
    25    46    47   ar
    26    47    49    1
    27    49    50    1
    28    49    51    1
    29    49    52    1
    30    47    48   ar
    31     8     9    1
    32     9    10    2
    33     9    11   am
    34    11    12    1
    35    12    13    1
    36    13    14    1
    37    14    17    1
    38    17    18   ar
    39    18    19   ar
    40    19    20   ar
    41    20    21   ar
    42    21    22   ar
    43    22    23    1
    44    23    24    1
    45    24    25    1
    46    25    26    1
    47    26    27    1
    48    27    28   ar
    49    27    29   ar
    50    14    15    1
    51    15    16    1
    52     8     1    1
    53    48    44   ar
    54    16    11    1
    55    35    30   ar
    56    22    17   ar
@<TRIPOS>MOLECULE
*****
 52 56 0 0 0
SMALL
GASTEIGER

@<TRIPOS>ATOM
      1 C           1.1731    1.9224   28.4060 C.3     1  UNL1        0.1205
      2 N           1.6789    2.1953   29.7915 N.am    1  UNL1       -0.2737
      3 C           1.8645    1.0638   30.7586 C.2     1  UNL1        0.2506
      4 O           1.5444   -0.3407   30.3401 O.2     1  UNL1       -0.2699
      5 C           1.9990    3.5997   30.2100 C.3     1  UNL1        0.0939
      6 C           1.8134    4.7312   29.2430 C.3     1  UNL1        0.0257
      7 C           1.3076    4.4584   27.8575 C.3     1  UNL1        0.0525
      8 C           0.9875    3.0539   27.4390 C.3     1  UNL1        0.2170
      9 C           0.6500    3.7861   26.1741 C.2     1  UNL1        0.2636
     10 O           1.1859    4.1909   25.4546 O.2     1  UNL1       -0.2711
     11 N          -0.7843    4.0217   25.8037 N.am    1  UNL1       -0.2732
     12 C          -1.8812    3.5252   26.6983 C.3     1  UNL1        0.1149
     13 C          -3.3155    3.7607   26.3280 C.3     1  UNL1        0.1124
     14 N          -3.6530    4.4928   25.0631 N.pl3   1  UNL1       -0.3017
     15 C          -2.5562    4.9894   24.1684 C.3     1  UNL1        0.1124
     16 C          -1.1218    4.7538   24.5387 C.3     1  UNL1        0.1149
     17 C          -5.0874    4.7285   24.6927 C.ar    1  UNL1        0.0824
     18 C          -5.8953    5.7514   25.4350 C.ar    1  UNL1        0.0176
     19 C          -7.3296    5.9871   25.0646 C.ar    1  UNL1        0.0015
     20 C          -7.9560    5.1999   23.9521 C.ar    1  UNL1        0.0032
     21 C          -7.1481    4.1769   23.2098 C.ar    1  UNL1        0.0382
     22 C          -5.7138    3.9412   23.5801 C.ar    1  UNL1        0.1517
     23 O          -4.9059    2.9183   22.8379 O.3     1  UNL1       -0.4742
     24 C          -4.7123    3.0467   21.3560 C.3     1  UNL1        0.2059
     25 C          -3.7952    4.0996   20.8079 C.3     1  UNL1        0.0532
     26 C          -2.8430    3.7617   19.6993 C.3     1  UNL1        0.0455
     27 C          -1.4438    3.3262   20.0191 C.2     1  UNL1        0.0505
     28 O          -1.1966    2.3593   21.1389 O.co2   1  UNL1       -0.5492
     29 O          -0.2915    3.8577   19.2191 O.co2   1  UNL1       -0.5492
     30 C           2.3703    1.3366   32.1442 C.ar    1  UNL1        0.0766
     31 C           1.5346    2.1294   33.1050 C.ar    1  UNL1        0.1033
     32 N           2.0405    2.4023   34.4906 N.ar    1  UNL1       -0.2422
     33 C           3.3818    1.8824   34.9152 C.ar    1  UNL1        0.0988
     34 C           4.2175    1.0897   33.9544 C.ar    1  UNL1        0.0247
     35 C           3.7117    0.8168   32.5689 C.ar    1  UNL1        0.0788
     36 C           4.5474    0.0240   31.6080 C.3     1  UNL1        0.4188
     37 F           5.3830   -0.7687   30.6472 F       1  UNL1       -0.1659
     38 F           5.1420    1.2946   31.0769 F       1  UNL1       -0.1659
     39 F           3.9527   -1.2465   32.1392 F       1  UNL1       -0.1659
     40 C           0.8530    0.5180   27.9875 C.3     1  UNL1        0.0239
     41 C          -1.4839    0.6560   29.1143 C.3     1  UNL1        0.0001
     42 C          -0.5345   -0.0215   28.1711 C.3     1  UNL1        0.0018
     43 O           0.5501    1.9038   26.5811 O.3     1  UNL1       -0.4718
     44 C           1.4475    1.3973   25.4911 C.ar    1  UNL1        0.1459
     45 C           2.9451    1.3294   25.5424 C.ar    1  UNL1        0.0722
     46 S           3.4281    0.7600   24.2415 S.2     1  UNL1       -0.0794
     47 C           2.2289    0.4760   23.3862 C.ar    1  UNL1        0.1041
     48 C           1.0049    0.8699   24.1585 C.ar    1  UNL1        0.0478
     49 C           2.2501   -0.1008   22.0016 C.3     1  UNL1        0.4242
     50 F           2.2712   -0.6774   20.6170 F       1  UNL1       -0.1654
     51 F           2.8369   -1.3718   22.5400 F       1  UNL1       -0.1654
     52 F           1.6633    1.1704   21.4632 F       1  UNL1       -0.1654
@<TRIPOS>UNITY_ATOM_ATTR
28 1
charge -1
@<TRIPOS>BOND
     1    41    42    1
     2    42    40    1
     3     1    40    1
     4     1     2    1
     5     2     3   am
     6     3     4    2
     7     3    30    1
     8    30    31   ar
     9    31    32   ar
    10    32    33   ar
    11    33    34   ar
    12    34    35   ar
    13    35    36    1
    14    36    37    1
    15    36    38    1
    16    36    39    1
    17     2     5    1
    18     5     6    1
    19     6     7    1
    20     7     8    1
    21     8    43    1
    22    43    44    1
    23    44    45   ar
    24    45    46   ar
    25    46    47   ar
    26    47    49    1
    27    49    50    1
    28    49    51    1
    29    49    52    1
    30    47    48   ar
    31     8     9    1
    32     9    10    2
    33     9    11   am
    34    11    12    1
    35    12    13    1
    36    13    14    1
    37    14    17    1
    38    17    18   ar
    39    18    19   ar
    40    19    20   ar
    41    20    21   ar
    42    21    22   ar
    43    22    23    1
    44    23    24    1
    45    24    25    1
    46    25    26    1
    47    26    27    1
    48    27    28   ar
    49    27    29   ar
    50    14    15    1
    51    15    16    1
    52     8     1    1
    53    48    44   ar
    54    16    11    1
    55    35    30   ar
    56    22    17   ar
@<TRIPOS>MOLECULE
*****
 52 56 0 0 0
SMALL
GASTEIGER

@<TRIPOS>ATOM
      1 C           0.9890    2.5616   28.5946 C.3     1  UNL1        0.1205
      2 N           1.5428    2.9049   29.9457 N.am    1  UNL1       -0.2737
      3 C           0.8588    2.4082   31.1849 C.2     1  UNL1        0.2506
      4 O          -0.3790    1.5683   31.0729 O.2     1  UNL1       -0.2699
      5 C           2.7806    3.7447   30.0576 C.3     1  UNL1        0.0939
      6 C           3.4646    4.2414   28.8185 C.3     1  UNL1        0.0257
      7 C           2.9108    3.8982   27.4675 C.3     1  UNL1        0.0525
      8 C           1.6730    3.0583   27.3555 C.3     1  UNL1        0.2170
      9 C           1.9620    3.2914   25.9022 C.2     1  UNL1        0.2636
     10 O           1.9609    4.0880   25.3240 O.2     1  UNL1       -0.2711
     11 N           2.3502    2.1415   25.0207 N.am    1  UNL1       -0.2732
     12 C           2.4495    0.7583   25.5927 C.3     1  UNL1        0.1149
     13 C           2.8377   -0.3916   24.7113 C.3     1  UNL1        0.1124
     14 N           3.1267   -0.1585   23.2580 N.pl3   1  UNL1       -0.3017
     15 C           3.0274    1.2247   22.6861 C.3     1  UNL1        0.1124
     16 C           2.6392    2.3746   23.5674 C.3     1  UNL1        0.1149
     17 C           3.5149   -1.3084   22.3766 C.ar    1  UNL1        0.0824
     18 C           3.1144   -1.3139   20.9310 C.ar    1  UNL1        0.0176
     19 C           3.5025   -2.4637   20.0496 C.ar    1  UNL1        0.0015
     20 C           4.2912   -3.6082   20.6136 C.ar    1  UNL1        0.0032
     21 C           4.6918   -3.6027   22.0591 C.ar    1  UNL1        0.0382
     22 C           4.3036   -2.4529   22.9406 C.ar    1  UNL1        0.1517
     23 O           4.7041   -2.4475   24.3862 O.3     1  UNL1       -0.4742
     24 C           6.1562   -2.4382   24.7620 C.3     1  UNL1        0.2059
     25 C           6.6683   -3.3923   25.8001 C.3     1  UNL1        0.0532
     26 C           7.7221   -4.3973   25.4403 C.3     1  UNL1        0.0455
     27 C           8.1420   -4.5642   24.0099 C.2     1  UNL1        0.0505
     28 O           7.4384   -5.5568   23.1326 O.co2   1  UNL1       -0.5492
     29 O           9.2656   -3.7384   23.4569 O.co2   1  UNL1       -0.5492
     30 C           1.4126    2.7514   32.5360 C.ar    1  UNL1        0.0766
     31 C           2.3310    1.7936   33.2355 C.ar    1  UNL1        0.1033
     32 N           2.8848    2.1369   34.5867 N.ar    1  UNL1       -0.2422
     33 C           2.5202    3.4379   35.2382 C.ar    1  UNL1        0.0988
     34 C           1.6018    4.3956   34.5387 C.ar    1  UNL1        0.0247
     35 C           1.0480    4.0524   33.1876 C.ar    1  UNL1        0.0788
     36 C           0.1297    5.0101   32.4881 C.3     1  UNL1        0.4188
     37 F          -0.7887    5.9679   31.7885 F       1  UNL1       -0.1659
     38 F           1.3101    5.8337   32.0659 F       1  UNL1       -0.1659
     39 F          -1.0508    4.1865   32.9102 F       1  UNL1       -0.1659
     40 C          -0.2488    1.7218   28.4826 C.3     1  UNL1        0.0239
     41 C          -1.3432   -0.6218   28.7271 C.3     1  UNL1        0.0001
     42 C          -0.1393    0.2264   28.4422 C.3     1  UNL1        0.0018
     43 O           0.5356    2.2994   26.7387 O.3     1  UNL1       -0.4718
     44 C          -0.6657    3.0356   26.2241 C.ar    1  UNL1        0.1459
     45 C          -1.1232    4.3941   26.6657 C.ar    1  UNL1        0.0722
     46 S          -2.3607    4.7406   25.8920 S.2     1  UNL1       -0.0794
     47 C          -2.6680    3.5962   24.9723 C.ar    1  UNL1        0.1041
     48 C          -1.6204    2.5424   25.1775 C.ar    1  UNL1        0.0478
     49 C          -3.8206    3.5191   24.0153 C.3     1  UNL1        0.4242
     50 F          -4.9731    3.4419   23.0584 F       1  UNL1       -0.1654
     51 F          -2.8610    3.4748   22.8633 F       1  UNL1       -0.1654
     52 F          -4.7801    3.5634   25.1674 F       1  UNL1       -0.1654
@<TRIPOS>UNITY_ATOM_ATTR
28 1
charge -1
@<TRIPOS>BOND
     1    41    42    1
     2    42    40    1
     3     1    40    1
     4     1     2    1
     5     2     3   am
     6     3     4    2
     7     3    30    1
     8    30    31   ar
     9    31    32   ar
    10    32    33   ar
    11    33    34   ar
    12    34    35   ar
    13    35    36    1
    14    36    37    1
    15    36    38    1
    16    36    39    1
    17     2     5    1
    18     5     6    1
    19     6     7    1
    20     7     8    1
    21     8    43    1
    22    43    44    1
    23    44    45   ar
    24    45    46   ar
    25    46    47   ar
    26    47    49    1
    27    49    50    1
    28    49    51    1
    29    49    52    1
    30    47    48   ar
    31     8     9    1
    32     9    10    2
    33     9    11   am
    34    11    12    1
    35    12    13    1
    36    13    14    1
    37    14    17    1
    38    17    18   ar
    39    18    19   ar
    40    19    20   ar
    41    20    21   ar
    42    21    22   ar
    43    22    23    1
    44    23    24    1
    45    24    25    1
    46    25    26    1
    47    26    27    1
    48    27    28   ar
    49    27    29   ar
    50    14    15    1
    51    15    16    1
    52     8     1    1
    53    48    44   ar
    54    16    11    1
    55    35    30   ar
    56    22    17   ar
@<TRIPOS>MOLECULE
*****
 52 56 0 0 0
SMALL
GASTEIGER

@<TRIPOS>ATOM
      1 C           0.5013    2.6569   27.6270 C.3     1  UNL1        0.1205
      2 N          -0.1732    3.4999   26.5858 N.am    1  UNL1       -0.2737
      3 C          -1.6591    3.4144   26.3987 C.2     1  UNL1        0.2506
      4 O          -2.4703    2.4858   27.2529 O.2     1  UNL1       -0.2699
      5 C           0.6380    4.4286   25.7317 C.3     1  UNL1        0.0939
      6 C           2.1238    4.5141   25.9187 C.3     1  UNL1        0.0257
      7 C           2.7984    3.6710   26.9599 C.3     1  UNL1        0.0525
      8 C           1.9871    2.7424   27.8141 C.3     1  UNL1        0.2170
      9 C           3.3564    2.4729   28.3641 C.2     1  UNL1        0.2636
     10 O           3.9833    2.9886   28.9207 O.2     1  UNL1       -0.2711
     11 N           4.0360    1.1667   28.0780 N.am    1  UNL1       -0.2732
     12 C           3.3463    0.1298   27.2418 C.3     1  UNL1        0.1149
     13 C           4.0258   -1.1764   26.9556 C.3     1  UNL1        0.1124
     14 N           5.3950   -1.4458   27.5056 N.pl3   1  UNL1       -0.3017
     15 C           6.0847   -0.4090   28.3419 C.3     1  UNL1        0.1124
     16 C           5.4052    0.8973   28.6280 C.3     1  UNL1        0.1149
     17 C           6.0746   -2.7521   27.2195 C.ar    1  UNL1        0.0824
     18 C           6.4230   -3.1229   25.8084 C.ar    1  UNL1        0.0176
     19 C           7.1026   -4.4291   25.5222 C.ar    1  UNL1        0.0015
     20 C           7.4338   -5.3645   26.6471 C.ar    1  UNL1        0.0032
     21 C           7.0854   -4.9937   28.0582 C.ar    1  UNL1        0.0382
     22 C           6.4058   -3.6875   28.3444 C.ar    1  UNL1        0.1517
     23 O           6.0574   -3.3166   29.7555 O.3     1  UNL1       -0.4742
     24 C           6.8413   -3.8923   30.8975 C.3     1  UNL1        0.2059
     25 C           6.3722   -3.6877   32.3076 C.3     1  UNL1        0.0532
     26 C           6.0029   -2.3140   32.7833 C.3     1  UNL1        0.0455
     27 C           4.6387   -2.0591   33.3525 C.2     1  UNL1        0.0505
     28 O           4.1542   -0.6517   33.5376 O.co2   1  UNL1       -0.5492
     29 O           3.7590   -3.2118   33.7368 O.co2   1  UNL1       -0.5492
     30 C          -2.3337    4.2575   25.3575 C.ar    1  UNL1        0.0766
     31 C          -2.3843    3.7916   23.9326 C.ar    1  UNL1        0.1033
     32 N          -3.0589    4.6348   22.8914 N.ar    1  UNL1       -0.2422
     33 C          -3.6828    5.9437   23.2751 C.ar    1  UNL1        0.0988
     34 C          -3.6322    6.4096   24.7000 C.ar    1  UNL1        0.0247
     35 C          -2.9577    5.5665   25.7412 C.ar    1  UNL1        0.0788
     36 C          -2.9071    6.0324   27.1661 C.3     1  UNL1        0.4188
     37 F          -2.8564    6.4983   28.5911 F       1  UNL1       -0.1659
     38 F          -1.6131    6.7388   26.8892 F       1  UNL1       -0.1659
     39 F          -4.2010    5.3260   27.4431 F       1  UNL1       -0.1659
     40 C          -0.3099    1.7282   28.4812 C.3     1  UNL1        0.0239
     41 C          -1.4347   -0.5861   28.8396 C.3     1  UNL1        0.0001
     42 C          -0.5272    0.3086   28.0484 C.3     1  UNL1        0.0018
     43 O           1.6515    1.7202   28.8593 O.3     1  UNL1       -0.4718
     44 C           1.5942    2.1164   30.3048 C.ar    1  UNL1        0.1459
     45 C           2.0617    1.2886   31.4651 C.ar    1  UNL1        0.0722
     46 S           1.8157    2.0706   32.7213 S.2     1  UNL1       -0.0794
     47 C           1.1962    3.3816   32.3374 C.ar    1  UNL1        0.1041
     48 C           1.0593    3.4099   30.8439 C.ar    1  UNL1        0.0478
     49 C           0.7856    4.4728   33.2812 C.3     1  UNL1        0.4242
     50 F           0.3751    5.5640   34.2251 F       1  UNL1       -0.1654
     51 F          -0.6361    4.3336   32.8237 F       1  UNL1       -0.1654
     52 F           2.2074    4.6119   33.7387 F       1  UNL1       -0.1654
@<TRIPOS>UNITY_ATOM_ATTR
28 1
charge -1
@<TRIPOS>BOND
     1    41    42    1
     2    42    40    1
     3     1    40    1
     4     1     2    1
     5     2     3   am
     6     3     4    2
     7     3    30    1
     8    30    31   ar
     9    31    32   ar
    10    32    33   ar
    11    33    34   ar
    12    34    35   ar
    13    35    36    1
    14    36    37    1
    15    36    38    1
    16    36    39    1
    17     2     5    1
    18     5     6    1
    19     6     7    1
    20     7     8    1
    21     8    43    1
    22    43    44    1
    23    44    45   ar
    24    45    46   ar
    25    46    47   ar
    26    47    49    1
    27    49    50    1
    28    49    51    1
    29    49    52    1
    30    47    48   ar
    31     8     9    1
    32     9    10    2
    33     9    11   am
    34    11    12    1
    35    12    13    1
    36    13    14    1
    37    14    17    1
    38    17    18   ar
    39    18    19   ar
    40    19    20   ar
    41    20    21   ar
    42    21    22   ar
    43    22    23    1
    44    23    24    1
    45    24    25    1
    46    25    26    1
    47    26    27    1
    48    27    28   ar
    49    27    29   ar
    50    14    15    1
    51    15    16    1
    52     8     1    1
    53    48    44   ar
    54    16    11    1
    55    35    30   ar
    56    22    17   ar
@<TRIPOS>MOLECULE
*****
 52 56 0 0 0
SMALL
GASTEIGER

@<TRIPOS>ATOM
      1 C           5.0320   -0.2041   29.4584 C.3     1  UNL1        0.1205
      2 N           4.1687    0.1962   28.2990 N.am    1  UNL1       -0.2737
      3 C           4.7965    0.7289   27.0451 C.2     1  UNL1        0.2506
      4 O           6.2877    0.8612   26.9507 O.2     1  UNL1       -0.2699
      5 C           2.6775    0.0640   28.3933 C.3     1  UNL1        0.0939
      6 C           2.0497   -0.4687   29.6472 C.3     1  UNL1        0.0257
      7 C           2.9130   -0.8690   30.8066 C.3     1  UNL1        0.0525
      8 C           4.4042   -0.7368   30.7122 C.3     1  UNL1        0.2170
      9 C           4.2791   -1.2902   32.1007 C.2     1  UNL1        0.2636
     10 O           3.9744   -2.1507   32.4689 O.2     1  UNL1       -0.2711
     11 N           4.6711   -0.4513   33.2807 N.am    1  UNL1       -0.2732
     12 C           5.1882    0.9413   33.0722 C.3     1  UNL1        0.1149
     13 C           5.5801    1.7803   34.2521 C.3     1  UNL1        0.1124
     14 N           5.4551    1.2269   35.6406 N.pl3   1  UNL1       -0.3017
     15 C           4.9380   -0.1657   35.8492 C.3     1  UNL1        0.1124
     16 C           4.5461   -1.0047   34.6692 C.3     1  UNL1        0.1149
     17 C           5.8471    2.0658   36.8207 C.ar    1  UNL1        0.0824
     18 C           6.9579    1.6177   37.7236 C.ar    1  UNL1        0.0176
     19 C           7.3500    2.4566   38.9036 C.ar    1  UNL1        0.0015
     20 C           6.6311    3.7436   39.1808 C.ar    1  UNL1        0.0032
     21 C           5.5203    4.1918   38.2779 C.ar    1  UNL1        0.0382
     22 C           5.1282    3.3529   37.0979 C.ar    1  UNL1        0.1517
     23 O           4.0173    3.8010   36.1949 O.3     1  UNL1       -0.4742
     24 C           2.6156    3.3253   36.4375 C.3     1  UNL1        0.2059
     25 C           1.9635    3.5604   37.7678 C.3     1  UNL1        0.0532
     26 C           2.1293    2.5586   38.8718 C.3     1  UNL1        0.0455
     27 C           0.9228    2.0121   39.5759 C.2     1  UNL1        0.0505
     28 O          -0.0368    1.1244   38.8404 O.co2   1  UNL1       -0.5492
     29 O           0.6760    2.3533   41.0156 O.co2   1  UNL1       -0.5492
     30 C           3.9331    1.1293   25.8856 C.ar    1  UNL1        0.0766
     31 C           3.2385    2.4588   25.8916 C.ar    1  UNL1        0.1033
     32 N           2.3751    2.8591   24.7321 N.ar    1  UNL1       -0.2422
     33 C           2.2064    1.9300   23.5667 C.ar    1  UNL1        0.0988
     34 C           2.9010    0.6005   23.5607 C.ar    1  UNL1        0.0247
     35 C           3.7644    0.2002   24.7201 C.ar    1  UNL1        0.0788
     36 C           4.4590   -1.1293   24.7141 C.3     1  UNL1        0.4188
     37 F           5.1536   -2.4588   24.7081 F       1  UNL1       -0.1659
     38 F           5.4757   -0.5937   23.7501 F       1  UNL1       -0.1659
     39 F           3.4422   -1.6649   25.6781 F       1  UNL1       -0.1659
     40 C           6.5232   -0.0719   29.3640 C.3     1  UNL1        0.0239
     41 C           8.6498    1.1924   30.1572 C.3     1  UNL1        0.0001
     42 C           7.1927    1.1973   29.8009 C.3     1  UNL1        0.0018
     43 O           5.8519   -0.7967   31.1001 O.3     1  UNL1       -0.4718
     44 C           6.5787   -2.1088   31.0851 C.ar    1  UNL1        0.1459
     45 C           7.6298   -2.5456   32.0621 C.ar    1  UNL1        0.0722
     46 S           8.0828   -3.9212   31.6714 S.2     1  UNL1       -0.0794
     47 C           7.3117   -4.3344   30.4530 C.ar    1  UNL1        0.1041
     48 C           6.3821   -3.2143   30.0906 C.ar    1  UNL1        0.0478
     49 C           7.4464   -5.6389   29.7246 C.3     1  UNL1        0.4242
     50 F           7.5812   -6.9433   28.9964 F       1  UNL1       -0.1654
     51 F           6.1566   -5.3715   29.0072 F       1  UNL1       -0.1654
     52 F           8.7363   -5.9062   30.4422 F       1  UNL1       -0.1654
@<TRIPOS>UNITY_ATOM_ATTR
28 1
charge -1
@<TRIPOS>BOND
     1    41    42    1
     2    42    40    1
     3     1    40    1
     4     1     2    1
     5     2     3   am
     6     3     4    2
     7     3    30    1
     8    30    31   ar
     9    31    32   ar
    10    32    33   ar
    11    33    34   ar
    12    34    35   ar
    13    35    36    1
    14    36    37    1
    15    36    38    1
    16    36    39    1
    17     2     5    1
    18     5     6    1
    19     6     7    1
    20     7     8    1
    21     8    43    1
    22    43    44    1
    23    44    45   ar
    24    45    46   ar
    25    46    47   ar
    26    47    49    1
    27    49    50    1
    28    49    51    1
    29    49    52    1
    30    47    48   ar
    31     8     9    1
    32     9    10    2
    33     9    11   am
    34    11    12    1
    35    12    13    1
    36    13    14    1
    37    14    17    1
    38    17    18   ar
    39    18    19   ar
    40    19    20   ar
    41    20    21   ar
    42    21    22   ar
    43    22    23    1
    44    23    24    1
    45    24    25    1
    46    25    26    1
    47    26    27    1
    48    27    28   ar
    49    27    29   ar
    50    14    15    1
    51    15    16    1
    52     8     1    1
    53    48    44   ar
    54    16    11    1
    55    35    30   ar
    56    22    17   ar
@<TRIPOS>MOLECULE
*****
 52 56 0 0 0
SMALL
GASTEIGER

@<TRIPOS>ATOM
      1 C           3.7425    0.3533   29.0442 C.3     1  UNL1        0.1205
      2 N           4.0372    0.6629   30.4820 N.am    1  UNL1       -0.2737
      3 C           3.4053   -0.1541   31.5698 C.2     1  UNL1        0.2506
      4 O           2.4788   -1.2807   31.2198 O.2     1  UNL1       -0.2699
      5 C           4.9636    1.7894   30.8320 C.3     1  UNL1        0.0939
      6 C           5.5955    2.6064   29.7443 C.3     1  UNL1        0.0257
      7 C           5.3008    2.2969   28.3065 C.3     1  UNL1        0.0525
      8 C           4.3743    1.1703   27.9564 C.3     1  UNL1        0.2170
      9 C           4.7270    1.6545   26.5812 C.2     1  UNL1        0.2636
     10 O           5.5738    1.7682   26.0926 O.2     1  UNL1       -0.2711
     11 N           3.6445    2.0928   25.6399 N.am    1  UNL1       -0.2732
     12 C           2.2093    2.0470   26.0738 C.3     1  UNL1        0.1149
     13 C           1.1269    2.4853   25.1325 C.3     1  UNL1        0.1124
     14 N           1.4795    2.9695   23.7573 N.pl3   1  UNL1       -0.3017
     15 C           2.9147    3.0153   23.3234 C.3     1  UNL1        0.1124
     16 C           3.9971    2.5770   24.2646 C.3     1  UNL1        0.1149
     17 C           0.3971    3.4078   22.8159 C.ar    1  UNL1        0.0824
     18 C          -0.1291    4.8111   22.8793 C.ar    1  UNL1        0.0176
     19 C          -1.2115    5.2495   21.9380 C.ar    1  UNL1        0.0015
     20 C          -1.7678    4.2847   20.9332 C.ar    1  UNL1        0.0032
     21 C          -1.2417    2.8814   20.8698 C.ar    1  UNL1        0.0382
     22 C          -0.1593    2.4430   21.8111 C.ar    1  UNL1        0.1517
     23 O           0.3669    1.0397   21.7477 O.3     1  UNL1       -0.4742
     24 C           0.1613    0.2169   20.5105 C.3     1  UNL1        0.2059
     25 C           1.3349   -0.1550   19.6535 C.3     1  UNL1        0.0532
     26 C           2.2387   -1.2788   20.0662 C.3     1  UNL1        0.0455
     27 C           3.6391   -1.3491   19.5333 C.2     1  UNL1        0.0505
     28 O           4.7668   -0.7289   20.3037 O.co2   1  UNL1       -0.5492
     29 O           3.9117   -2.0398   18.2299 O.co2   1  UNL1       -0.5492
     30 C           3.7000    0.1554   33.0076 C.ar    1  UNL1        0.0766
     31 C           3.1516    1.4033   33.6338 C.ar    1  UNL1        0.1033
     32 N           3.4463    1.7128   35.0717 N.ar    1  UNL1       -0.2422
     33 C           4.2893    0.7745   35.8833 C.ar    1  UNL1        0.0988
     34 C           4.8377   -0.4734   35.2571 C.ar    1  UNL1        0.0247
     35 C           4.5431   -0.7829   33.8193 C.ar    1  UNL1        0.0788
     36 C           5.0914   -2.0308   33.1932 C.3     1  UNL1        0.4188
     37 F           5.6398   -3.2787   32.5670 F       1  UNL1       -0.1659
     38 F           6.2634   -1.2537   32.6710 F       1  UNL1       -0.1659
     39 F           3.9195   -2.8079   33.7153 F       1  UNL1       -0.1659
     40 C           2.8160   -0.7732   28.6941 C.3     1  UNL1        0.0239
     41 C           0.7667    0.7676   29.1138 C.3     1  UNL1        0.0001
     42 C           1.3354   -0.5386   28.6441 C.3     1  UNL1        0.0018
     43 O           3.5703    0.2120   27.1287 O.3     1  UNL1       -0.4718
     44 C           4.2646   -0.8138   26.2827 C.ar    1  UNL1        0.1459
     45 C           5.5248   -1.5447   26.6400 C.ar    1  UNL1        0.0722
     46 S           5.8596   -2.4715   25.5091 S.2     1  UNL1       -0.0794
     47 C           4.8063   -2.3133   24.4529 C.ar    1  UNL1        0.1041
     48 C           3.8205   -1.2889   24.9311 C.ar    1  UNL1        0.0478
     49 C           4.7488   -3.0503   23.1476 C.3     1  UNL1        0.4242
     50 F           4.6914   -3.7873   21.8424 F       1  UNL1       -0.1654
     51 F           3.5327   -2.2640   22.7572 F       1  UNL1       -0.1654
     52 F           5.9650   -3.8367   23.5382 F       1  UNL1       -0.1654
@<TRIPOS>UNITY_ATOM_ATTR
28 1
charge -1
@<TRIPOS>BOND
     1    41    42    1
     2    42    40    1
     3     1    40    1
     4     1     2    1
     5     2     3   am
     6     3     4    2
     7     3    30    1
     8    30    31   ar
     9    31    32   ar
    10    32    33   ar
    11    33    34   ar
    12    34    35   ar
    13    35    36    1
    14    36    37    1
    15    36    38    1
    16    36    39    1
    17     2     5    1
    18     5     6    1
    19     6     7    1
    20     7     8    1
    21     8    43    1
    22    43    44    1
    23    44    45   ar
    24    45    46   ar
    25    46    47   ar
    26    47    49    1
    27    49    50    1
    28    49    51    1
    29    49    52    1
    30    47    48   ar
    31     8     9    1
    32     9    10    2
    33     9    11   am
    34    11    12    1
    35    12    13    1
    36    13    14    1
    37    14    17    1
    38    17    18   ar
    39    18    19   ar
    40    19    20   ar
    41    20    21   ar
    42    21    22   ar
    43    22    23    1
    44    23    24    1
    45    24    25    1
    46    25    26    1
    47    26    27    1
    48    27    28   ar
    49    27    29   ar
    50    14    15    1
    51    15    16    1
    52     8     1    1
    53    48    44   ar
    54    16    11    1
    55    35    30   ar
    56    22    17   ar
@<TRIPOS>MOLECULE
*****
 52 56 0 0 0
SMALL
GASTEIGER

@<TRIPOS>ATOM
      1 C           3.1392    0.5878   28.6044 C.3     1  UNL1        0.1205
      2 N           3.8488    0.6968   29.9214 N.am    1  UNL1       -0.2737
      3 C           3.3038   -0.0088   31.1277 C.2     1  UNL1        0.2506
      4 O           2.0492   -0.8234   31.0170 O.2     1  UNL1       -0.2699
      5 C           5.1035    1.5113   30.0321 C.3     1  UNL1        0.0939
      6 C           5.6486    2.2169   28.8258 C.3     1  UNL1        0.0257
      7 C           4.9389    2.1079   27.5089 C.3     1  UNL1        0.0525
      8 C           3.6842    1.2933   27.3981 C.3     1  UNL1        0.2170
      9 C           3.8085    1.7740   25.9827 C.2     1  UNL1        0.2636
     10 O           3.7704    2.6600   25.5556 O.2     1  UNL1       -0.2711
     11 N           4.0445    0.7909   24.8747 N.am    1  UNL1       -0.2732
     12 C           4.1562   -0.6731   25.1821 C.3     1  UNL1        0.1149
     13 C           4.3922   -1.6562   24.0742 C.3     1  UNL1        0.1124
     14 N           4.5165   -1.1756   22.6587 N.pl3   1  UNL1       -0.3017
     15 C           4.4048    0.2884   22.3513 C.3     1  UNL1        0.1124
     16 C           4.1688    1.2715   23.4592 C.3     1  UNL1        0.1149
     17 C           4.7525   -2.1587   21.5507 C.ar    1  UNL1        0.0824
     18 C           5.9660   -3.0401   21.5759 C.ar    1  UNL1        0.0176
     19 C           6.2021   -4.0232   20.4680 C.ar    1  UNL1        0.0015
     20 C           5.2246   -4.1250   19.3347 C.ar    1  UNL1        0.0032
     21 C           4.0111   -3.2437   19.3095 C.ar    1  UNL1        0.0382
     22 C           3.7750   -2.2605   20.4175 C.ar    1  UNL1        0.1517
     23 O           2.5615   -1.3791   20.3922 O.3     1  UNL1       -0.4742
     24 C           2.3590   -0.4140   19.2620 C.3     1  UNL1        0.2059
     25 C           3.3171    0.7236   19.0664 C.3     1  UNL1        0.0532
     26 C           4.1504    0.7966   17.8213 C.3     1  UNL1        0.0455
     27 C           4.5850   -0.4643   17.1348 C.2     1  UNL1        0.0505
     28 O           3.6611   -1.1517   16.1737 O.co2   1  UNL1       -0.5492
     29 O           5.9436   -1.0377   17.4095 O.co2   1  UNL1       -0.5492
     30 C           4.0135    0.1002   32.4447 C.ar    1  UNL1        0.0766
     31 C           3.6500    1.1943   33.4042 C.ar    1  UNL1        0.1033
     32 N           4.3598    1.3033   34.7212 N.ar    1  UNL1       -0.2422
     33 C           5.4329    0.3181   35.0787 C.ar    1  UNL1        0.0988
     34 C           5.7963   -0.7760   34.1191 C.ar    1  UNL1        0.0247
     35 C           5.0867   -0.8850   32.8022 C.ar    1  UNL1        0.0788
     36 C           5.4501   -1.9792   31.8426 C.3     1  UNL1        0.4188
     37 F           5.8136   -3.0734   30.8831 F       1  UNL1       -0.1659
     38 F           4.4049   -2.8636   32.4552 F       1  UNL1       -0.1659
     39 F           6.4954   -1.0948   31.2300 F       1  UNL1       -0.1659
     40 C           1.8845   -0.2268   28.4937 C.3     1  UNL1        0.0239
     41 C          -0.6995   -0.3398   28.7386 C.3     1  UNL1        0.0001
     42 C           0.6185    0.2546   29.1382 C.3     1  UNL1        0.0018
     43 O           2.4727    0.6457   26.7958 O.3     1  UNL1       -0.4718
     44 C           1.3317    1.4916   26.3135 C.ar    1  UNL1        0.1459
     45 C           0.4015    1.1569   25.1853 C.ar    1  UNL1        0.0722
     46 S          -0.5846    2.2790   25.0493 S.2     1  UNL1       -0.0794
     47 C          -0.2638    3.3071   26.0933 C.ar    1  UNL1        0.1041
     48 C           0.9206    2.8205   26.8747 C.ar    1  UNL1        0.0478
     49 C          -0.9983    4.5958   26.3168 C.3     1  UNL1        0.4242
     50 F          -1.7329    5.8844   26.5404 F       1  UNL1       -0.1654
     51 F          -1.0728    4.8105   24.8342 F       1  UNL1       -0.1654
     52 F          -0.9238    4.3810   27.7995 F       1  UNL1       -0.1654
@<TRIPOS>UNITY_ATOM_ATTR
28 1
charge -1
@<TRIPOS>BOND
     1    41    42    1
     2    42    40    1
     3     1    40    1
     4     1     2    1
     5     2     3   am
     6     3     4    2
     7     3    30    1
     8    30    31   ar
     9    31    32   ar
    10    32    33   ar
    11    33    34   ar
    12    34    35   ar
    13    35    36    1
    14    36    37    1
    15    36    38    1
    16    36    39    1
    17     2     5    1
    18     5     6    1
    19     6     7    1
    20     7     8    1
    21     8    43    1
    22    43    44    1
    23    44    45   ar
    24    45    46   ar
    25    46    47   ar
    26    47    49    1
    27    49    50    1
    28    49    51    1
    29    49    52    1
    30    47    48   ar
    31     8     9    1
    32     9    10    2
    33     9    11   am
    34    11    12    1
    35    12    13    1
    36    13    14    1
    37    14    17    1
    38    17    18   ar
    39    18    19   ar
    40    19    20   ar
    41    20    21   ar
    42    21    22   ar
    43    22    23    1
    44    23    24    1
    45    24    25    1
    46    25    26    1
    47    26    27    1
    48    27    28   ar
    49    27    29   ar
    50    14    15    1
    51    15    16    1
    52     8     1    1
    53    48    44   ar
    54    16    11    1
    55    35    30   ar
    56    22    17   ar
@<TRIPOS>MOLECULE
*****
 52 56 0 0 0
SMALL
GASTEIGER

@<TRIPOS>ATOM
      1 C           0.5527    2.7366   27.5258 C.3     1  UNL1        0.1205
      2 N          -0.2998    3.8893   27.0851 N.am    1  UNL1       -0.2737
      3 C          -1.7401    3.6647   26.7312 C.2     1  UNL1        0.2506
      4 O          -2.3278    2.2874   26.8180 O.2     1  UNL1       -0.2699
      5 C           0.2878    5.2667   26.9983 C.3     1  UNL1        0.0939
      6 C           1.7280    5.4913   27.3521 C.3     1  UNL1        0.0257
      7 C           2.5806    4.3385   27.7928 C.3     1  UNL1        0.0525
      8 C           1.9930    2.9612   27.8797 C.3     1  UNL1        0.2170
      9 C           3.3987    2.6727   28.3164 C.2     1  UNL1        0.2636
     10 O           4.2698    2.6690   27.8583 O.2     1  UNL1       -0.2711
     11 N           3.6789    2.2939   29.7404 N.am    1  UNL1       -0.2732
     12 C           2.5533    2.2036   30.7279 C.3     1  UNL1        0.1149
     13 C           2.8335    1.8248   32.1519 C.3     1  UNL1        0.1124
     14 N           4.2392    1.5363   32.5886 N.pl3   1  UNL1       -0.3017
     15 C           5.3648    1.6266   31.6012 C.3     1  UNL1        0.1124
     16 C           5.0846    2.0053   30.1771 C.3     1  UNL1        0.1149
     17 C           4.5194    1.1575   34.0127 C.ar    1  UNL1        0.0824
     18 C           4.5708    2.2162   35.0741 C.ar    1  UNL1        0.0176
     19 C           4.8510    1.8375   36.4982 C.ar    1  UNL1        0.0015
     20 C           5.0799    0.4001   36.8609 C.ar    1  UNL1        0.0032
     21 C           5.0285   -0.6586   35.7994 C.ar    1  UNL1        0.0382
     22 C           4.7483   -0.2799   34.3754 C.ar    1  UNL1        0.1517
     23 O           4.6969   -1.3386   33.3140 O.3     1  UNL1       -0.4742
     24 C           5.9693   -1.8813   32.7339 C.3     1  UNL1        0.2059
     25 C           6.1191   -3.3559   32.5029 C.3     1  UNL1        0.0532
     26 C           6.8568   -3.8548   31.2958 C.3     1  UNL1        0.0455
     27 C           6.8453   -5.3169   30.9613 C.2     1  UNL1        0.0505
     28 O           6.8307   -6.3377   32.0602 O.co2   1  UNL1       -0.5492
     29 O           6.8486   -5.7582   29.5276 O.co2   1  UNL1       -0.5492
     30 C          -2.5927    4.8175   26.2905 C.ar    1  UNL1        0.0766
     31 C          -3.2152    5.7233   27.3113 C.ar    1  UNL1        0.1033
     32 N          -4.0678    6.8761   26.8705 N.ar    1  UNL1       -0.2422
     33 C          -4.2979    7.1230   25.4090 C.ar    1  UNL1        0.0988
     34 C          -3.6754    6.2172   24.3882 C.ar    1  UNL1        0.0247
     35 C          -2.8228    5.0645   24.8289 C.ar    1  UNL1        0.0788
     36 C          -2.2003    4.1587   23.8081 C.3     1  UNL1        0.4188
     37 F          -1.5779    3.2529   22.7873 F       1  UNL1       -0.1659
     38 F          -0.9660    5.0110   23.8045 F       1  UNL1       -0.1659
     39 F          -3.4346    3.3063   23.8118 F       1  UNL1       -0.1659
     40 C          -0.0349    1.3592   27.6126 C.3     1  UNL1        0.0239
     41 C          -1.3755   -0.4240   28.9442 C.3     1  UNL1        0.0001
     42 C          -0.6342    0.8794   28.9012 C.3     1  UNL1        0.0018
     43 O           1.8936    1.4836   28.1182 O.3     1  UNL1       -0.4718
     44 C           2.5661    0.5255   27.1802 C.ar    1  UNL1        0.1459
     45 C           3.4000   -0.6568   27.5760 C.ar    1  UNL1        0.0722
     46 S           3.8721   -1.3316   26.3223 S.2     1  UNL1       -0.0794
     47 C           3.3299   -0.5662   25.1517 C.ar    1  UNL1        0.1041
     48 C           2.5227    0.5816   25.6819 C.ar    1  UNL1        0.0478
     49 C           3.5552   -0.8915   23.7047 C.3     1  UNL1        0.4242
     50 F           3.7806   -1.2166   22.2579 F       1  UNL1       -0.1654
     51 F           4.1754   -2.2001   24.0955 F       1  UNL1       -0.1654
     52 F           2.9351    0.4173   23.3140 F       1  UNL1       -0.1654
@<TRIPOS>UNITY_ATOM_ATTR
28 1
charge -1
@<TRIPOS>BOND
     1    41    42    1
     2    42    40    1
     3     1    40    1
     4     1     2    1
     5     2     3   am
     6     3     4    2
     7     3    30    1
     8    30    31   ar
     9    31    32   ar
    10    32    33   ar
    11    33    34   ar
    12    34    35   ar
    13    35    36    1
    14    36    37    1
    15    36    38    1
    16    36    39    1
    17     2     5    1
    18     5     6    1
    19     6     7    1
    20     7     8    1
    21     8    43    1
    22    43    44    1
    23    44    45   ar
    24    45    46   ar
    25    46    47   ar
    26    47    49    1
    27    49    50    1
    28    49    51    1
    29    49    52    1
    30    47    48   ar
    31     8     9    1
    32     9    10    2
    33     9    11   am
    34    11    12    1
    35    12    13    1
    36    13    14    1
    37    14    17    1
    38    17    18   ar
    39    18    19   ar
    40    19    20   ar
    41    20    21   ar
    42    21    22   ar
    43    22    23    1
    44    23    24    1
    45    24    25    1
    46    25    26    1
    47    26    27    1
    48    27    28   ar
    49    27    29   ar
    50    14    15    1
    51    15    16    1
    52     8     1    1
    53    48    44   ar
    54    16    11    1
    55    35    30   ar
    56    22    17   ar
