@<TRIPOS>MOLECULE
*****
 34 38 0 0 0
SMALL
GASTEIGER

@<TRIPOS>ATOM
      1 N          -5.1264  -19.7003   21.1650 N.3     1  UNL1       -0.2712
      2 C          -5.5662  -19.8271   19.7365 C.3     1  UNL1        0.0738
      3 C          -7.0583  -19.6794   19.6961 C.3     1  UNL1        0.0372
      4 C          -8.2523  -19.6664   18.7882 C.3     1  UNL1        0.0245
      5 C          -9.4727  -19.4403   19.6305 C.3     1  UNL1        0.0909
      6 N          -9.0329  -19.3136   21.0591 N.pl3   1  UNL1       -0.3077
      7 C          -7.5408  -19.4613   21.0995 C.3     1  UNL1        0.0901
      8 C          -6.3468  -19.4743   22.0074 C.3     1  UNL1        0.0921
      9 C          -9.9282  -19.0801   22.2398 C.ar    1  UNL1        0.0517
     10 C          -9.8379  -19.9773   23.4384 C.ar    1  UNL1        0.0145
     11 C         -10.7332  -19.7438   24.6191 C.ar    1  UNL1        0.0013
     12 C         -11.7187  -18.6132   24.6011 C.ar    1  UNL1        0.0000
     13 C         -11.8089  -17.7159   23.4024 C.ar    1  UNL1        0.0051
     14 C         -10.9137  -17.9494   22.2217 C.ar    1  UNL1        0.0847
     15 C         -11.0039  -17.0522   21.0231 C.3     1  UNL1        0.4197
     16 F         -11.0942  -16.1550   19.8244 F       1  UNL1       -0.1658
     17 F          -9.8092  -16.2852   21.5072 F       1  UNL1       -0.1658
     18 F         -12.1987  -17.8191   20.5389 F       1  UNL1       -0.1658
     19 C          -3.7143  -19.7848   21.6636 C.3     1  UNL1        0.0731
     20 C          -2.5790  -19.3719   20.7745 C.3     1  UNL1        0.0294
     21 C          -2.1652  -17.9317   20.7062 C.3     1  UNL1        0.0666
     22 S          -1.9753  -17.1452   21.9693 S.3     1  UNL1       -0.0756
     23 C          -3.9491  -17.9772   24.4313 C.3     1  UNL1        0.1340
     24 N          -4.0090  -16.7006   23.6459 N.ar    1  UNL1       -0.2884
     25 C          -3.1018  -16.3182   22.5143 C.ar    1  UNL1        0.1932
     26 N          -3.5188  -14.9636   22.0232 N.ar    1  UNL1       -0.1221
     27 N          -4.6839  -14.5088   22.8514 N.ar    1  UNL1       -0.1282
     28 C          -4.9869  -15.5823   23.8543 C.ar    1  UNL1        0.1683
     29 C          -6.0763  -15.5442   24.8847 C.ar    1  UNL1        0.0551
     30 C          -7.5106  -15.6719   24.4647 C.ar    1  UNL1        0.0062
     31 C          -8.6001  -15.6338   25.4951 C.ar    1  UNL1        0.0208
     32 C          -8.2551  -15.4680   26.9455 C.ar    1  UNL1        0.0989
     33 N          -6.8208  -15.3402   27.3655 N.ar    1  UNL1       -0.2422
     34 C          -5.7314  -15.3783   26.3350 C.ar    1  UNL1        0.1019
@<TRIPOS>BOND
     1    23    24    1
     2    24    25   ar
     3    25    22    1
     4    22    21    1
     5    21    20    1
     6    20    19    1
     7    19     1    1
     8     1     2    1
     9     2     3    1
    10     3     4    1
    11     4     5    1
    12     5     6    1
    13     6     9    1
    14     9    10   ar
    15    10    11   ar
    16    11    12   ar
    17    12    13   ar
    18    13    14   ar
    19    14    15    1
    20    15    16    1
    21    15    17    1
    22    15    18    1
    23     6     7    1
    24     7     8    1
    25    25    26   ar
    26    26    27   ar
    27    27    28   ar
    28    28    29    1
    29    29    30   ar
    30    30    31   ar
    31    31    32   ar
    32    32    33   ar
    33    33    34   ar
    34    28    24   ar
    35    34    29   ar
    36     8     1    1
    37     7     3    1
    38    14     9   ar
@<TRIPOS>MOLECULE
*****
 34 38 0 0 0
SMALL
GASTEIGER

@<TRIPOS>ATOM
      1 N          -5.9382  -19.6060   20.9787 N.3     1  UNL1       -0.2712
      2 C          -6.3196  -20.4012   19.7654 C.3     1  UNL1        0.0738
      3 C          -7.7813  -20.1827   19.5087 C.3     1  UNL1        0.0372
      4 C          -8.9204  -20.5391   18.6002 C.3     1  UNL1        0.0245
      5 C         -10.1463  -19.8292   19.0934 C.3     1  UNL1        0.0909
      6 N          -9.7648  -19.0340   20.3068 N.pl3   1  UNL1       -0.3077
      7 C          -8.3031  -19.2525   20.5635 C.3     1  UNL1        0.0901
      8 C          -7.1640  -18.8961   21.4720 C.3     1  UNL1        0.0921
      9 C         -10.6836  -18.1718   21.1206 C.ar    1  UNL1        0.0517
     10 C         -11.3547  -16.9875   20.4906 C.ar    1  UNL1        0.0145
     11 C         -12.2736  -16.1253   21.3044 C.ar    1  UNL1        0.0013
     12 C         -12.5213  -16.4473   22.7483 C.ar    1  UNL1        0.0000
     13 C         -11.8501  -17.6316   23.3784 C.ar    1  UNL1        0.0051
     14 C         -10.9313  -18.4939   22.5646 C.ar    1  UNL1        0.0847
     15 C         -10.2601  -19.6781   23.1947 C.3     1  UNL1        0.4197
     16 F          -9.5890  -20.8624   23.8248 F       1  UNL1       -0.1658
     17 F          -9.3455  -18.7588   23.9484 F       1  UNL1       -0.1658
     18 F         -11.1748  -20.5976   22.4410 F       1  UNL1       -0.1658
     19 C          -4.5709  -19.5335   21.5913 C.3     1  UNL1        0.0731
     20 C          -3.4504  -18.8685   20.8481 C.3     1  UNL1        0.0294
     21 C          -2.1369  -18.6266   21.5310 C.3     1  UNL1        0.0666
     22 S          -1.8672  -17.3077   22.1924 S.3     1  UNL1       -0.0756
     23 C          -3.8987  -18.0155   24.6463 C.3     1  UNL1        0.1340
     24 N          -3.9433  -16.7832   23.7923 N.ar    1  UNL1       -0.2884
     25 C          -3.0096  -16.4578   22.6643 C.ar    1  UNL1        0.1932
     26 N          -3.4188  -15.1334   22.0911 N.ar    1  UNL1       -0.1221
     27 N          -4.6054  -14.6403   22.8648 N.ar    1  UNL1       -0.1282
     28 C          -4.9297  -15.6598   23.9162 C.ar    1  UNL1        0.1683
     29 C          -6.0445  -15.5716   24.9159 C.ar    1  UNL1        0.0551
     30 C          -5.7329  -15.4238   26.3757 C.ar    1  UNL1        0.0062
     31 C          -6.8477  -15.3355   27.3754 C.ar    1  UNL1        0.0208
     32 C          -8.2742  -15.3951   26.9152 C.ar    1  UNL1        0.0989
     33 N          -8.5858  -15.5429   25.4554 N.ar    1  UNL1       -0.2422
     34 C          -7.4709  -15.6312   24.4557 C.ar    1  UNL1        0.1019
@<TRIPOS>BOND
     1    23    24    1
     2    24    25   ar
     3    25    22    1
     4    22    21    1
     5    21    20    1
     6    20    19    1
     7    19     1    1
     8     1     2    1
     9     2     3    1
    10     3     4    1
    11     4     5    1
    12     5     6    1
    13     6     9    1
    14     9    10   ar
    15    10    11   ar
    16    11    12   ar
    17    12    13   ar
    18    13    14   ar
    19    14    15    1
    20    15    16    1
    21    15    17    1
    22    15    18    1
    23     6     7    1
    24     7     8    1
    25    25    26   ar
    26    26    27   ar
    27    27    28   ar
    28    28    29    1
    29    29    30   ar
    30    30    31   ar
    31    31    32   ar
    32    32    33   ar
    33    33    34   ar
    34    28    24   ar
    35    34    29   ar
    36     8     1    1
    37     7     3    1
    38    14     9   ar
@<TRIPOS>MOLECULE
*****
 34 38 0 0 0
SMALL
GASTEIGER

@<TRIPOS>ATOM
      1 N          -5.8942  -19.3411   20.7137 N.3     1  UNL1       -0.2712
      2 C          -5.9763  -20.4197   21.7529 C.3     1  UNL1        0.0738
      3 C          -7.3092  -20.3087   22.4318 C.3     1  UNL1        0.0372
      4 C          -8.1838  -20.9066   23.4936 C.3     1  UNL1        0.0245
      5 C          -9.4661  -20.1291   23.5303 C.3     1  UNL1        0.0909
      6 N          -9.3839  -19.0505   22.4910 N.pl3   1  UNL1       -0.3077
      7 C          -8.0509  -19.1615   21.8121 C.3     1  UNL1        0.0901
      8 C          -7.1763  -18.5635   20.7503 C.3     1  UNL1        0.0921
      9 C         -10.4479  -18.0386   22.1845 C.ar    1  UNL1        0.0517
     10 C         -10.8349  -17.0211   23.2165 C.ar    1  UNL1        0.0145
     11 C         -11.8989  -16.0092   22.9099 C.ar    1  UNL1        0.0013
     12 C         -12.5759  -16.0148   21.5715 C.ar    1  UNL1        0.0000
     13 C         -12.1890  -17.0323   20.5394 C.ar    1  UNL1        0.0051
     14 C         -11.1250  -18.0442   20.8459 C.ar    1  UNL1        0.0847
     15 C         -10.7380  -19.0616   19.8140 C.3     1  UNL1        0.4197
     16 F         -10.3510  -20.0791   18.7820 F       1  UNL1       -0.1658
     17 F         -11.4697  -20.1208   20.5839 F       1  UNL1       -0.1658
     18 F         -10.0063  -18.0025   19.0440 F       1  UNL1       -0.1658
     19 C          -4.7336  -19.0851   19.7985 C.3     1  UNL1        0.0731
     20 C          -3.3765  -19.6258   20.1390 C.3     1  UNL1        0.0294
     21 C          -2.1748  -18.7302   20.0762 C.3     1  UNL1        0.0666
     22 S          -1.7229  -17.9944   21.3027 S.3     1  UNL1       -0.0756
     23 C          -4.0076  -18.6567   23.5367 C.3     1  UNL1        0.1340
     24 N          -3.6826  -17.3010   22.9831 N.ar    1  UNL1       -0.2884
     25 C          -2.6324  -16.9966   21.9563 C.ar    1  UNL1        0.1932
     26 N          -2.6514  -15.5191   21.6977 N.ar    1  UNL1       -0.1221
     27 N          -3.7132  -14.9104   22.5648 N.ar    1  UNL1       -0.1282
     28 C          -4.3506  -16.0116   23.3593 C.ar    1  UNL1        0.1683
     29 C          -5.4610  -15.8516   24.3550 C.ar    1  UNL1        0.0551
     30 C          -5.1435  -15.5672   25.7932 C.ar    1  UNL1        0.0062
     31 C          -6.2539  -15.4072   26.7889 C.ar    1  UNL1        0.0208
     32 C          -7.6818  -15.5315   26.3463 C.ar    1  UNL1        0.0989
     33 N          -7.9993  -15.8159   24.9081 N.ar    1  UNL1       -0.2422
     34 C          -6.8888  -15.9760   23.9125 C.ar    1  UNL1        0.1019
@<TRIPOS>BOND
     1    23    24    1
     2    24    25   ar
     3    25    22    1
     4    22    21    1
     5    21    20    1
     6    20    19    1
     7    19     1    1
     8     1     2    1
     9     2     3    1
    10     3     4    1
    11     4     5    1
    12     5     6    1
    13     6     9    1
    14     9    10   ar
    15    10    11   ar
    16    11    12   ar
    17    12    13   ar
    18    13    14   ar
    19    14    15    1
    20    15    16    1
    21    15    17    1
    22    15    18    1
    23     6     7    1
    24     7     8    1
    25    25    26   ar
    26    26    27   ar
    27    27    28   ar
    28    28    29    1
    29    29    30   ar
    30    30    31   ar
    31    31    32   ar
    32    32    33   ar
    33    33    34   ar
    34    28    24   ar
    35    34    29   ar
    36     8     1    1
    37     7     3    1
    38    14     9   ar
@<TRIPOS>MOLECULE
*****
 34 38 0 0 0
SMALL
GASTEIGER

@<TRIPOS>ATOM
      1 N          -5.8291  -19.3911   20.5921 N.3     1  UNL1       -0.2712
      2 C          -6.0097  -20.3641   21.7194 C.3     1  UNL1        0.0738
      3 C          -7.4037  -20.2051   22.2499 C.3     1  UNL1        0.0372
      4 C          -8.3768  -20.7082   23.2745 C.3     1  UNL1        0.0245
      5 C          -9.6593  -19.9480   23.1085 C.3     1  UNL1        0.0909
      6 N          -9.4786  -18.9750   21.9811 N.pl3   1  UNL1       -0.3077
      7 C          -8.0846  -19.1340   21.4506 C.3     1  UNL1        0.0901
      8 C          -7.1115  -18.6309   20.4259 C.3     1  UNL1        0.0921
      9 C         -10.5108  -18.0122   21.4735 C.ar    1  UNL1        0.0517
     10 C         -10.4847  -17.5716   20.0400 C.ar    1  UNL1        0.0145
     11 C         -11.5169  -16.6088   19.5324 C.ar    1  UNL1        0.0013
     12 C         -12.5751  -16.0866   20.4584 C.ar    1  UNL1        0.0000
     13 C         -12.6012  -16.5272   21.8920 C.ar    1  UNL1        0.0051
     14 C         -11.5691  -17.4901   22.3996 C.ar    1  UNL1        0.0847
     15 C         -11.5951  -17.9307   23.8331 C.3     1  UNL1        0.4197
     16 F         -11.6212  -18.3713   25.2667 F       1  UNL1       -0.1658
     17 F         -10.4293  -17.0347   24.1297 F       1  UNL1       -0.1658
     18 F         -12.7610  -18.8267   23.5366 F       1  UNL1       -0.1658
     19 C          -4.5846  -19.2101   19.7744 C.3     1  UNL1        0.0731
     20 C          -3.2687  -19.7125   20.2902 C.3     1  UNL1        0.0294
     21 C          -2.0573  -18.8292   20.2413 C.3     1  UNL1        0.0666
     22 S          -1.6432  -18.0562   21.4582 S.3     1  UNL1       -0.0756
     23 C          -3.9589  -18.5854   23.6958 C.3     1  UNL1        0.1340
     24 N          -3.6261  -17.2650   23.0665 N.ar    1  UNL1       -0.2884
     25 C          -2.5617  -17.0218   22.0380 C.ar    1  UNL1        0.1932
     26 N          -2.5771  -15.5625   21.6911 N.ar    1  UNL1       -0.1221
     27 N          -3.6510  -14.9038   22.5053 N.ar    1  UNL1       -0.1282
     28 C          -4.2994  -15.9560   23.3553 C.ar    1  UNL1        0.1683
     29 C          -5.4237  -15.7376   24.3241 C.ar    1  UNL1        0.0551
     30 C          -6.8182  -15.5172   23.8174 C.ar    1  UNL1        0.0062
     31 C          -7.9424  -15.2988   24.7861 C.ar    1  UNL1        0.0208
     32 C          -7.6720  -15.3007   26.2616 C.ar    1  UNL1        0.0989
     33 N          -6.2775  -15.5211   26.7683 N.ar    1  UNL1       -0.2422
     34 C          -5.1533  -15.7396   25.7995 C.ar    1  UNL1        0.1019
@<TRIPOS>BOND
     1    23    24    1
     2    24    25   ar
     3    25    22    1
     4    22    21    1
     5    21    20    1
     6    20    19    1
     7    19     1    1
     8     1     2    1
     9     2     3    1
    10     3     4    1
    11     4     5    1
    12     5     6    1
    13     6     9    1
    14     9    10   ar
    15    10    11   ar
    16    11    12   ar
    17    12    13   ar
    18    13    14   ar
    19    14    15    1
    20    15    16    1
    21    15    17    1
    22    15    18    1
    23     6     7    1
    24     7     8    1
    25    25    26   ar
    26    26    27   ar
    27    27    28   ar
    28    28    29    1
    29    29    30   ar
    30    30    31   ar
    31    31    32   ar
    32    32    33   ar
    33    33    34   ar
    34    28    24   ar
    35    34    29   ar
    36     8     1    1
    37     7     3    1
    38    14     9   ar
@<TRIPOS>MOLECULE
*****
 34 38 0 0 0
SMALL
GASTEIGER

@<TRIPOS>ATOM
      1 N          -9.1358  -18.5561   20.2460 N.3     1  UNL1       -0.2712
      2 C          -8.8759  -19.8634   19.5580 C.3     1  UNL1        0.0738
      3 C          -7.4490  -20.2473   19.8160 C.3     1  UNL1        0.0372
      4 C          -6.4066  -21.2926   19.5502 C.3     1  UNL1        0.0245
      5 C          -5.1402  -20.8686   20.2334 C.3     1  UNL1        0.0909
      6 N          -5.4002  -19.5613   20.9215 N.pl3   1  UNL1       -0.3077
      7 C          -6.8270  -19.1773   20.6635 C.3     1  UNL1        0.0901
      8 C          -7.8695  -18.1321   20.9293 C.3     1  UNL1        0.0921
      9 C          -4.4075  -18.7758   21.7262 C.ar    1  UNL1        0.0517
     10 C          -4.7312  -18.3787   23.1360 C.ar    1  UNL1        0.0145
     11 C          -3.7385  -17.5932   23.9407 C.ar    1  UNL1        0.0013
     12 C          -2.4220  -17.2049   23.3357 C.ar    1  UNL1        0.0000
     13 C          -2.0982  -17.6021   21.9259 C.ar    1  UNL1        0.0051
     14 C          -3.0909  -18.3875   21.1212 C.ar    1  UNL1        0.0847
     15 C          -2.7671  -18.7847   19.7114 C.3     1  UNL1        0.4197
     16 F          -2.4433  -19.1818   18.3017 F       1  UNL1       -0.1658
     17 F          -3.6177  -17.6603   19.1993 F       1  UNL1       -0.1658
     18 F          -1.9165  -19.9091   20.2235 F       1  UNL1       -0.1658
     19 C         -10.4340  -17.8047   20.2501 C.3     1  UNL1        0.0731
     20 C         -11.7029  -18.5019   20.6423 C.3     1  UNL1        0.0294
     21 C         -12.6977  -17.8086   21.5253 C.3     1  UNL1        0.0666
     22 S         -12.7698  -18.1481   22.9846 S.3     1  UNL1       -0.0756
     23 C         -10.6592  -15.6717   23.2349 C.3     1  UNL1        0.1340
     24 N         -10.5544  -16.9937   23.9358 N.ar    1  UNL1       -0.2884
     25 C         -11.5245  -18.1320   23.8207 C.ar    1  UNL1        0.1932
     26 N         -11.0308  -19.2514   24.6885 N.ar    1  UNL1       -0.1221
     27 N          -9.7555  -18.8050   25.3400 N.ar    1  UNL1       -0.1282
     28 C          -9.4610  -17.4097   24.8747 C.ar    1  UNL1        0.1683
     29 C          -8.2805  -16.5766   25.2777 C.ar    1  UNL1        0.0551
     30 C          -8.0031  -16.3216   26.7296 C.ar    1  UNL1        0.0062
     31 C          -6.8226  -15.4885   27.1326 C.ar    1  UNL1        0.0208
     32 C          -5.9195  -14.9104   26.0836 C.ar    1  UNL1        0.0989
     33 N          -6.1970  -15.1654   24.6317 N.ar    1  UNL1       -0.2422
     34 C          -7.3775  -15.9985   24.2288 C.ar    1  UNL1        0.1019
@<TRIPOS>BOND
     1    23    24    1
     2    24    25   ar
     3    25    22    1
     4    22    21    1
     5    21    20    1
     6    20    19    1
     7    19     1    1
     8     1     2    1
     9     2     3    1
    10     3     4    1
    11     4     5    1
    12     5     6    1
    13     6     9    1
    14     9    10   ar
    15    10    11   ar
    16    11    12   ar
    17    12    13   ar
    18    13    14   ar
    19    14    15    1
    20    15    16    1
    21    15    17    1
    22    15    18    1
    23     6     7    1
    24     7     8    1
    25    25    26   ar
    26    26    27   ar
    27    27    28   ar
    28    28    29    1
    29    29    30   ar
    30    30    31   ar
    31    31    32   ar
    32    32    33   ar
    33    33    34   ar
    34    28    24   ar
    35    34    29   ar
    36     8     1    1
    37     7     3    1
    38    14     9   ar
@<TRIPOS>MOLECULE
*****
 34 38 0 0 0
SMALL
GASTEIGER

@<TRIPOS>ATOM
      1 N          -8.2623  -19.4902   19.8523 N.3     1  UNL1       -0.2712
      2 C          -7.7102  -20.8317   19.4707 C.3     1  UNL1        0.0738
      3 C          -6.2412  -20.8316   19.7738 C.3     1  UNL1        0.0372
      4 C          -4.9920  -21.6606   19.7253 C.3     1  UNL1        0.0245
      5 C          -3.8641  -20.8314   20.2641 C.3     1  UNL1        0.0909
      6 N          -4.4162  -19.4899   20.6457 N.pl3   1  UNL1       -0.3077
      7 C          -5.8853  -19.4900   20.3426 C.3     1  UNL1        0.0901
      8 C          -7.1344  -18.6610   20.3911 C.3     1  UNL1        0.0921
      9 C          -3.6362  -18.3486   21.2280 C.ar    1  UNL1        0.0517
     10 C          -3.9193  -17.8823   22.6252 C.ar    1  UNL1        0.0145
     11 C          -3.1393  -16.7411   23.2076 C.ar    1  UNL1        0.0013
     12 C          -2.0761  -16.0662   22.3927 C.ar    1  UNL1        0.0000
     13 C          -1.7929  -16.5325   20.9954 C.ar    1  UNL1        0.0051
     14 C          -2.5730  -17.6737   20.4130 C.ar    1  UNL1        0.0847
     15 C          -2.2898  -18.1400   19.0158 C.3     1  UNL1        0.4197
     16 F          -2.0067  -18.6064   17.6185 F       1  UNL1       -0.1658
     17 F          -1.0985  -18.9044   19.5123 F       1  UNL1       -0.1658
     18 F          -3.4812  -17.3757   18.5192 F       1  UNL1       -0.1658
     19 C          -9.6913  -19.0544   19.7185 C.3     1  UNL1        0.0731
     20 C         -10.7080  -19.4966   20.7288 C.3     1  UNL1        0.0294
     21 C         -11.8168  -18.5703   21.1321 C.3     1  UNL1        0.0666
     22 S         -11.6396  -17.0866   21.0011 S.3     1  UNL1       -0.0756
     23 C         -10.4886  -17.3897   24.0397 C.3     1  UNL1        0.1340
     24 N          -9.8788  -16.5667   22.9439 N.ar    1  UNL1       -0.2884
     25 C         -10.4079  -16.4274   21.5472 C.ar    1  UNL1        0.1932
     26 N          -9.4889  -15.5131   20.7925 N.ar    1  UNL1       -0.1221
     27 N          -8.3919  -15.0873   21.7228 N.ar    1  UNL1       -0.1282
     28 C          -8.6328  -15.7385   23.0524 C.ar    1  UNL1        0.1683
     29 C          -7.7779  -15.5879   24.2758 C.ar    1  UNL1        0.0551
     30 C          -8.3857  -15.7393   25.6387 C.ar    1  UNL1        0.0062
     31 C          -7.5308  -15.5887   26.8621 C.ar    1  UNL1        0.0208
     32 C          -6.0681  -15.2867   26.7223 C.ar    1  UNL1        0.0989
     33 N          -5.4604  -15.1353   25.3593 N.ar    1  UNL1       -0.2422
     34 C          -6.3154  -15.2859   24.1360 C.ar    1  UNL1        0.1019
@<TRIPOS>BOND
     1    23    24    1
     2    24    25   ar
     3    25    22    1
     4    22    21    1
     5    21    20    1
     6    20    19    1
     7    19     1    1
     8     1     2    1
     9     2     3    1
    10     3     4    1
    11     4     5    1
    12     5     6    1
    13     6     9    1
    14     9    10   ar
    15    10    11   ar
    16    11    12   ar
    17    12    13   ar
    18    13    14   ar
    19    14    15    1
    20    15    16    1
    21    15    17    1
    22    15    18    1
    23     6     7    1
    24     7     8    1
    25    25    26   ar
    26    26    27   ar
    27    27    28   ar
    28    28    29    1
    29    29    30   ar
    30    30    31   ar
    31    31    32   ar
    32    32    33   ar
    33    33    34   ar
    34    28    24   ar
    35    34    29   ar
    36     8     1    1
    37     7     3    1
    38    14     9   ar
@<TRIPOS>MOLECULE
*****
 34 38 0 0 0
SMALL
GASTEIGER

@<TRIPOS>ATOM
      1 N          -8.2045  -19.2322   20.0748 N.3     1  UNL1       -0.2712
      2 C          -8.0999  -20.0055   21.3558 C.3     1  UNL1        0.0738
      3 C          -6.6585  -20.0226   21.7706 C.3     1  UNL1        0.0372
      4 C          -5.7030  -20.5111   22.8187 C.3     1  UNL1        0.0245
      5 C          -4.3262  -20.0501   22.4418 C.3     1  UNL1        0.0909
      6 N          -4.4308  -19.2767   21.1608 N.pl3   1  UNL1       -0.3077
      7 C          -5.8722  -19.2597   20.7460 C.3     1  UNL1        0.0901
      8 C          -6.8277  -18.7712   19.6979 C.3     1  UNL1        0.0921
      9 C          -3.2937  -18.6333   20.4239 C.ar    1  UNL1        0.0517
     10 C          -3.1875  -18.7779   18.9347 C.ar    1  UNL1        0.0145
     11 C          -2.0503  -18.1345   18.1979 C.ar    1  UNL1        0.0013
     12 C          -1.0193  -17.3466   18.9503 C.ar    1  UNL1        0.0000
     13 C          -1.1255  -17.2020   20.4396 C.ar    1  UNL1        0.0051
     14 C          -2.2626  -17.8453   21.1764 C.ar    1  UNL1        0.0847
     15 C          -2.3688  -17.7008   22.6656 C.3     1  UNL1        0.4197
     16 F          -2.4750  -17.5562   24.1548 F       1  UNL1       -0.1658
     17 F          -3.3632  -16.5921   22.4871 F       1  UNL1       -0.1658
     18 F          -1.3744  -18.8095   22.8442 F       1  UNL1       -0.1658
     19 C          -9.4646  -18.9664   19.3057 C.3     1  UNL1        0.0731
     20 C         -10.7698  -19.5266   19.7879 C.3     1  UNL1        0.0294
     21 C         -11.4946  -18.8682   20.9243 C.3     1  UNL1        0.0666
     22 S         -11.4927  -17.3734   21.0495 S.3     1  UNL1       -0.0756
     23 C         -10.2266  -17.7659   24.0315 C.3     1  UNL1        0.1340
     24 N          -9.7045  -16.8486   22.9657 N.ar    1  UNL1       -0.2884
     25 C         -10.2865  -16.6681   21.5951 C.ar    1  UNL1        0.1932
     26 N          -9.4505  -15.6586   20.8657 N.ar    1  UNL1       -0.1221
     27 N          -8.3518  -15.2151   21.7856 N.ar    1  UNL1       -0.1282
     28 C          -8.5088  -15.9505   23.0835 C.ar    1  UNL1        0.1683
     29 C          -7.6252  -15.8121   24.2878 C.ar    1  UNL1        0.0551
     30 C          -8.2320  -15.5962   25.6424 C.ar    1  UNL1        0.0062
     31 C          -7.3485  -15.4578   26.8466 C.ar    1  UNL1        0.0208
     32 C          -5.8580  -15.5354   26.6961 C.ar    1  UNL1        0.0989
     33 N          -5.2512  -15.7513   25.3414 N.ar    1  UNL1       -0.2422
     34 C          -6.1348  -15.8897   24.1372 C.ar    1  UNL1        0.1019
@<TRIPOS>BOND
     1    23    24    1
     2    24    25   ar
     3    25    22    1
     4    22    21    1
     5    21    20    1
     6    20    19    1
     7    19     1    1
     8     1     2    1
     9     2     3    1
    10     3     4    1
    11     4     5    1
    12     5     6    1
    13     6     9    1
    14     9    10   ar
    15    10    11   ar
    16    11    12   ar
    17    12    13   ar
    18    13    14   ar
    19    14    15    1
    20    15    16    1
    21    15    17    1
    22    15    18    1
    23     6     7    1
    24     7     8    1
    25    25    26   ar
    26    26    27   ar
    27    27    28   ar
    28    28    29    1
    29    29    30   ar
    30    30    31   ar
    31    31    32   ar
    32    32    33   ar
    33    33    34   ar
    34    28    24   ar
    35    34    29   ar
    36     8     1    1
    37     7     3    1
    38    14     9   ar
@<TRIPOS>MOLECULE
*****
 34 38 0 0 0
SMALL
GASTEIGER

@<TRIPOS>ATOM
      1 N           7.3829   -2.2427   20.9153 N.3     1  UNL1       -0.2712
      2 C           7.1074   -3.6304   20.4169 C.3     1  UNL1        0.0738
      3 C           5.7175   -3.6531   19.8534 C.3     1  UNL1        0.0372
      4 C           4.6882   -4.5247   19.1971 C.3     1  UNL1        0.0245
      5 C           3.4685   -3.6898   18.9416 C.3     1  UNL1        0.0909
      6 N           3.7440   -2.3021   19.4400 N.pl3   1  UNL1       -0.3077
      7 C           5.1339   -2.2794   20.0035 C.3     1  UNL1        0.0901
      8 C           6.1632   -1.4077   20.6598 C.3     1  UNL1        0.0921
      9 C           2.7960   -1.1409   19.3846 C.ar    1  UNL1        0.0517
     10 C           1.6234   -1.0849   20.3182 C.ar    1  UNL1        0.0145
     11 C           0.6754    0.0762   20.2628 C.ar    1  UNL1        0.0013
     12 C           0.9000    1.1813   19.2738 C.ar    1  UNL1        0.0000
     13 C           2.0727    1.1254   18.3401 C.ar    1  UNL1        0.0051
     14 C           3.0207   -0.0358   18.3955 C.ar    1  UNL1        0.0847
     15 C           4.1934   -0.0918   17.4619 C.3     1  UNL1        0.4197
     16 F           5.3660   -0.1478   16.5283 F       1  UNL1       -0.1658
     17 F           3.4097   -0.9680   16.5302 F       1  UNL1       -0.1658
     18 F           4.9771    0.7845   18.3936 F       1  UNL1       -0.1658
     19 C           8.6548   -1.7724   21.5566 C.3     1  UNL1        0.0731
     20 C           8.6432   -1.2815   22.9739 C.3     1  UNL1        0.0294
     21 C           8.5790   -2.2624   24.1070 C.3     1  UNL1        0.0666
     22 S           7.3286   -2.3801   24.9271 S.3     1  UNL1       -0.0756
     23 C           6.0774    0.6299   24.7727 C.3     1  UNL1        0.1340
     24 N           5.4284   -0.6220   24.2613 N.ar    1  UNL1       -0.2884
     25 C           6.0035   -2.0056   24.3322 C.ar    1  UNL1        0.1932
     26 N           5.0210   -2.9489   23.7039 N.ar    1  UNL1       -0.1221
     27 N           3.8386   -2.1483   23.2445 N.ar    1  UNL1       -0.1282
     28 C           4.0903   -0.7102   23.5890 C.ar    1  UNL1        0.1683
     29 C           3.1663    0.4380   23.3102 C.ar    1  UNL1        0.0551
     30 C           1.8574    0.5407   24.0357 C.ar    1  UNL1        0.0062
     31 C           0.9334    1.6889   23.7569 C.ar    1  UNL1        0.0208
     32 C           1.3183    2.7345   22.7525 C.ar    1  UNL1        0.0989
     33 N           2.6272    2.6318   22.0270 N.ar    1  UNL1       -0.2422
     34 C           3.5512    1.4835   22.3059 C.ar    1  UNL1        0.1019
@<TRIPOS>BOND
     1    23    24    1
     2    24    25   ar
     3    25    22    1
     4    22    21    1
     5    21    20    1
     6    20    19    1
     7    19     1    1
     8     1     2    1
     9     2     3    1
    10     3     4    1
    11     4     5    1
    12     5     6    1
    13     6     9    1
    14     9    10   ar
    15    10    11   ar
    16    11    12   ar
    17    12    13   ar
    18    13    14   ar
    19    14    15    1
    20    15    16    1
    21    15    17    1
    22    15    18    1
    23     6     7    1
    24     7     8    1
    25    25    26   ar
    26    26    27   ar
    27    27    28   ar
    28    28    29    1
    29    29    30   ar
    30    30    31   ar
    31    31    32   ar
    32    32    33   ar
    33    33    34   ar
    34    28    24   ar
    35    34    29   ar
    36     8     1    1
    37     7     3    1
    38    14     9   ar
@<TRIPOS>MOLECULE
*****
 34 38 0 0 0
SMALL
GASTEIGER

@<TRIPOS>ATOM
      1 N           7.7071   -5.2555   23.4920 N.3     1  UNL1       -0.2712
      2 C           8.8620   -5.0915   22.5490 C.3     1  UNL1        0.0738
      3 C           8.4463   -4.1375   21.4687 C.3     1  UNL1        0.0372
      4 C           8.9032   -3.4465   20.2182 C.3     1  UNL1        0.0245
      5 C           7.7739   -2.5939   19.7206 C.3     1  UNL1        0.0909
      6 N           6.6189   -2.7579   20.6637 N.pl3   1  UNL1       -0.3077
      7 C           7.0346   -3.7119   21.7440 C.3     1  UNL1        0.0901
      8 C           6.5777   -4.4029   22.9945 C.3     1  UNL1        0.0921
      9 C           5.2830   -2.0859   20.5469 C.ar    1  UNL1        0.0517
     10 C           5.0388   -0.7772   21.2379 C.ar    1  UNL1        0.0145
     11 C           3.7028   -0.1052   21.1211 C.ar    1  UNL1        0.0013
     12 C           2.6111   -0.7419   20.3133 C.ar    1  UNL1        0.0000
     13 C           2.8553   -2.0507   19.6222 C.ar    1  UNL1        0.0051
     14 C           4.1912   -2.7227   19.7390 C.ar    1  UNL1        0.0847
     15 C           4.4354   -4.0314   19.0479 C.3     1  UNL1        0.4197
     16 F           4.6796   -5.3401   18.3569 F       1  UNL1       -0.1658
     17 F           5.0525   -3.3048   17.8899 F       1  UNL1       -0.1658
     18 F           3.8183   -4.7581   20.2060 F       1  UNL1       -0.1658
     19 C           7.6853   -6.1203   24.7174 C.3     1  UNL1        0.0731
     20 C           8.6770   -5.8864   25.8182 C.3     1  UNL1        0.0294
     21 C           8.2862   -5.0798   27.0210 C.3     1  UNL1        0.0666
     22 S           7.0162   -5.3943   27.7546 S.3     1  UNL1       -0.0756
     23 C           6.3319   -2.4879   29.0714 C.3     1  UNL1        0.1340
     24 N           6.5883   -3.7591   29.8253 N.ar    1  UNL1       -0.2884
     25 C           6.9028   -5.0950   29.2200 C.ar    1  UNL1        0.1932
     26 N           7.0841   -6.0791   30.3375 N.ar    1  UNL1       -0.1221
     27 N           6.8816   -5.3514   31.6334 N.ar    1  UNL1       -0.1282
     28 C           6.5752   -3.9175   31.3169 C.ar    1  UNL1        0.1683
     29 C           6.3033   -2.8326   32.3165 C.ar    1  UNL1        0.0551
     30 C           4.9437   -2.7087   32.9378 C.ar    1  UNL1        0.0062
     31 C           4.6718   -1.6238   33.9373 C.ar    1  UNL1        0.0208
     32 C           5.7597   -0.6628   34.3156 C.ar    1  UNL1        0.0989
     33 N           7.1194   -0.7867   33.6943 N.ar    1  UNL1       -0.2422
     34 C           7.3912   -1.8716   32.6947 C.ar    1  UNL1        0.1019
@<TRIPOS>BOND
     1    23    24    1
     2    24    25   ar
     3    25    22    1
     4    22    21    1
     5    21    20    1
     6    20    19    1
     7    19     1    1
     8     1     2    1
     9     2     3    1
    10     3     4    1
    11     4     5    1
    12     5     6    1
    13     6     9    1
    14     9    10   ar
    15    10    11   ar
    16    11    12   ar
    17    12    13   ar
    18    13    14   ar
    19    14    15    1
    20    15    16    1
    21    15    17    1
    22    15    18    1
    23     6     7    1
    24     7     8    1
    25    25    26   ar
    26    26    27   ar
    27    27    28   ar
    28    28    29    1
    29    29    30   ar
    30    30    31   ar
    31    31    32   ar
    32    32    33   ar
    33    33    34   ar
    34    28    24   ar
    35    34    29   ar
    36     8     1    1
    37     7     3    1
    38    14     9   ar
