@<TRIPOS>MOLECULE
*****
 20 21 0 0 0
SMALL
GASTEIGER

@<TRIPOS>ATOM
      1 C          -2.7389  -18.5804   20.3011 C.ar    1  UNL1        0.0954
      2 S          -4.1281  -18.8464   19.8017 S.2     1  UNL1       -0.0812
      3 C          -5.0414  -18.9201   20.9893 C.ar    1  UNL1        0.0309
      4 C          -4.2167  -18.6996   22.2227 C.ar    1  UNL1        0.0212
      5 C          -2.7937  -18.4896   21.7974 C.ar    1  UNL1        0.0525
      6 N          -1.6297  -18.2339   22.7084 N.pl3   1  UNL1       -0.3565
      7 H          -1.7669  -18.1918   23.6824 H       1  UNL1        0.1424
      8 H          -0.7286  -18.1081   22.3323 H       1  UNL1        0.1424
      9 C          -6.5199  -19.1703   20.9504 C.ar    1  UNL1        0.0062
     10 C          -7.2154  -19.3521   19.6339 C.ar    1  UNL1        0.0028
     11 C          -8.6938  -19.6023   19.5949 C.ar    1  UNL1        0.0297
     12 C          -9.4768  -19.6707   20.8725 C.ar    1  UNL1        0.1401
     13 F         -10.9553  -19.9210   20.8336 F       1  UNL1       -0.2042
     14 C          -8.7813  -19.4890   22.1890 C.ar    1  UNL1        0.0297
     15 C          -7.3029  -19.2388   22.2280 C.ar    1  UNL1        0.0028
     16 N          -1.5996  -17.7573   18.1160 N.am    1  UNL1       -0.3249
     17 C          -1.5106  -18.4313   19.4531 C.2     1  UNL1        0.2500
     18 O          -0.1933  -18.9562   19.9423 O.2     1  UNL1       -0.2698
     19 H          -0.7934  -17.6594   17.5595 H       1  UNL1        0.1453
     20 H          -2.4641  -17.4128   17.7950 H       1  UNL1        0.1453
@<TRIPOS>BOND
     1    16    17   am
     2    17    18    2
     3    17     1    1
     4     1     2   ar
     5     2     3   ar
     6     3     9    1
     7     9    10   ar
     8    10    11   ar
     9    11    12   ar
    10    12    13    1
    11    12    14   ar
    12    14    15   ar
    13     3     4   ar
    14     4     5   ar
    15     5     6    1
    16     5     1   ar
    17    15     9   ar
    18    16    19    1
    19    16    20    1
    20     6     7    1
    21     6     8    1
@<TRIPOS>MOLECULE
*****
 20 21 0 0 0
SMALL
GASTEIGER

@<TRIPOS>ATOM
      1 C          -9.8485  -18.4068   23.1703 C.ar    1  UNL1        0.0954
      2 S          -8.6078  -19.2371   23.0246 S.2     1  UNL1       -0.0812
      3 C          -7.5851  -18.4182   22.2941 C.ar    1  UNL1        0.0309
      4 C          -8.1938  -17.0818   21.9883 C.ar    1  UNL1        0.0212
      5 C          -9.5926  -17.0748   22.5297 C.ar    1  UNL1        0.0525
      6 N         -10.5649  -15.9356   22.4455 N.pl3   1  UNL1       -0.3565
      7 H         -10.3027  -15.0964   22.0026 H       1  UNL1        0.1424
      8 H         -11.4653  -16.0273   22.8330 H       1  UNL1        0.1424
      9 C          -6.1973  -18.8585   21.9329 C.ar    1  UNL1        0.0062
     10 C          -5.9824  -19.7845   20.7727 C.ar    1  UNL1        0.0028
     11 C          -4.5947  -20.2247   20.4115 C.ar    1  UNL1        0.0297
     12 C          -3.4220  -19.7389   21.2106 C.ar    1  UNL1        0.1401
     13 F          -2.0342  -20.1792   20.8494 F       1  UNL1       -0.2042
     14 C          -3.6369  -18.8129   22.3709 C.ar    1  UNL1        0.0297
     15 C          -5.0246  -18.3727   22.7321 C.ar    1  UNL1        0.0028
     16 N         -11.0718  -19.6894   25.0699 N.am    1  UNL1       -0.3249
     17 C         -11.1215  -18.8336   23.8390 C.2     1  UNL1        0.2500
     18 O         -12.4443  -18.4046   23.2767 O.2     1  UNL1       -0.2698
     19 H         -11.9073  -19.9695   25.5088 H       1  UNL1        0.1453
     20 H         -10.2036  -19.9709   25.4389 H       1  UNL1        0.1453
@<TRIPOS>BOND
     1    16    17   am
     2    17    18    2
     3    17     1    1
     4     1     2   ar
     5     2     3   ar
     6     3     9    1
     7     9    10   ar
     8    10    11   ar
     9    11    12   ar
    10    12    13    1
    11    12    14   ar
    12    14    15   ar
    13     3     4   ar
    14     4     5   ar
    15     5     6    1
    16     5     1   ar
    17    15     9   ar
    18    16    19    1
    19    16    20    1
    20     6     7    1
    21     6     8    1
@<TRIPOS>MOLECULE
*****
 20 21 0 0 0
SMALL
GASTEIGER

@<TRIPOS>ATOM
      1 C          -6.7345  -16.3308   23.6945 C.ar    1  UNL1        0.0954
      2 S          -8.1746  -16.2022   24.0938 S.2     1  UNL1       -0.0812
      3 C          -8.9400  -17.3092   23.4314 C.ar    1  UNL1        0.0309
      4 C          -7.9729  -18.1221   22.6228 C.ar    1  UNL1        0.0212
      5 C          -6.6098  -17.5175   22.7853 C.ar    1  UNL1        0.0525
      6 N          -5.3442  -18.0125   22.1503 N.pl3   1  UNL1       -0.3565
      7 H          -5.3640  -18.8042   21.5654 H       1  UNL1        0.1424
      8 H          -4.4939  -17.5457   22.3184 H       1  UNL1        0.1424
      9 C         -10.4138  -17.5594   23.5559 C.ar    1  UNL1        0.0062
     10 C         -10.9212  -18.5848   24.5260 C.ar    1  UNL1        0.0028
     11 C         -12.3949  -18.8349   24.6504 C.ar    1  UNL1        0.0297
     12 C         -13.3612  -18.0597   23.8047 C.ar    1  UNL1        0.1401
     13 F         -14.8350  -18.3098   23.9292 F       1  UNL1       -0.2042
     14 C         -12.8539  -17.0343   22.8346 C.ar    1  UNL1        0.0297
     15 C         -11.3802  -16.7841   22.7102 C.ar    1  UNL1        0.0028
     16 N          -5.4068  -15.1425   25.5853 N.am    1  UNL1       -0.3249
     17 C          -5.6155  -15.4310   24.1282 C.2     1  UNL1        0.2500
     18 O          -4.7052  -14.8196   23.1047 O.2     1  UNL1       -0.2698
     19 H          -4.6724  -14.5519   25.8700 H       1  UNL1        0.1453
     20 H          -6.0043  -15.5438   26.2571 H       1  UNL1        0.1453
@<TRIPOS>BOND
     1    16    17   am
     2    17    18    2
     3    17     1    1
     4     1     2   ar
     5     2     3   ar
     6     3     9    1
     7     9    10   ar
     8    10    11   ar
     9    11    12   ar
    10    12    13    1
    11    12    14   ar
    12    14    15   ar
    13     3     4   ar
    14     4     5   ar
    15     5     6    1
    16     5     1   ar
    17    15     9   ar
    18    16    19    1
    19    16    20    1
    20     6     7    1
    21     6     8    1
@<TRIPOS>MOLECULE
*****
 20 21 0 0 0
SMALL
GASTEIGER

@<TRIPOS>ATOM
      1 C          -7.1448  -15.6226   24.9763 C.ar    1  UNL1        0.0954
      2 S          -8.5498  -16.1472   24.9473 S.2     1  UNL1       -0.0812
      3 C          -8.9681  -16.2730   23.5123 C.ar    1  UNL1        0.0309
      4 C          -7.8216  -15.8261   22.6544 C.ar    1  UNL1        0.0212
      5 C          -6.6948  -15.4242   23.5592 C.ar    1  UNL1        0.0525
      6 N          -5.3534  -14.9134   23.1234 N.pl3   1  UNL1       -0.3565
      7 H          -5.1510  -14.8173   22.1648 H       1  UNL1        0.1424
      8 H          -4.6755  -14.6743   23.7961 H       1  UNL1        0.1424
      9 C         -10.2992  -16.7602   23.0213 C.ar    1  UNL1        0.0062
     10 C         -11.0712  -17.7666   23.8219 C.ar    1  UNL1        0.0028
     11 C         -12.4023  -18.2537   23.3309 C.ar    1  UNL1        0.0297
     12 C         -12.9612  -17.7343   22.0395 C.ar    1  UNL1        0.1401
     13 F         -14.2923  -18.2215   21.5486 F       1  UNL1       -0.2042
     14 C         -12.1891  -16.7279   21.2390 C.ar    1  UNL1        0.0297
     15 C         -10.8581  -16.2408   21.7299 C.ar    1  UNL1        0.0028
     16 N          -6.9933  -14.7850   27.4310 N.am    1  UNL1       -0.3249
     17 C          -6.3325  -15.3451   26.2064 C.2     1  UNL1        0.2500
     18 O          -4.8594  -15.6279   26.2119 O.2     1  UNL1       -0.2698
     19 H          -6.4601  -14.6029   28.2383 H       1  UNL1        0.1453
     20 H          -7.9601  -14.5994   27.4274 H       1  UNL1        0.1453
@<TRIPOS>BOND
     1    16    17   am
     2    17    18    2
     3    17     1    1
     4     1     2   ar
     5     2     3   ar
     6     3     9    1
     7     9    10   ar
     8    10    11   ar
     9    11    12   ar
    10    12    13    1
    11    12    14   ar
    12    14    15   ar
    13     3     4   ar
    14     4     5   ar
    15     5     6    1
    16     5     1   ar
    17    15     9   ar
    18    16    19    1
    19    16    20    1
    20     6     7    1
    21     6     8    1
@<TRIPOS>MOLECULE
*****
 20 21 0 0 0
SMALL
GASTEIGER

@<TRIPOS>ATOM
      1 C          -8.9422  -17.9313   23.0365 C.ar    1  UNL1        0.0954
      2 S          -7.5612  -17.5720   22.5743 S.2     1  UNL1       -0.0812
      3 C          -6.8556  -18.8395   22.1926 C.ar    1  UNL1        0.0309
      4 C          -7.8006  -19.9822   22.4189 C.ar    1  UNL1        0.0212
      5 C          -9.0902  -19.4210   22.9404 C.ar    1  UNL1        0.0525
      6 N         -10.3131  -20.2106   23.3024 N.pl3   1  UNL1       -0.3565
      7 H         -10.3134  -21.1902   23.2042 H       1  UNL1        0.1424
      8 H         -11.1154  -19.7493   23.6381 H       1  UNL1        0.1424
      9 C          -5.4516  -18.9457   21.6754 C.ar    1  UNL1        0.0062
     10 C          -4.2928  -18.6963   22.5946 C.ar    1  UNL1        0.0028
     11 C          -2.8889  -18.8025   22.0774 C.ar    1  UNL1        0.0297
     12 C          -2.6437  -19.1579   20.6409 C.ar    1  UNL1        0.1401
     13 F          -1.2396  -19.2641   20.1237 F       1  UNL1       -0.2042
     14 C          -3.8024  -19.4072   19.7217 C.ar    1  UNL1        0.0297
     15 C          -5.2064  -19.3011   20.2389 C.ar    1  UNL1        0.0028
     16 N          -9.5869  -15.6818   24.1652 N.am    1  UNL1       -0.3249
     17 C          -9.9910  -16.9699   23.5114 C.2     1  UNL1        0.2500
     18 O         -11.4441  -17.2966   23.3324 O.2     1  UNL1       -0.2698
     19 H         -10.2753  -15.0508   24.4769 H       1  UNL1        0.1453
     20 H          -8.6332  -15.4674   24.2827 H       1  UNL1        0.1453
@<TRIPOS>BOND
     1    16    17   am
     2    17    18    2
     3    17     1    1
     4     1     2   ar
     5     2     3   ar
     6     3     9    1
     7     9    10   ar
     8    10    11   ar
     9    11    12   ar
    10    12    13    1
    11    12    14   ar
    12    14    15   ar
    13     3     4   ar
    14     4     5   ar
    15     5     6    1
    16     5     1   ar
    17    15     9   ar
    18    16    19    1
    19    16    20    1
    20     6     7    1
    21     6     8    1
@<TRIPOS>MOLECULE
*****
 20 21 0 0 0
SMALL
GASTEIGER

@<TRIPOS>ATOM
      1 C          -4.1209  -19.2409   21.7179 C.ar    1  UNL1        0.0954
      2 S          -5.2387  -18.6791   22.5456 S.2     1  UNL1       -0.0812
      3 C          -6.5350  -19.1396   21.9476 C.ar    1  UNL1        0.0309
      4 C          -6.2184  -19.9860   20.7504 C.ar    1  UNL1        0.0212
      5 C          -4.7265  -20.0486   20.6084 C.ar    1  UNL1        0.0525
      6 N          -3.9724  -20.7890   19.5438 N.pl3   1  UNL1       -0.3565
      7 H          -4.4618  -21.2937   18.8546 H       1  UNL1        0.1424
      8 H          -2.9882  -20.7702   19.5343 H       1  UNL1        0.1424
      9 C          -7.9070  -18.8113   22.4574 C.ar    1  UNL1        0.0062
     10 C          -8.3896  -17.3911   22.4509 C.ar    1  UNL1        0.0028
     11 C          -9.7615  -17.0629   22.9607 C.ar    1  UNL1        0.0297
     12 C         -10.6509  -18.1548   23.4770 C.ar    1  UNL1        0.1401
     13 F         -12.0229  -17.8265   23.9869 F       1  UNL1       -0.2042
     14 C         -10.1683  -19.5750   23.4836 C.ar    1  UNL1        0.0297
     15 C          -8.7964  -19.9033   22.9738 C.ar    1  UNL1        0.0028
     16 N          -2.1835  -17.8256   22.7145 N.am    1  UNL1       -0.3249
     17 C          -2.6551  -19.0317   21.9576 C.2     1  UNL1        0.2500
     18 O          -1.6608  -20.0287   21.4405 O.2     1  UNL1       -0.2698
     19 H          -1.2214  -17.6883   22.8718 H       1  UNL1        0.1453
     20 H          -2.8361  -17.1712   23.0539 H       1  UNL1        0.1453
@<TRIPOS>BOND
     1    16    17   am
     2    17    18    2
     3    17     1    1
     4     1     2   ar
     5     2     3   ar
     6     3     9    1
     7     9    10   ar
     8    10    11   ar
     9    11    12   ar
    10    12    13    1
    11    12    14   ar
    12    14    15   ar
    13     3     4   ar
    14     4     5   ar
    15     5     6    1
    16     5     1   ar
    17    15     9   ar
    18    16    19    1
    19    16    20    1
    20     6     7    1
    21     6     8    1
@<TRIPOS>MOLECULE
*****
 20 21 0 0 0
SMALL
GASTEIGER

@<TRIPOS>ATOM
      1 C          -4.5661  -19.3403   21.5818 C.ar    1  UNL1        0.0954
      2 S          -6.0323  -19.6362   21.4685 S.2     1  UNL1       -0.0812
      3 C          -6.7682  -18.6817   22.3615 C.ar    1  UNL1        0.0309
      4 C          -5.7568  -17.7959   23.0266 C.ar    1  UNL1        0.0212
      5 C          -4.3959  -18.2029   22.5448 C.ar    1  UNL1        0.0525
      6 N          -3.0934  -17.5816   22.9541 N.pl3   1  UNL1       -0.3565
      7 H          -3.0842  -16.8352   23.5959 H       1  UNL1        0.1424
      8 H          -2.2477  -17.9203   22.5808 H       1  UNL1        0.1424
      9 C          -8.2545  -18.6232   22.5552 C.ar    1  UNL1        0.0062
     10 C          -8.9925  -17.3400   22.3134 C.ar    1  UNL1        0.0028
     11 C         -10.4788  -17.2816   22.5071 C.ar    1  UNL1        0.0297
     12 C         -11.2270  -18.5065   22.9427 C.ar    1  UNL1        0.1401
     13 F         -12.7134  -18.4481   23.1365 F       1  UNL1       -0.2042
     14 C         -10.4890  -19.7898   23.1846 C.ar    1  UNL1        0.0297
     15 C          -9.0028  -19.8481   22.9908 C.ar    1  UNL1        0.0028
     16 N          -3.7122  -20.6362   19.4982 N.am    1  UNL1       -0.3249
     17 C          -3.4638  -20.0562   20.8590 C.2     1  UNL1        0.2500
     18 O          -2.1131  -20.1919   21.4971 O.2     1  UNL1       -0.2698
     19 H          -2.9887  -21.1061   19.0238 H       1  UNL1        0.1453
     20 H          -4.5987  -20.5471   19.0794 H       1  UNL1        0.1453
@<TRIPOS>BOND
     1    16    17   am
     2    17    18    2
     3    17     1    1
     4     1     2   ar
     5     2     3   ar
     6     3     9    1
     7     9    10   ar
     8    10    11   ar
     9    11    12   ar
    10    12    13    1
    11    12    14   ar
    12    14    15   ar
    13     3     4   ar
    14     4     5   ar
    15     5     6    1
    16     5     1   ar
    17    15     9   ar
    18    16    19    1
    19    16    20    1
    20     6     7    1
    21     6     8    1
@<TRIPOS>MOLECULE
*****
 20 21 0 0 0
SMALL
GASTEIGER

@<TRIPOS>ATOM
      1 C         -11.6785   -5.0758   19.1087 C.ar    1  UNL1        0.0954
      2 S         -12.2619   -6.4169   18.7754 S.2     1  UNL1       -0.0812
      3 C         -13.7295   -6.3733   19.0823 C.ar    1  UNL1        0.0309
      4 C         -14.0532   -5.0051   19.6053 C.ar    1  UNL1        0.0212
      5 C         -12.7856   -4.2033   19.6216 C.ar    1  UNL1        0.0525
      6 N         -12.6491   -2.7789   20.0717 N.pl3   1  UNL1       -0.3565
      7 H         -13.4385   -2.2867   20.3938 H       1  UNL1        0.1424
      8 H         -11.7701   -2.3363   20.0449 H       1  UNL1        0.1424
      9 C         -14.7026   -7.5000   18.8986 C.ar    1  UNL1        0.0062
     10 C         -14.3021   -8.7172   18.1190 C.ar    1  UNL1        0.0028
     11 C         -15.2751   -9.8439   17.9353 C.ar    1  UNL1        0.0297
     12 C         -16.6487   -9.7532   18.5311 C.ar    1  UNL1        0.1401
     13 F         -17.6218  -10.8799   18.3473 F       1  UNL1       -0.2042
     14 C         -17.0493   -8.5359   19.3107 C.ar    1  UNL1        0.0297
     15 C         -16.0762   -7.4093   19.4944 C.ar    1  UNL1        0.0028
     16 N          -9.8748   -3.5035   18.0964 N.am    1  UNL1       -0.3249
     17 C         -10.2405   -4.6772   18.9559 C.2     1  UNL1        0.2500
     18 O          -9.1682   -5.4523   19.6626 O.2     1  UNL1       -0.2698
     19 H          -8.9311   -3.2419   17.9961 H       1  UNL1        0.1453
     20 H         -10.5786   -2.9948   17.6326 H       1  UNL1        0.1453
@<TRIPOS>BOND
     1    16    17   am
     2    17    18    2
     3    17     1    1
     4     1     2   ar
     5     2     3   ar
     6     3     9    1
     7     9    10   ar
     8    10    11   ar
     9    11    12   ar
    10    12    13    1
    11    12    14   ar
    12    14    15   ar
    13     3     4   ar
    14     4     5   ar
    15     5     6    1
    16     5     1   ar
    17    15     9   ar
    18    16    19    1
    19    16    20    1
    20     6     7    1
    21     6     8    1
@<TRIPOS>MOLECULE
*****
 20 21 0 0 0
SMALL
GASTEIGER

@<TRIPOS>ATOM
      1 C          -6.2490  -16.2657   23.9187 C.ar    1  UNL1        0.0954
      2 S          -7.3622  -16.8537   23.1032 S.2     1  UNL1       -0.0812
      3 C          -8.6573  -16.5389   23.7913 C.ar    1  UNL1        0.0309
      4 C          -8.3446  -15.7562   25.0322 C.ar    1  UNL1        0.0212
      5 C          -6.8563  -15.5874   25.1109 C.ar    1  UNL1        0.0525
      6 N          -6.1066  -14.8667   26.1920 N.pl3   1  UNL1       -0.3565
      7 H          -6.5968  -14.4513   26.9380 H       1  UNL1        0.1424
      8 H          -5.1245  -14.8092   26.1557 H       1  UNL1        0.1424
      9 C         -10.0251  -16.9368   23.3211 C.ar    1  UNL1        0.0062
     10 C         -10.6181  -16.2889   22.1052 C.ar    1  UNL1        0.0028
     11 C         -11.9858  -16.6869   21.6351 C.ar    1  UNL1        0.0297
     12 C         -12.7604  -17.7328   22.3809 C.ar    1  UNL1        0.1401
     13 F         -14.1281  -18.1307   21.9107 F       1  UNL1       -0.2042
     14 C         -12.1673  -18.3807   23.5968 C.ar    1  UNL1        0.0297
     15 C         -10.7997  -17.9827   24.0669 C.ar    1  UNL1        0.0028
     16 N          -4.1099  -15.1999   22.8997 N.am    1  UNL1       -0.3249
     17 C          -4.7857  -16.3424   23.5983 C.2     1  UNL1        0.2500
     18 O          -3.9981  -17.5617   23.9765 O.2     1  UNL1       -0.2698
     19 H          -3.1495  -15.2503   22.6895 H       1  UNL1        0.1453
     20 H          -4.6269  -14.3996   22.6515 H       1  UNL1        0.1453
@<TRIPOS>BOND
     1    16    17   am
     2    17    18    2
     3    17     1    1
     4     1     2   ar
     5     2     3   ar
     6     3     9    1
     7     9    10   ar
     8    10    11   ar
     9    11    12   ar
    10    12    13    1
    11    12    14   ar
    12    14    15   ar
    13     3     4   ar
    14     4     5   ar
    15     5     6    1
    16     5     1   ar
    17    15     9   ar
    18    16    19    1
    19    16    20    1
    20     6     7    1
    21     6     8    1
