@<TRIPOS>MOLECULE
*****
 62 68 0 0 0
SMALL
GASTEIGER

@<TRIPOS>ATOM
      1 C           3.9559   -1.1437   25.1559 C.3     1  UNL1        0.1021
      2 N           1.1774    1.0984   22.4168 N.3     1  UNL1       -0.2650
      3 C           2.0291   -0.0118   21.8763 C.3     1  UNL1        0.0900
      4 C           2.9553   -0.7591   22.7893 C.3     1  UNL1        0.0901
      5 N           3.0298   -0.3964   24.2428 N.3     1  UNL1       -0.2621
      6 C           2.1781    0.7138   24.7833 C.3     1  UNL1        0.1510
      7 C           1.2519    1.4611   23.8703 C.3     1  UNL1        0.0980
      8 C           2.2525    1.0766   26.2369 C.2     1  UNL1        0.2386
      9 O           3.2178    2.1276   26.6991 O.2     1  UNL1       -0.2736
     10 N           1.3617    0.3884   27.2283 N.am    1  UNL1       -0.2961
     11 H           0.7282   -0.3014   26.9250 H       1  UNL1        0.1497
     12 C           1.4362    0.7512   28.6818 C.3     1  UNL1        0.1939
     13 C           2.0024   -0.2246   29.6704 C.3     1  UNL1        0.4154
     14 F           2.5686   -1.2005   30.6589 F       1  UNL1       -0.1682
     15 F           1.6394    0.7018   30.7928 F       1  UNL1       -0.1682
     16 F           2.3654   -1.1510   28.5479 F       1  UNL1       -0.1682
     17 C           0.2471    0.6830   20.5561 C.3     1  UNL1        0.0255
     18 C           0.2512    1.8457   21.5037 C.3     1  UNL1        0.1147
     19 C           0.2553    3.0085   22.4514 C.3     1  UNL1        0.0255
     20 C          -0.6750    2.5931   20.5907 C.ar    1  UNL1        0.2185
     21 N          -0.3103    3.1980   19.2674 N.ar    1  UNL1       -0.2094
     22 C          -1.5384    3.8456   18.6995 C.ar    1  UNL1        0.1392
     23 C          -2.6621    3.6408   19.6718 C.ar    1  UNL1        0.1659
     24 O          -2.1285    2.8668   20.8406 O.2     1  UNL1       -0.4370
     25 C          -4.0719    4.1251   19.5047 C.ar    1  UNL1        0.0362
     26 C          -4.9038    3.6311   18.3584 C.ar    1  UNL1        0.0039
     27 C          -6.3135    4.1154   18.1914 C.ar    1  UNL1        0.0115
     28 C          -6.8914    5.0937   19.1705 C.ar    1  UNL1        0.0577
     29 CL         -8.3013    5.5781   19.0035 Cl      1  UNL1       -0.0822
     30 C          -6.0596    5.5878   20.3168 C.ar    1  UNL1        0.0115
     31 C          -4.6498    5.1035   20.4839 C.ar    1  UNL1        0.0039
     32 C           5.3773   -0.6920   25.3160 C.3     1  UNL1        0.1269
     33 O           5.6823    0.5756   26.0579 O.3     1  UNL1       -0.3830
     34 H           6.6413    0.7207   26.0694 H       1  UNL1        0.2104
     35 C           6.4936   -1.5077   24.7343 C.3     1  UNL1        0.0401
     36 C           6.6638   -2.9422   25.1386 C.3     1  UNL1        0.0838
     37 C           7.0232   -3.2850   26.5540 C.2     1  UNL1        0.2227
     38 O           8.4595   -3.2754   26.9864 O.2     1  UNL1       -0.2751
     39 N           5.9464   -3.6373   27.5369 N.am    1  UNL1       -0.2999
     40 H           5.0037   -3.6436   27.2531 H       1  UNL1        0.1498
     41 C           6.3058   -3.9801   28.9523 C.3     1  UNL1        0.1278
     42 C           6.2542   -2.9237   30.0161 C.ar    1  UNL1        0.0320
     43 C           5.8433   -1.5246   29.6644 C.ar    1  UNL1        0.0004
     44 C           5.7918   -0.4683   30.7281 C.ar    1  UNL1       -0.0001
     45 C           6.1512   -0.8111   32.1435 C.ar    1  UNL1        0.0031
     46 C           6.5622   -2.2102   32.4952 C.ar    1  UNL1        0.0366
     47 C           6.6137   -3.2664   31.4314 C.ar    1  UNL1        0.1362
     48 O           7.0246   -4.6656   31.7831 O.3     1  UNL1       -0.4730
     49 C           7.0761   -5.7219   30.7194 C.3     1  UNL1        0.2364
     50 C           6.7167   -5.3791   29.3040 C.3     1  UNL1        0.1762
     51 O           6.7682   -6.4355   28.2402 O.3     1  UNL1       -0.3788
     52 H           7.0505   -7.2763   28.6330 H       1  UNL1        0.2106
     53 C           6.4745   -4.0339   24.1274 C.3     1  UNL1        0.0421
     54 C           6.1497   -3.6897   22.7040 C.ar    1  UNL1        0.0078
     55 C           7.1372   -3.3035   21.6429 C.ar    1  UNL1        0.0042
     56 C           6.3783   -3.0464   20.3749 C.ar    1  UNL1        0.0253
     57 C           6.8253   -2.6347   19.0036 C.ar    1  UNL1        0.0993
     58 N           5.8158   -2.4502   17.9095 N.ar    1  UNL1       -0.2423
     59 C           4.3593   -2.6775   18.1868 C.ar    1  UNL1        0.0994
     60 C           3.9122   -3.0892   19.5582 C.ar    1  UNL1        0.0271
     61 C           4.9217   -3.2737   20.6523 C.ar    1  UNL1        0.0322
     62 S           4.7805   -3.6712   22.0917 S.2     1  UNL1       -0.0912
@<TRIPOS>BOND
     1    17    18    1
     2    18    19    1
     3    18    20    1
     4    20    21   ar
     5    21    22   ar
     6    22    23   ar
     7    23    25    1
     8    25    26   ar
     9    26    27   ar
    10    27    28   ar
    11    28    29    1
    12    28    30   ar
    13    30    31   ar
    14    23    24   ar
    15    18     2    1
    16     2     3    1
    17     3     4    1
    18     4     5    1
    19     5     1    1
    20     1    32    1
    21    32    33    1
    22    32    35    1
    23    36    35    1
    24    36    53    1
    25    53    54    1
    26    54    55   ar
    27    55    56   ar
    28    56    57   ar
    29    57    58   ar
    30    58    59   ar
    31    59    60   ar
    32    60    61   ar
    33    61    62   ar
    34    36    37    1
    35    37    38    2
    36    37    39   am
    37    41    39    1
    38    41    42    1
    39    42    43   ar
    40    43    44   ar
    41    44    45   ar
    42    45    46   ar
    43    46    47   ar
    44    47    48    1
    45    48    49    1
    46    49    50    1
    47    50    51    1
    48     5     6    1
    49     6     8    1
    50     8     9    2
    51     8    10   am
    52    10    12    1
    53    12    13    1
    54    13    14    1
    55    13    15    1
    56    13    16    1
    57     6     7    1
    58    24    20   ar
    59     7     2    1
    60    31    25   ar
    61    62    54   ar
    62    50    41    1
    63    61    56   ar
    64    47    42   ar
    65    33    34    1
    66    39    40    1
    67    51    52    1
    68    10    11    1
@<TRIPOS>MOLECULE
*****
 62 68 0 0 0
SMALL
GASTEIGER

@<TRIPOS>ATOM
      1 C           2.0126   -0.6123   28.4602 C.3     1  UNL1        0.1021
      2 N           2.4339    1.3422   32.4916 N.3     1  UNL1       -0.2650
      3 C           3.3006    0.1723   32.1310 C.3     1  UNL1        0.0900
      4 C           3.1602   -0.4792   30.7872 C.3     1  UNL1        0.0901
      5 N           2.1530    0.0392   29.8040 N.3     1  UNL1       -0.2621
      6 C           1.2863    1.2091   30.1645 C.3     1  UNL1        0.1510
      7 C           1.4267    1.8606   31.5083 C.3     1  UNL1        0.0980
      8 C           0.2790    1.7275   29.1812 C.2     1  UNL1        0.2386
      9 O          -0.9711    0.9458   28.9056 O.2     1  UNL1       -0.2736
     10 N           0.5220    3.0276   28.4737 N.am    1  UNL1       -0.2961
     11 H           1.3425    3.5407   28.6546 H       1  UNL1        0.1497
     12 C          -0.4852    3.5460   27.4905 C.3     1  UNL1        0.1939
     13 C          -0.4327    3.1024   26.0585 C.3     1  UNL1        0.4154
     14 F          -0.3801    2.6588   24.6266 F       1  UNL1       -0.1682
     15 F          -1.7375    2.3834   26.2333 F       1  UNL1       -0.1682
     16 F           0.8721    3.8213   25.8837 F       1  UNL1       -0.1682
     17 C           1.5668    3.0314   33.4376 C.3     1  UNL1        0.0255
     18 C           2.5743    1.9937   33.8354 C.3     1  UNL1        0.1147
     19 C           3.5818    0.9561   34.2332 C.3     1  UNL1        0.0255
     20 C           2.7148    2.6453   35.1792 C.ar    1  UNL1        0.2185
     21 N           1.7457    3.6090   35.7974 N.ar    1  UNL1       -0.2094
     22 C           2.2809    4.0068   37.1410 C.ar    1  UNL1        0.1392
     23 C           3.5808    3.2889   37.3532 C.ar    1  UNL1        0.1659
     24 O           3.8489    2.4475   36.1407 O.2     1  UNL1       -0.4370
     25 C           4.4585    3.3941   38.5651 C.ar    1  UNL1        0.0362
     26 C           4.0317    4.2381   39.7293 C.ar    1  UNL1        0.0039
     27 C           4.9094    4.3432   40.9411 C.ar    1  UNL1        0.0115
     28 C           6.2138    3.6042   40.9887 C.ar    1  UNL1        0.0577
     29 CL          7.0916    3.7093   42.2006 Cl      1  UNL1       -0.0822
     30 C           6.6406    2.7602   39.8245 C.ar    1  UNL1        0.0115
     31 C           5.7629    2.6551   38.6127 C.ar    1  UNL1        0.0039
     32 C           3.1974   -0.7074   27.5453 C.3     1  UNL1        0.1269
     33 O           3.8543   -2.0343   27.3042 O.3     1  UNL1       -0.3830
     34 H           4.5988   -1.9201   26.6930 H       1  UNL1        0.2104
     35 C           3.7254    0.5243   26.8714 C.3     1  UNL1        0.0401
     36 C           3.7538    0.6062   25.3738 C.3     1  UNL1        0.0838
     37 C           4.5949   -0.3541   24.5861 C.2     1  UNL1        0.2227
     38 O           5.9640    0.0509   24.1262 O.2     1  UNL1       -0.2751
     39 N           4.0668   -1.7192   24.2582 N.am    1  UNL1       -0.2999
     40 H           3.1682   -1.9850   24.5601 H       1  UNL1        0.1498
     41 C           4.9079   -2.6795   23.4705 C.3     1  UNL1        0.1278
     42 C           4.7125   -2.8066   21.9887 C.ar    1  UNL1        0.0320
     43 C           3.6760   -1.9735   21.2947 C.ar    1  UNL1        0.0004
     44 C           3.4806   -2.1006   19.8129 C.ar    1  UNL1       -0.0001
     45 C           4.3217   -3.0608   19.0252 C.ar    1  UNL1        0.0031
     46 C           5.3581   -3.8939   19.7192 C.ar    1  UNL1        0.0366
     47 C           5.5535   -3.7668   21.2009 C.ar    1  UNL1        0.1362
     48 O           6.5900   -4.5999   21.8950 O.3     1  UNL1       -0.4730
     49 C           6.7854   -4.4728   23.3767 C.3     1  UNL1        0.2364
     50 C           5.9443   -3.5126   24.1645 C.3     1  UNL1        0.1762
     51 O           6.1397   -3.3854   25.6463 O.3     1  UNL1       -0.3788
     52 H           6.8428   -3.9893   25.9327 H       1  UNL1        0.2106
     53 C           2.9412    1.6482   24.6641 C.3     1  UNL1        0.0421
     54 C           2.5998    1.4739   23.2139 C.ar    1  UNL1        0.0078
     55 C           1.3680    0.8115   22.6715 C.ar    1  UNL1        0.0042
     56 C           1.4371    0.8596   21.1739 C.ar    1  UNL1        0.0253
     57 C           0.5042    0.3626   20.1096 C.ar    1  UNL1        0.0993
     58 N           0.8457    0.5576   18.6621 N.ar    1  UNL1       -0.2423
     59 C           2.1202    1.2496   18.2789 C.ar    1  UNL1        0.0994
     60 C           3.0531    1.7467   19.3431 C.ar    1  UNL1        0.0271
     61 C           2.7116    1.5516   20.7907 C.ar    1  UNL1        0.0322
     62 S           3.4301    1.9313   22.0514 S.2     1  UNL1       -0.0912
@<TRIPOS>BOND
     1    17    18    1
     2    18    19    1
     3    18    20    1
     4    20    21   ar
     5    21    22   ar
     6    22    23   ar
     7    23    25    1
     8    25    26   ar
     9    26    27   ar
    10    27    28   ar
    11    28    29    1
    12    28    30   ar
    13    30    31   ar
    14    23    24   ar
    15    18     2    1
    16     2     3    1
    17     3     4    1
    18     4     5    1
    19     5     1    1
    20     1    32    1
    21    32    33    1
    22    32    35    1
    23    36    35    1
    24    36    53    1
    25    53    54    1
    26    54    55   ar
    27    55    56   ar
    28    56    57   ar
    29    57    58   ar
    30    58    59   ar
    31    59    60   ar
    32    60    61   ar
    33    61    62   ar
    34    36    37    1
    35    37    38    2
    36    37    39   am
    37    41    39    1
    38    41    42    1
    39    42    43   ar
    40    43    44   ar
    41    44    45   ar
    42    45    46   ar
    43    46    47   ar
    44    47    48    1
    45    48    49    1
    46    49    50    1
    47    50    51    1
    48     5     6    1
    49     6     8    1
    50     8     9    2
    51     8    10   am
    52    10    12    1
    53    12    13    1
    54    13    14    1
    55    13    15    1
    56    13    16    1
    57     6     7    1
    58    24    20   ar
    59     7     2    1
    60    31    25   ar
    61    62    54   ar
    62    50    41    1
    63    61    56   ar
    64    47    42   ar
    65    33    34    1
    66    39    40    1
    67    51    52    1
    68    10    11    1
@<TRIPOS>MOLECULE
*****
 62 68 0 0 0
SMALL
GASTEIGER

@<TRIPOS>ATOM
      1 C           2.2238    3.6936   23.3879 C.3     1  UNL1        0.1021
      2 N           4.6429   -0.1008   23.3710 N.3     1  UNL1       -0.2650
      3 C           5.0189    1.0323   22.4630 C.3     1  UNL1        0.0900
      4 C           4.2125    2.2971   22.4686 C.3     1  UNL1        0.0901
      5 N           3.0302    2.4288   23.3823 N.3     1  UNL1       -0.2621
      6 C           2.6543    1.2956   24.2903 C.3     1  UNL1        0.1510
      7 C           3.4606    0.0308   24.2846 C.3     1  UNL1        0.0980
      8 C           1.4719    1.4272   25.2040 C.2     1  UNL1        0.2386
      9 O           0.0837    1.2479   24.6647 O.2     1  UNL1       -0.2736
     10 N           1.6777    1.7380   26.6569 N.am    1  UNL1       -0.2961
     11 H           2.5888    1.8557   27.0108 H       1  UNL1        0.1497
     12 C           0.4954    1.8696   27.5705 C.3     1  UNL1        0.1939
     13 C          -0.2301    0.6433   28.0395 C.3     1  UNL1        0.4154
     14 F          -0.9557   -0.5828   28.5086 F       1  UNL1       -0.1682
     15 F           1.0810   -0.0606   28.2275 F       1  UNL1       -0.1682
     16 F          -1.5413    1.3473   27.8516 F       1  UNL1       -0.1682
     17 C           4.2437   -2.1363   23.8155 C.3     1  UNL1        0.0255
     18 C           5.4493   -1.3657   23.3654 C.3     1  UNL1        0.1147
     19 C           6.6549   -0.5950   22.9153 C.3     1  UNL1        0.0255
     20 C           6.2557   -2.6305   23.3598 C.ar    1  UNL1        0.2185
     21 N           7.0260   -3.1798   22.1958 N.ar    1  UNL1       -0.2094
     22 C           7.6797   -4.4569   22.6338 C.ar    1  UNL1        0.1392
     23 C           7.3134   -4.6968   24.0684 C.ar    1  UNL1        0.1659
     24 O           6.4333   -3.5680   24.5171 O.2     1  UNL1       -0.4370
     25 C           7.7504   -5.8611   24.9072 C.ar    1  UNL1        0.0362
     26 C           7.2583   -5.9959   26.3177 C.ar    1  UNL1        0.0039
     27 C           7.6953   -7.1602   27.1564 C.ar    1  UNL1        0.0115
     28 C           8.6245   -8.1896   26.5846 C.ar    1  UNL1        0.0577
     29 CL          9.0616   -9.3539   27.4233 Cl      1  UNL1       -0.0822
     30 C           9.1167   -8.0547   25.1740 C.ar    1  UNL1        0.0115
     31 C           8.6796   -6.8904   24.3354 C.ar    1  UNL1        0.0039
     32 C           0.8876    3.7341   22.7077 C.3     1  UNL1        0.1269
     33 O          -0.3204    4.2156   23.4555 O.3     1  UNL1       -0.3830
     34 H          -1.0963    4.1785   22.8746 H       1  UNL1        0.2104
     35 C           0.7592    3.2933   21.2797 C.3     1  UNL1        0.0401
     36 C          -0.4912    2.6061   20.8165 C.3     1  UNL1        0.0838
     37 C          -1.7795    3.3698   20.7325 C.2     1  UNL1        0.2227
     38 O          -1.7659    4.8695   20.7648 O.2     1  UNL1       -0.2751
     39 N          -3.0814    2.6340   20.6163 N.am    1  UNL1       -0.2999
     40 H          -3.0903    1.6497   20.5951 H       1  UNL1        0.1498
     41 C          -4.3697    3.3976   20.5323 C.3     1  UNL1        0.1278
     42 C          -5.1272    3.7305   21.7835 C.ar    1  UNL1        0.0320
     43 C          -4.5964    3.2996   23.1186 C.ar    1  UNL1        0.0004
     44 C          -5.3539    3.6325   24.3697 C.ar    1  UNL1       -0.0001
     45 C          -6.6422    4.3961   24.2858 C.ar    1  UNL1        0.0031
     46 C          -7.1730    4.8270   22.9507 C.ar    1  UNL1        0.0366
     47 C          -6.4155    4.4942   21.6995 C.ar    1  UNL1        0.1362
     48 O          -6.9463    4.9250   20.3643 O.3     1  UNL1       -0.4730
     49 C          -6.1888    4.5922   19.1132 C.3     1  UNL1        0.2364
     50 C          -4.9005    3.8285   19.1972 C.3     1  UNL1        0.1762
     51 O          -4.1430    3.4957   17.9459 O.3     1  UNL1       -0.3788
     52 H          -4.6200    3.8444   17.1767 H       1  UNL1        0.2106
     53 C          -0.4532    1.1554   20.4373 C.3     1  UNL1        0.0421
     54 C           0.8109    0.5539   19.8983 C.ar    1  UNL1        0.0078
     55 C           1.3194    0.6830   18.4930 C.ar    1  UNL1        0.0042
     56 C           2.6111   -0.0734   18.3961 C.ar    1  UNL1        0.0253
     57 C           3.5608   -0.2960   17.2567 C.ar    1  UNL1        0.0993
     58 N           4.8004   -1.1151   17.4626 N.ar    1  UNL1       -0.2423
     59 C           5.0902   -1.7117   18.8080 C.ar    1  UNL1        0.0994
     60 C           4.1404   -1.4891   19.9475 C.ar    1  UNL1        0.0271
     61 C           2.9009   -0.6699   19.7416 C.ar    1  UNL1        0.0322
     62 S           1.7883   -0.2823   20.6699 S.2     1  UNL1       -0.0912
@<TRIPOS>BOND
     1    17    18    1
     2    18    19    1
     3    18    20    1
     4    20    21   ar
     5    21    22   ar
     6    22    23   ar
     7    23    25    1
     8    25    26   ar
     9    26    27   ar
    10    27    28   ar
    11    28    29    1
    12    28    30   ar
    13    30    31   ar
    14    23    24   ar
    15    18     2    1
    16     2     3    1
    17     3     4    1
    18     4     5    1
    19     5     1    1
    20     1    32    1
    21    32    33    1
    22    32    35    1
    23    36    35    1
    24    36    53    1
    25    53    54    1
    26    54    55   ar
    27    55    56   ar
    28    56    57   ar
    29    57    58   ar
    30    58    59   ar
    31    59    60   ar
    32    60    61   ar
    33    61    62   ar
    34    36    37    1
    35    37    38    2
    36    37    39   am
    37    41    39    1
    38    41    42    1
    39    42    43   ar
    40    43    44   ar
    41    44    45   ar
    42    45    46   ar
    43    46    47   ar
    44    47    48    1
    45    48    49    1
    46    49    50    1
    47    50    51    1
    48     5     6    1
    49     6     8    1
    50     8     9    2
    51     8    10   am
    52    10    12    1
    53    12    13    1
    54    13    14    1
    55    13    15    1
    56    13    16    1
    57     6     7    1
    58    24    20   ar
    59     7     2    1
    60    31    25   ar
    61    62    54   ar
    62    50    41    1
    63    61    56   ar
    64    47    42   ar
    65    33    34    1
    66    39    40    1
    67    51    52    1
    68    10    11    1
@<TRIPOS>MOLECULE
*****
 62 68 0 0 0
SMALL
GASTEIGER

@<TRIPOS>ATOM
      1 C           3.8322    0.2627   25.5760 C.3     1  UNL1        0.1021
      2 N           0.9222    1.9487   22.5861 N.3     1  UNL1       -0.2650
      3 C           2.2021    1.3232   22.1165 C.3     1  UNL1        0.0900
      4 C           3.1721    0.7612   23.1132 C.3     1  UNL1        0.0901
      5 N           2.8622    0.8247   24.5794 N.3     1  UNL1       -0.2621
      6 C           1.5823    1.4502   25.0489 C.3     1  UNL1        0.1510
      7 C           0.6123    2.0122   24.0523 C.3     1  UNL1        0.0980
      8 C           1.2723    1.5137   26.5152 C.2     1  UNL1        0.2386
      9 O           1.3853    2.8165   27.2500 O.2     1  UNL1       -0.2736
     10 N           0.8493    0.2744   27.2467 N.am    1  UNL1       -0.2961
     11 H           0.7751   -0.5807   26.7645 H       1  UNL1        0.1497
     12 C           0.5393    0.3379   28.7130 C.3     1  UNL1        0.1939
     13 C          -0.8830    0.2589   29.1830 C.3     1  UNL1        0.4154
     14 F          -2.3053    0.1800   29.6530 F       1  UNL1       -0.1682
     15 F          -1.1570   -0.8162   28.1736 F       1  UNL1       -0.1682
     16 F          -0.6091    1.3341   30.1924 F       1  UNL1       -0.1682
     17 C           0.2155    1.3488   20.6780 C.3     1  UNL1        0.0255
     18 C          -0.0478    2.5107   21.5894 C.3     1  UNL1        0.1147
     19 C          -0.3111    3.6726   22.5008 C.3     1  UNL1        0.0255
     20 C          -1.0177    3.0726   20.5928 C.ar    1  UNL1        0.2185
     21 N          -0.7139    3.4188   19.1653 N.ar    1  UNL1       -0.2094
     22 C          -1.9702    3.9473   18.5389 C.ar    1  UNL1        0.1392
     23 C          -3.0506    3.9277   19.5793 C.ar    1  UNL1        0.1659
     24 O          -2.4619    3.3871   20.8486 O.2     1  UNL1       -0.4370
     25 C          -4.4703    4.3708   19.3845 C.ar    1  UNL1        0.0362
     26 C          -4.8573    5.7929   19.6639 C.ar    1  UNL1        0.0039
     27 C          -6.2770    6.2359   19.4692 C.ar    1  UNL1        0.0115
     28 C          -7.3098    5.2569   18.9950 C.ar    1  UNL1        0.0577
     29 CL         -8.7297    5.7000   18.8003 Cl      1  UNL1       -0.0822
     30 C          -6.9229    3.8349   18.7156 C.ar    1  UNL1        0.0115
     31 C          -5.5032    3.3918   18.9104 C.ar    1  UNL1        0.0039
     32 C           3.8405   -1.2087   25.8669 C.3     1  UNL1        0.1269
     33 O           3.2915   -1.7196   27.1660 O.3     1  UNL1       -0.3830
     34 H           3.3723   -2.6858   27.1936 H       1  UNL1        0.2104
     35 C           4.3980   -2.1694   24.8588 C.3     1  UNL1        0.0401
     36 C           5.8361   -2.0706   24.4439 C.3     1  UNL1        0.0838
     37 C           6.1858   -1.7264   23.0264 C.2     1  UNL1        0.2227
     38 O           6.7555   -0.3775   22.7007 O.2     1  UNL1       -0.2751
     39 N           5.9657   -2.7311   21.9345 N.am    1  UNL1       -0.2999
     40 H           5.5917   -3.6163   22.1482 H       1  UNL1        0.1498
     41 C           6.3153   -2.3869   20.5170 C.3     1  UNL1        0.1278
     42 C           5.2927   -1.7448   19.6270 C.ar    1  UNL1        0.0320
     43 C           3.9205   -1.4468   20.1546 C.ar    1  UNL1        0.0004
     44 C           2.8980   -0.8047   19.2646 C.ar    1  UNL1       -0.0001
     45 C           3.2476   -0.4606   17.8471 C.ar    1  UNL1        0.0031
     46 C           4.6198   -0.7585   17.3195 C.ar    1  UNL1        0.0366
     47 C           5.6423   -1.4006   18.2095 C.ar    1  UNL1        0.1362
     48 O           7.0146   -1.6986   17.6820 O.3     1  UNL1       -0.4730
     49 C           8.0371   -2.3407   18.5720 C.3     1  UNL1        0.2364
     50 C           7.6875   -2.6849   19.9895 C.3     1  UNL1        0.1762
     51 O           8.7101   -3.3270   20.8795 O.3     1  UNL1       -0.3788
     52 H           9.5366   -3.4491   20.3866 H       1  UNL1        0.2106
     53 C           6.9245   -2.3158   25.4464 C.3     1  UNL1        0.0421
     54 C           7.2296   -3.7143   25.8952 C.ar    1  UNL1        0.0078
     55 C           7.0286   -4.9628   25.0885 C.ar    1  UNL1        0.0042
     56 C           7.4640   -6.1299   25.9241 C.ar    1  UNL1        0.0253
     57 C           7.4931   -7.6045   25.6512 C.ar    1  UNL1        0.0993
     58 N           7.9924   -8.5519   26.7014 N.ar    1  UNL1       -0.2423
     59 C           8.4625   -8.0248   28.0247 C.ar    1  UNL1        0.0994
     60 C           8.4333   -6.5500   28.2977 C.ar    1  UNL1        0.0271
     61 C           7.9341   -5.6026   27.2474 C.ar    1  UNL1        0.0322
     62 S           7.7892   -4.1097   27.2295 S.2     1  UNL1       -0.0912
@<TRIPOS>BOND
     1    17    18    1
     2    18    19    1
     3    18    20    1
     4    20    21   ar
     5    21    22   ar
     6    22    23   ar
     7    23    25    1
     8    25    26   ar
     9    26    27   ar
    10    27    28   ar
    11    28    29    1
    12    28    30   ar
    13    30    31   ar
    14    23    24   ar
    15    18     2    1
    16     2     3    1
    17     3     4    1
    18     4     5    1
    19     5     1    1
    20     1    32    1
    21    32    33    1
    22    32    35    1
    23    36    35    1
    24    36    53    1
    25    53    54    1
    26    54    55   ar
    27    55    56   ar
    28    56    57   ar
    29    57    58   ar
    30    58    59   ar
    31    59    60   ar
    32    60    61   ar
    33    61    62   ar
    34    36    37    1
    35    37    38    2
    36    37    39   am
    37    41    39    1
    38    41    42    1
    39    42    43   ar
    40    43    44   ar
    41    44    45   ar
    42    45    46   ar
    43    46    47   ar
    44    47    48    1
    45    48    49    1
    46    49    50    1
    47    50    51    1
    48     5     6    1
    49     6     8    1
    50     8     9    2
    51     8    10   am
    52    10    12    1
    53    12    13    1
    54    13    14    1
    55    13    15    1
    56    13    16    1
    57     6     7    1
    58    24    20   ar
    59     7     2    1
    60    31    25   ar
    61    62    54   ar
    62    50    41    1
    63    61    56   ar
    64    47    42   ar
    65    33    34    1
    66    39    40    1
    67    51    52    1
    68    10    11    1
@<TRIPOS>MOLECULE
*****
 62 68 0 0 0
SMALL
GASTEIGER

@<TRIPOS>ATOM
      1 C          -0.0518    1.3551   23.9116 C.3     1  UNL1        0.1021
      2 N           1.2090    1.4902   28.2292 N.3     1  UNL1       -0.2650
      3 C          -0.2129    1.7851   27.8535 C.3     1  UNL1        0.0900
      4 C          -0.6332    1.7401   26.4143 C.3     1  UNL1        0.0901
      5 N           0.3684    1.4001   25.3508 N.3     1  UNL1       -0.2621
      6 C           1.7904    1.1052   25.7265 C.3     1  UNL1        0.1510
      7 C           2.2106    1.1503   27.1657 C.3     1  UNL1        0.0980
      8 C           2.7921    0.7653   24.6629 C.2     1  UNL1        0.2386
      9 O           3.6339    1.8463   24.0525 O.2     1  UNL1       -0.2736
     10 N           2.9519   -0.6557   24.2098 N.am    1  UNL1       -0.2961
     11 H           2.3994   -1.3652   24.6105 H       1  UNL1        0.1497
     12 C           3.9536   -0.9955   23.1463 C.3     1  UNL1        0.1939
     13 C           3.4923   -1.5521   21.8319 C.3     1  UNL1        0.4154
     14 F           3.0311   -2.1086   20.5176 F       1  UNL1       -0.1682
     15 F           3.1248   -0.1711   21.3761 F       1  UNL1       -0.1682
     16 F           3.8598   -2.9331   22.2877 F       1  UNL1       -0.1682
     17 C           0.1994    1.7249   30.0800 C.3     1  UNL1        0.0255
     18 C           1.6293    1.5353   29.6684 C.3     1  UNL1        0.1147
     19 C           3.0592    1.3457   29.2568 C.3     1  UNL1        0.0255
     20 C           2.0496    1.5803   31.1076 C.ar    1  UNL1        0.2185
     21 N           1.3158    2.2700   32.2193 N.ar    1  UNL1       -0.2094
     22 C           2.0901    2.0596   33.4866 C.ar    1  UNL1        0.1392
     23 C           3.3026    1.2398   33.1582 C.ar    1  UNL1        0.1659
     24 O           3.2775    0.9436   31.6879 O.2     1  UNL1       -0.4370
     25 C           4.3553    0.7943   34.1295 C.ar    1  UNL1        0.0362
     26 C           4.0608    0.7797   35.6002 C.ar    1  UNL1        0.0039
     27 C           5.1135    0.3343   36.5714 C.ar    1  UNL1        0.0115
     28 C           6.4607   -0.0966   36.0719 C.ar    1  UNL1        0.0577
     29 CL          7.5135   -0.5420   37.0432 Cl      1  UNL1       -0.0822
     30 C           6.7552   -0.0820   34.6012 C.ar    1  UNL1        0.0115
     31 C           5.7024    0.3634   33.6300 C.ar    1  UNL1        0.0039
     32 C           0.2361    2.5183   23.0094 C.3     1  UNL1        0.1269
     33 O           0.1891    3.9166   23.5503 O.3     1  UNL1       -0.3830
     34 H           0.3983    4.5448   22.8414 H       1  UNL1        0.2104
     35 C           0.5710    2.2833   21.5663 C.3     1  UNL1        0.0401
     36 C          -0.3115    2.8438   20.4906 C.3     1  UNL1        0.0838
     37 C          -1.6214    3.4797   20.8508 C.2     1  UNL1        0.2227
     38 O          -1.6728    4.9317   21.2239 O.2     1  UNL1       -0.2751
     39 N          -2.8799    2.6637   20.8380 N.am    1  UNL1       -0.2999
     40 H          -2.8462    1.7107   20.5931 H       1  UNL1        0.1498
     41 C          -4.1898    3.2996   21.1982 C.3     1  UNL1        0.1278
     42 C          -4.5179    3.5790   22.6351 C.ar    1  UNL1        0.0320
     43 C          -3.5361    3.2224   23.7116 C.ar    1  UNL1        0.0004
     44 C          -3.8642    3.5018   25.1483 C.ar    1  UNL1       -0.0001
     45 C          -5.1741    4.1377   25.5085 C.ar    1  UNL1        0.0031
     46 C          -6.1559    4.4942   24.4321 C.ar    1  UNL1        0.0366
     47 C          -5.8278    4.2149   22.9953 C.ar    1  UNL1        0.1362
     48 O          -6.8097    4.5714   21.9187 O.3     1  UNL1       -0.4730
     49 C          -6.4816    4.2920   20.4820 C.3     1  UNL1        0.2364
     50 C          -5.1716    3.6561   20.1218 C.3     1  UNL1        0.1762
     51 O          -4.8436    3.3768   18.6849 O.3     1  UNL1       -0.3788
     52 H          -5.5795    3.6659   18.1231 H       1  UNL1        0.2106
     53 C           0.1159    2.7685   19.0548 C.3     1  UNL1        0.0421
     54 C           1.3777    2.0467   18.6847 C.ar    1  UNL1        0.0078
     55 C           1.4787    0.6155   18.2469 C.ar    1  UNL1        0.0042
     56 C           2.9234    0.3136   17.9791 C.ar    1  UNL1        0.0253
     57 C           3.6202   -0.9338   17.5225 C.ar    1  UNL1        0.0993
     58 N           5.1088   -0.9367   17.3382 N.ar    1  UNL1       -0.2423
     59 C           5.9006    0.3078   17.6104 C.ar    1  UNL1        0.0994
     60 C           5.2039    1.5553   18.0670 C.ar    1  UNL1        0.0271
     61 C           3.7152    1.5582   18.2514 C.ar    1  UNL1        0.0322
     62 S           2.7599    2.6292   18.6875 S.2     1  UNL1       -0.0912
@<TRIPOS>BOND
     1    17    18    1
     2    18    19    1
     3    18    20    1
     4    20    21   ar
     5    21    22   ar
     6    22    23   ar
     7    23    25    1
     8    25    26   ar
     9    26    27   ar
    10    27    28   ar
    11    28    29    1
    12    28    30   ar
    13    30    31   ar
    14    23    24   ar
    15    18     2    1
    16     2     3    1
    17     3     4    1
    18     4     5    1
    19     5     1    1
    20     1    32    1
    21    32    33    1
    22    32    35    1
    23    36    35    1
    24    36    53    1
    25    53    54    1
    26    54    55   ar
    27    55    56   ar
    28    56    57   ar
    29    57    58   ar
    30    58    59   ar
    31    59    60   ar
    32    60    61   ar
    33    61    62   ar
    34    36    37    1
    35    37    38    2
    36    37    39   am
    37    41    39    1
    38    41    42    1
    39    42    43   ar
    40    43    44   ar
    41    44    45   ar
    42    45    46   ar
    43    46    47   ar
    44    47    48    1
    45    48    49    1
    46    49    50    1
    47    50    51    1
    48     5     6    1
    49     6     8    1
    50     8     9    2
    51     8    10   am
    52    10    12    1
    53    12    13    1
    54    13    14    1
    55    13    15    1
    56    13    16    1
    57     6     7    1
    58    24    20   ar
    59     7     2    1
    60    31    25   ar
    61    62    54   ar
    62    50    41    1
    63    61    56   ar
    64    47    42   ar
    65    33    34    1
    66    39    40    1
    67    51    52    1
    68    10    11    1
@<TRIPOS>MOLECULE
*****
 62 68 0 0 0
SMALL
GASTEIGER

@<TRIPOS>ATOM
      1 C          -0.2307    2.3655   20.0719 C.3     1  UNL1        0.1021
      2 N           0.3607    1.8179   24.4991 N.3     1  UNL1       -0.2650
      3 C           1.2626    1.1138   23.5293 C.3     1  UNL1        0.0900
      4 C           1.0655    1.2964   22.0535 C.3     1  UNL1        0.0901
      5 N          -0.0336    2.1830   21.5476 N.3     1  UNL1       -0.2621
      6 C          -0.9355    2.8871   22.5175 C.3     1  UNL1        0.1510
      7 C          -0.7384    2.7045   23.9933 C.3     1  UNL1        0.0980
      8 C          -2.0346    3.7737   22.0117 C.2     1  UNL1        0.2386
      9 O          -1.7845    5.2394   21.8134 O.2     1  UNL1       -0.2736
     10 N          -3.3838    3.1948   21.7042 N.am    1  UNL1       -0.2961
     11 H          -3.5479    2.2328   21.8344 H       1  UNL1        0.1497
     12 C          -4.4828    4.0814   21.1984 C.3     1  UNL1        0.1939
     13 C          -5.3727    3.6124   20.0857 C.3     1  UNL1        0.4154
     14 F          -6.2626    3.1434   18.9730 F       1  UNL1       -0.1682
     15 F          -4.1656    3.3010   19.2515 F       1  UNL1       -0.1682
     16 F          -6.5798    3.9238   20.9199 F       1  UNL1       -0.1682
     17 C           1.9080    1.0338   25.7201 C.3     1  UNL1        0.0255
     18 C           0.5578    1.6354   25.9749 C.3     1  UNL1        0.1147
     19 C          -0.7925    2.2370   26.2297 C.3     1  UNL1        0.0255
     20 C           0.7549    1.4528   27.4506 C.ar    1  UNL1        0.2185
     21 N           0.9726    0.1472   28.1562 N.ar    1  UNL1       -0.2094
     22 C           1.1212    0.4313   29.6216 C.ar    1  UNL1        0.1392
     23 C           0.9953    1.9126   29.8216 C.ar    1  UNL1        0.1659
     24 O           0.7689    2.5439   28.4799 O.2     1  UNL1       -0.4370
     25 C           1.0808    2.6356   31.1331 C.ar    1  UNL1        0.0362
     26 C           0.5210    4.0211   31.2636 C.ar    1  UNL1        0.0039
     27 C           0.6065    4.7440   32.5750 C.ar    1  UNL1        0.0115
     28 C           1.2517    4.0815   33.7560 C.ar    1  UNL1        0.0577
     29 CL          1.3372    4.8045   35.0675 Cl      1  UNL1       -0.0822
     30 C           1.8115    2.6960   33.6255 C.ar    1  UNL1        0.0115
     31 C           1.7260    1.9731   32.3140 C.ar    1  UNL1        0.0039
     32 C           0.7236    1.7316   19.1037 C.3     1  UNL1        0.1269
     33 O           0.5108    0.3146   18.6597 O.3     1  UNL1       -0.3830
     34 H           1.2116    0.0617   18.0387 H       1  UNL1        0.2104
     35 C           1.8907    2.5145   18.5794 C.3     1  UNL1        0.0401
     36 C           3.1991    2.4921   19.3128 C.3     1  UNL1        0.0838
     37 C           3.9830    1.2170   19.4093 C.2     1  UNL1        0.2227
     38 O           5.4807    1.2609   19.4815 O.2     1  UNL1       -0.2751
     39 N           3.2694   -0.1022   19.4335 N.am    1  UNL1       -0.2999
     40 H           2.2865   -0.1310   19.3861 H       1  UNL1        0.1498
     41 C           4.0534   -1.3773   19.5300 C.3     1  UNL1        0.1278
     42 C           4.3750   -1.9601   20.8743 C.ar    1  UNL1        0.0320
     43 C           3.9127   -1.2677   22.1220 C.ar    1  UNL1        0.0004
     44 C           4.2343   -1.8505   23.4661 C.ar    1  UNL1       -0.0001
     45 C           5.0183   -3.1257   23.5626 C.ar    1  UNL1        0.0031
     46 C           5.4806   -3.8181   22.3149 C.ar    1  UNL1        0.0366
     47 C           5.1589   -3.2353   20.9707 C.ar    1  UNL1        0.1362
     48 O           5.6213   -3.9277   19.7229 O.3     1  UNL1       -0.4730
     49 C           5.2996   -3.3449   18.3788 C.3     1  UNL1        0.2364
     50 C           4.5157   -2.0697   18.2823 C.3     1  UNL1        0.1762
     51 O           4.1940   -1.4870   16.9380 O.3     1  UNL1       -0.3788
     52 H           4.5634   -2.0539   16.2430 H       1  UNL1        0.2106
     53 C           3.7234    3.7449   19.9496 C.3     1  UNL1        0.0421
     54 C           3.2267    4.1635   21.3017 C.ar    1  UNL1        0.0078
     55 C           2.0517    5.0559   21.5719 C.ar    1  UNL1        0.0042
     56 C           1.9165    5.2072   23.0581 C.ar    1  UNL1        0.0253
     57 C           0.9406    5.9692   23.9048 C.ar    1  UNL1        0.0993
     58 N           1.0561    5.9322   25.3999 N.ar    1  UNL1       -0.2423
     59 C           2.1476    5.1333   26.0483 C.ar    1  UNL1        0.0994
     60 C           3.1236    4.3713   25.2016 C.ar    1  UNL1        0.0271
     61 C           3.0080    4.4082   23.7065 C.ar    1  UNL1        0.0322
     62 S           3.8177    3.7632   22.6210 S.2     1  UNL1       -0.0912
@<TRIPOS>BOND
     1    17    18    1
     2    18    19    1
     3    18    20    1
     4    20    21   ar
     5    21    22   ar
     6    22    23   ar
     7    23    25    1
     8    25    26   ar
     9    26    27   ar
    10    27    28   ar
    11    28    29    1
    12    28    30   ar
    13    30    31   ar
    14    23    24   ar
    15    18     2    1
    16     2     3    1
    17     3     4    1
    18     4     5    1
    19     5     1    1
    20     1    32    1
    21    32    33    1
    22    32    35    1
    23    36    35    1
    24    36    53    1
    25    53    54    1
    26    54    55   ar
    27    55    56   ar
    28    56    57   ar
    29    57    58   ar
    30    58    59   ar
    31    59    60   ar
    32    60    61   ar
    33    61    62   ar
    34    36    37    1
    35    37    38    2
    36    37    39   am
    37    41    39    1
    38    41    42    1
    39    42    43   ar
    40    43    44   ar
    41    44    45   ar
    42    45    46   ar
    43    46    47   ar
    44    47    48    1
    45    48    49    1
    46    49    50    1
    47    50    51    1
    48     5     6    1
    49     6     8    1
    50     8     9    2
    51     8    10   am
    52    10    12    1
    53    12    13    1
    54    13    14    1
    55    13    15    1
    56    13    16    1
    57     6     7    1
    58    24    20   ar
    59     7     2    1
    60    31    25   ar
    61    62    54   ar
    62    50    41    1
    63    61    56   ar
    64    47    42   ar
    65    33    34    1
    66    39    40    1
    67    51    52    1
    68    10    11    1
@<TRIPOS>MOLECULE
*****
 62 68 0 0 0
SMALL
GASTEIGER

@<TRIPOS>ATOM
      1 C           1.7053    0.9080   24.6061 C.3     1  UNL1        0.1021
      2 N           2.8493    0.1142   28.8853 N.3     1  UNL1       -0.2650
      3 C           1.5666    0.8256   28.5714 C.3     1  UNL1        0.0900
      4 C           1.1853    1.0902   27.1450 C.3     1  UNL1        0.0901
      5 N           2.0866    0.6434   26.0325 N.3     1  UNL1       -0.2621
      6 C           3.3693   -0.0680   26.3463 C.3     1  UNL1        0.1510
      7 C           3.7506   -0.3327   27.7727 C.3     1  UNL1        0.0980
      8 C           4.2707   -0.5149   25.2337 C.2     1  UNL1        0.2386
      9 O           5.1286    0.4846   24.5162 O.2     1  UNL1       -0.2736
     10 N           4.3142   -1.9613   24.8387 N.am    1  UNL1       -0.2961
     11 H           3.7511   -2.6173   25.3096 H       1  UNL1        0.1497
     12 C           5.2156   -2.4081   23.7262 C.3     1  UNL1        0.1939
     13 C           4.7244   -3.4026   22.7163 C.3     1  UNL1        0.4154
     14 F           4.2332   -4.3971   21.7066 F       1  UNL1       -0.1682
     15 F           3.5914   -2.4850   22.3637 F       1  UNL1       -0.1682
     16 F           5.8573   -4.3202   23.0690 F       1  UNL1       -0.1682
     17 C           4.3888   -0.9829   29.8475 C.3     1  UNL1        0.0255
     18 C           3.2306   -0.1504   30.3116 C.3     1  UNL1        0.1147
     19 C           2.0723    0.6820   30.7757 C.3     1  UNL1        0.0255
     20 C           3.6119   -0.4151   31.7380 C.ar    1  UNL1        0.2185
     21 N           3.8630   -1.7621   32.3482 N.ar    1  UNL1       -0.2094
     22 C           4.2154   -1.5587   33.7920 C.ar    1  UNL1        0.1392
     23 C           4.1820   -0.0858   34.0741 C.ar    1  UNL1        0.1659
     24 O           3.8091    0.6209   32.8047 O.2     1  UNL1       -0.4370
     25 C           4.4709    0.5658   35.3939 C.ar    1  UNL1        0.0362
     26 C           3.6248    1.7108   35.8662 C.ar    1  UNL1        0.0039
     27 C           3.9137    2.3624   37.1860 C.ar    1  UNL1        0.0115
     28 C           5.0487    1.8691   38.0335 C.ar    1  UNL1        0.0577
     29 CL          5.3377    2.5207   39.3533 Cl      1  UNL1       -0.0822
     30 C           5.8949    0.7241   37.5612 C.ar    1  UNL1        0.0115
     31 C           5.6060    0.0725   36.2414 C.ar    1  UNL1        0.0039
     32 C           1.9550    2.2576   24.0010 C.3     1  UNL1        0.1269
     33 O           1.3837    3.4859   24.6455 O.3     1  UNL1       -0.3830
     34 H           1.6375    4.2684   24.1316 H       1  UNL1        0.2104
     35 C           2.7758    2.3791   22.7515 C.3     1  UNL1        0.0401
     36 C           2.1001    2.4508   21.4142 C.3     1  UNL1        0.0838
     37 C           0.6038    2.3934   21.3260 C.2     1  UNL1        0.2227
     38 O          -0.0885    1.0712   21.1754 O.2     1  UNL1       -0.2751
     39 N          -0.2003    3.6581   21.3883 N.am    1  UNL1       -0.2999
     40 H           0.2541    4.5259   21.4871 H       1  UNL1        0.1498
     41 C          -1.6966    3.6007   21.3001 C.3     1  UNL1        0.1278
     42 C          -2.5216    3.5831   22.5528 C.ar    1  UNL1        0.0320
     43 C          -1.8503    3.6230   23.8936 C.ar    1  UNL1        0.0004
     44 C          -2.6753    3.6054   25.1462 C.ar    1  UNL1       -0.0001
     45 C          -4.1716    3.5480   25.0579 C.ar    1  UNL1        0.0031
     46 C          -4.8429    3.5082   23.7172 C.ar    1  UNL1        0.0366
     47 C          -4.0179    3.5257   22.4646 C.ar    1  UNL1        0.1362
     48 O          -4.6892    3.4859   21.1237 O.3     1  UNL1       -0.4730
     49 C          -3.8642    3.5035   19.8711 C.3     1  UNL1        0.2364
     50 C          -2.3679    3.5609   19.9593 C.3     1  UNL1        0.1762
     51 O          -1.5429    3.5785   18.7067 O.3     1  UNL1       -0.3788
     52 H          -2.1280    3.5480   17.9337 H       1  UNL1        0.2106
     53 C           2.9206    2.5799   20.1652 C.3     1  UNL1        0.0421
     54 C           3.6442    1.3860   19.6164 C.ar    1  UNL1        0.0078
     55 C           4.8360    1.4189   18.7062 C.ar    1  UNL1        0.0042
     56 C           5.2314    0.0029   18.4087 C.ar    1  UNL1        0.0253
     57 C           6.3318   -0.5769   17.5703 C.ar    1  UNL1        0.0993
     58 N           6.4847   -2.0649   17.4583 N.ar    1  UNL1       -0.2423
     59 C           5.5373   -2.9730   18.1846 C.ar    1  UNL1        0.0994
     60 C           4.4369   -2.3932   19.0231 C.ar    1  UNL1        0.0271
     61 C           4.2839   -0.9052   19.1352 C.ar    1  UNL1        0.0322
     62 S           3.3030   -0.0504   19.8815 S.2     1  UNL1       -0.0912
@<TRIPOS>BOND
     1    17    18    1
     2    18    19    1
     3    18    20    1
     4    20    21   ar
     5    21    22   ar
     6    22    23   ar
     7    23    25    1
     8    25    26   ar
     9    26    27   ar
    10    27    28   ar
    11    28    29    1
    12    28    30   ar
    13    30    31   ar
    14    23    24   ar
    15    18     2    1
    16     2     3    1
    17     3     4    1
    18     4     5    1
    19     5     1    1
    20     1    32    1
    21    32    33    1
    22    32    35    1
    23    36    35    1
    24    36    53    1
    25    53    54    1
    26    54    55   ar
    27    55    56   ar
    28    56    57   ar
    29    57    58   ar
    30    58    59   ar
    31    59    60   ar
    32    60    61   ar
    33    61    62   ar
    34    36    37    1
    35    37    38    2
    36    37    39   am
    37    41    39    1
    38    41    42    1
    39    42    43   ar
    40    43    44   ar
    41    44    45   ar
    42    45    46   ar
    43    46    47   ar
    44    47    48    1
    45    48    49    1
    46    49    50    1
    47    50    51    1
    48     5     6    1
    49     6     8    1
    50     8     9    2
    51     8    10   am
    52    10    12    1
    53    12    13    1
    54    13    14    1
    55    13    15    1
    56    13    16    1
    57     6     7    1
    58    24    20   ar
    59     7     2    1
    60    31    25   ar
    61    62    54   ar
    62    50    41    1
    63    61    56   ar
    64    47    42   ar
    65    33    34    1
    66    39    40    1
    67    51    52    1
    68    10    11    1
@<TRIPOS>MOLECULE
*****
 62 68 0 0 0
SMALL
GASTEIGER

@<TRIPOS>ATOM
      1 C           4.5418    0.2547   26.5030 C.3     1  UNL1        0.1021
      2 N           0.8311    2.7845   26.7874 N.3     1  UNL1       -0.2650
      3 C           1.3824    2.1211   28.0145 C.3     1  UNL1        0.0900
      4 C           2.6193    1.2778   27.9197 C.3     1  UNL1        0.0901
      5 N           3.3049    1.0980   26.5978 N.3     1  UNL1       -0.2621
      6 C           2.7536    1.7614   25.3707 C.3     1  UNL1        0.1510
      7 C           1.5167    2.6047   25.4655 C.3     1  UNL1        0.0980
      8 C           3.4392    1.5816   24.0486 C.2     1  UNL1        0.2386
      9 O           4.5407    2.5150   23.6420 O.2     1  UNL1       -0.2736
     10 N           3.0233    0.4684   23.1334 N.am    1  UNL1       -0.2961
     11 H           2.3003   -0.1442   23.4003 H       1  UNL1        0.1497
     12 C           3.7089    0.2887   21.8114 C.3     1  UNL1        0.1939
     13 C           2.9054   -0.0421   20.5886 C.3     1  UNL1        0.4154
     14 F           2.1020   -0.3728   19.3659 F       1  UNL1       -0.1682
     15 F           1.7526   -0.4510   21.4567 F       1  UNL1       -0.1682
     16 F           4.0583    0.3668   19.7205 F       1  UNL1       -0.1682
     17 C           0.2553    4.4803   27.9244 C.3     1  UNL1        0.0255
     18 C          -0.4058    3.6278   26.8822 C.3     1  UNL1        0.1147
     19 C          -1.0669    2.7752   25.8400 C.3     1  UNL1        0.0255
     20 C          -1.6427    4.4710   26.9770 C.ar    1  UNL1        0.2185
     21 N          -1.8060    5.7059   27.8127 N.ar    1  UNL1       -0.2094
     22 C          -3.1977    6.2255   27.6050 C.ar    1  UNL1        0.1392
     23 C          -3.8946    5.3118   26.6408 C.ar    1  UNL1        0.1659
     24 O          -2.9335    4.2275   26.2527 O.2     1  UNL1       -0.4370
     25 C          -5.3048    5.4569   26.1508 C.ar    1  UNL1        0.0362
     26 C          -6.2810    6.3018   26.9145 C.ar    1  UNL1        0.0039
     27 C          -7.6912    6.4469   26.4244 C.ar    1  UNL1        0.0115
     28 C          -8.1252    5.7471   25.1707 C.ar    1  UNL1        0.0577
     29 CL         -9.5355    5.8922   24.6806 Cl      1  UNL1       -0.0822
     30 C          -7.1490    4.9022   24.4070 C.ar    1  UNL1        0.0115
     31 C          -5.7389    4.7572   24.8971 C.ar    1  UNL1        0.0039
     32 C           4.4310   -1.2052   26.1771 C.3     1  UNL1        0.1269
     33 O           3.5043   -2.0817   26.9665 O.3     1  UNL1       -0.3830
     34 H           3.5528   -2.9900   26.6293 H       1  UNL1        0.2104
     35 C           5.2469   -1.7887   25.0618 C.3     1  UNL1        0.0401
     36 C           6.0725   -3.0182   25.3003 C.3     1  UNL1        0.0838
     37 C           6.6724   -3.2681   26.6523 C.2     1  UNL1        0.2227
     38 O           8.0619   -2.7916   26.9559 O.2     1  UNL1       -0.2751
     39 N           5.8828   -3.9945   27.7005 N.am    1  UNL1       -0.2999
     40 H           4.9708   -4.3073   27.5012 H       1  UNL1        0.1498
     41 C           6.4827   -4.2445   29.0524 C.3     1  UNL1        0.1278
     42 C           6.4800   -3.1579   30.0866 C.ar    1  UNL1        0.0320
     43 C           5.8774   -1.8216   29.7689 C.ar    1  UNL1        0.0004
     44 C           5.8746   -0.7351   30.8031 C.ar    1  UNL1       -0.0001
     45 C           6.4745   -0.9850   32.1550 C.ar    1  UNL1        0.0031
     46 C           7.0771   -2.3214   32.4727 C.ar    1  UNL1        0.0366
     47 C           7.0798   -3.4078   31.4386 C.ar    1  UNL1        0.1362
     48 O           7.6825   -4.7443   31.7563 O.3     1  UNL1       -0.4730
     49 C           7.6852   -5.8307   30.7221 C.3     1  UNL1        0.2364
     50 C           7.0853   -5.5808   29.3701 C.3     1  UNL1        0.1762
     51 O           7.0880   -6.6673   28.3359 O.3     1  UNL1       -0.3788
     52 H           7.5119   -7.4599   28.7007 H       1  UNL1        0.2106
     53 C           6.2982   -3.9977   24.1870 C.3     1  UNL1        0.0421
     54 C           5.9446   -3.6257   22.7775 C.ar    1  UNL1        0.0078
     55 C           4.6282   -3.8759   22.1033 C.ar    1  UNL1        0.0042
     56 C           4.7153   -3.3430   20.7039 C.ar    1  UNL1        0.0253
     57 C           3.7240   -3.3106   19.5787 C.ar    1  UNL1        0.0993
     58 N           4.1030   -2.6985   18.2627 N.ar    1  UNL1       -0.2423
     59 C           5.4732   -2.1189   18.0720 C.ar    1  UNL1        0.0994
     60 C           6.4646   -2.1512   19.1972 C.ar    1  UNL1        0.0271
     61 C           6.0857   -2.7633   20.5132 C.ar    1  UNL1        0.0322
     62 S           6.8453   -2.9380   21.7948 S.2     1  UNL1       -0.0912
@<TRIPOS>BOND
     1    17    18    1
     2    18    19    1
     3    18    20    1
     4    20    21   ar
     5    21    22   ar
     6    22    23   ar
     7    23    25    1
     8    25    26   ar
     9    26    27   ar
    10    27    28   ar
    11    28    29    1
    12    28    30   ar
    13    30    31   ar
    14    23    24   ar
    15    18     2    1
    16     2     3    1
    17     3     4    1
    18     4     5    1
    19     5     1    1
    20     1    32    1
    21    32    33    1
    22    32    35    1
    23    36    35    1
    24    36    53    1
    25    53    54    1
    26    54    55   ar
    27    55    56   ar
    28    56    57   ar
    29    57    58   ar
    30    58    59   ar
    31    59    60   ar
    32    60    61   ar
    33    61    62   ar
    34    36    37    1
    35    37    38    2
    36    37    39   am
    37    41    39    1
    38    41    42    1
    39    42    43   ar
    40    43    44   ar
    41    44    45   ar
    42    45    46   ar
    43    46    47   ar
    44    47    48    1
    45    48    49    1
    46    49    50    1
    47    50    51    1
    48     5     6    1
    49     6     8    1
    50     8     9    2
    51     8    10   am
    52    10    12    1
    53    12    13    1
    54    13    14    1
    55    13    15    1
    56    13    16    1
    57     6     7    1
    58    24    20   ar
    59     7     2    1
    60    31    25   ar
    61    62    54   ar
    62    50    41    1
    63    61    56   ar
    64    47    42   ar
    65    33    34    1
    66    39    40    1
    67    51    52    1
    68    10    11    1
@<TRIPOS>MOLECULE
*****
 62 68 0 0 0
SMALL
GASTEIGER

@<TRIPOS>ATOM
      1 C           0.2091    2.6049   23.9055 C.3     1  UNL1        0.1021
      2 N           1.8906    1.2188   27.8427 N.3     1  UNL1       -0.2650
      3 C           2.2490    0.4963   26.5781 C.3     1  UNL1        0.0900
      4 C           1.6885    0.9583   25.2657 C.3     1  UNL1        0.0901
      5 N           0.7696    2.1429   25.2179 N.3     1  UNL1       -0.2621
      6 C           0.4112    2.8654   26.4826 C.3     1  UNL1        0.1510
      7 C           0.9716    2.4034   27.7950 C.3     1  UNL1        0.0980
      8 C          -0.5078    4.0501   26.4349 C.2     1  UNL1        0.2386
      9 O           0.0155    5.3883   26.0044 O.2     1  UNL1       -0.2736
     10 N          -1.9499    3.8965   26.8177 N.am    1  UNL1       -0.2961
     11 H          -2.2934    3.0182   27.1002 H       1  UNL1        0.1497
     12 C          -2.8688    5.0811   26.7699 C.3     1  UNL1        0.1939
     13 C          -4.2879    4.9117   26.3143 C.3     1  UNL1        0.4154
     14 F          -5.7069    4.7423   25.8588 F       1  UNL1       -0.1682
     15 F          -4.0116    5.7872   25.1281 F       1  UNL1       -0.1682
     16 F          -4.5642    4.0362   27.5005 F       1  UNL1       -0.1682
     17 C           2.0896    2.0748   29.7735 C.3     1  UNL1        0.0255
     18 C           2.4510    0.7568   29.1551 C.3     1  UNL1        0.1147
     19 C           2.8124   -0.5612   28.5368 C.3     1  UNL1        0.0255
     20 C           3.0115    0.2947   30.4675 C.ar    1  UNL1        0.2185
     21 N           3.7281   -0.9999   30.7135 N.ar    1  UNL1       -0.2094
     22 C           4.1132   -1.0485   32.1624 C.ar    1  UNL1        0.1392
     23 C           3.6347    0.2160   32.8119 C.ar    1  UNL1        0.1659
     24 O           2.9538    1.0462   31.7645 O.2     1  UNL1       -0.4370
     25 C           3.8068    0.5855   34.2555 C.ar    1  UNL1        0.0362
     26 C           4.6362   -0.2798   35.1574 C.ar    1  UNL1        0.0039
     27 C           4.8083    0.0898   36.6009 C.ar    1  UNL1        0.0115
     28 C           4.1511    1.3246   37.1425 C.ar    1  UNL1        0.0577
     29 CL          4.3232    1.6942   38.5861 Cl      1  UNL1       -0.0822
     30 C           3.3218    2.1899   36.2405 C.ar    1  UNL1        0.0115
     31 C           3.1497    1.8203   34.7970 C.ar    1  UNL1        0.0039
     32 C           1.0680    3.3878   22.9571 C.3     1  UNL1        0.1269
     33 O           1.7309    4.6529   23.4155 O.3     1  UNL1       -0.3830
     34 H           2.2451    5.0314   22.6853 H       1  UNL1        0.2104
     35 C           1.2640    2.9055   21.5504 C.3     1  UNL1        0.0401
     36 C           0.1059    2.3390   20.7835 C.3     1  UNL1        0.0838
     37 C          -1.0109    3.2367   20.3398 C.2     1  UNL1        0.2227
     38 O          -0.7301    4.6698   19.9970 O.2     1  UNL1       -0.2751
     39 N          -2.4084    2.7014   20.2390 N.am    1  UNL1       -0.2999
     40 H          -2.5927    1.7609   20.4640 H       1  UNL1        0.1498
     41 C          -3.5252    3.5991   19.7953 C.3     1  UNL1        0.1278
     42 C          -4.6671    3.8906   20.7235 C.ar    1  UNL1        0.0320
     43 C          -4.6920    3.2843   22.0952 C.ar    1  UNL1        0.0004
     44 C          -5.8338    3.5757   23.0233 C.ar    1  UNL1       -0.0001
     45 C          -6.9506    4.4734   22.5796 C.ar    1  UNL1        0.0031
     46 C          -6.9257    5.0797   21.2078 C.ar    1  UNL1        0.0366
     47 C          -5.7839    4.7883   20.2798 C.ar    1  UNL1        0.1362
     48 O          -5.7589    5.3946   18.9079 O.3     1  UNL1       -0.4730
     49 C          -4.6171    5.1032   17.9799 C.3     1  UNL1        0.2364
     50 C          -3.5003    4.2054   18.4236 C.3     1  UNL1        0.1762
     51 O          -2.3584    3.9140   17.4954 O.3     1  UNL1       -0.3788
     52 H          -2.4967    4.3806   16.6563 H       1  UNL1        0.2106
     53 C           0.0647    0.8748   20.4604 C.3     1  UNL1        0.0421
     54 C           1.2498    0.2143   19.8204 C.ar    1  UNL1        0.0078
     55 C           1.8432    0.5670   18.4887 C.ar    1  UNL1        0.0042
     56 C           3.0096   -0.3441   18.2450 C.ar    1  UNL1        0.0253
     57 C           3.9721   -0.4583   17.1003 C.ar    1  UNL1        0.0993
     58 N           5.0620   -1.4881   17.1367 N.ar    1  UNL1       -0.2423
     59 C           5.1895   -2.4039   18.3178 C.ar    1  UNL1        0.0994
     60 C           4.2270   -2.2898   19.4627 C.ar    1  UNL1        0.0271
     61 C           3.1370   -1.2599   19.4263 C.ar    1  UNL1        0.0322
     62 S           2.0494   -0.9147   20.3999 S.2     1  UNL1       -0.0912
@<TRIPOS>BOND
     1    17    18    1
     2    18    19    1
     3    18    20    1
     4    20    21   ar
     5    21    22   ar
     6    22    23   ar
     7    23    25    1
     8    25    26   ar
     9    26    27   ar
    10    27    28   ar
    11    28    29    1
    12    28    30   ar
    13    30    31   ar
    14    23    24   ar
    15    18     2    1
    16     2     3    1
    17     3     4    1
    18     4     5    1
    19     5     1    1
    20     1    32    1
    21    32    33    1
    22    32    35    1
    23    36    35    1
    24    36    53    1
    25    53    54    1
    26    54    55   ar
    27    55    56   ar
    28    56    57   ar
    29    57    58   ar
    30    58    59   ar
    31    59    60   ar
    32    60    61   ar
    33    61    62   ar
    34    36    37    1
    35    37    38    2
    36    37    39   am
    37    41    39    1
    38    41    42    1
    39    42    43   ar
    40    43    44   ar
    41    44    45   ar
    42    45    46   ar
    43    46    47   ar
    44    47    48    1
    45    48    49    1
    46    49    50    1
    47    50    51    1
    48     5     6    1
    49     6     8    1
    50     8     9    2
    51     8    10   am
    52    10    12    1
    53    12    13    1
    54    13    14    1
    55    13    15    1
    56    13    16    1
    57     6     7    1
    58    24    20   ar
    59     7     2    1
    60    31    25   ar
    61    62    54   ar
    62    50    41    1
    63    61    56   ar
    64    47    42   ar
    65    33    34    1
    66    39    40    1
    67    51    52    1
    68    10    11    1
