@<TRIPOS>MOLECULE
*****
 41 45 0 0 0
SMALL
GASTEIGER

@<TRIPOS>ATOM
      1 O           3.2542   -0.5962   29.8139 O.2     1  UNL1       -0.2726
      2 C           2.9079   -0.0801   28.4487 C.2     1  UNL1        0.2513
      3 C           3.9522   -0.0461   27.3725 C.3     1  UNL1        0.1278
      4 C           3.6060    0.4700   26.0074 C.2     1  UNL1        0.0321
      5 C           2.2152    0.9521   25.7183 C.ar    1  UNL1        0.0245
      6 C           1.8689    1.4682   24.3531 C.ar    1  UNL1       -0.0014
      7 C           0.4782    1.9503   24.0641 C.ar    1  UNL1       -0.0142
      8 C          -0.5661    1.9163   25.1403 C.ar    1  UNL1       -0.0023
      9 C          -0.2199    1.4002   26.5054 C.ar    1  UNL1        0.0163
     10 C           1.1708    0.9181   26.7944 C.ar    1  UNL1        0.0742
     11 N           1.5172    0.4020   28.1597 N.am    1  UNL1       -0.1789
     12 N           4.6503    0.5040   24.9312 N.pl3   1  UNL1       -0.3368
     13 H           5.3588    1.1873   24.9543 H       1  UNL1        0.1465
     14 C           4.6153   -0.5029   23.8200 C.3     1  UNL1        0.0716
     15 C           4.5203   -0.0442   22.3950 C.3     1  UNL1        0.0386
     16 C           4.4853   -1.0511   21.2837 C.3     1  UNL1        0.0974
     17 N           4.5453   -2.5167   21.5975 N.3     1  UNL1       -0.1520
     18 C           4.6403   -2.9754   23.0224 C.3     1  UNL1        0.0974
     19 C           4.6754   -1.9685   24.1337 C.3     1  UNL1        0.0386
     20 S           4.5103   -3.5236   20.4863 S.O2    1  UNL1        0.1302
     21 O           5.5125   -4.3662   21.2181 O.2     1  UNL1       -0.1495
     22 O           3.5081   -2.6811   19.7544 O.2     1  UNL1       -0.1495
     23 C           4.4752   -4.5306   19.3750 C.3     1  UNL1        0.5359
     24 F           3.4963   -5.3572   20.1549 F       1  UNL1       -0.1493
     25 F           5.4541   -3.7039   18.5950 F       1  UNL1       -0.1493
     26 F           4.4401   -5.5375   18.2638 F       1  UNL1       -0.1493
     27 C           0.1319    2.4664   22.6989 C.3     1  UNL1        0.0667
     28 C          -0.8688    3.5735   22.5473 C.ar    1  UNL1       -0.0143
     29 C          -2.0939    3.3672   21.7067 C.ar    1  UNL1       -0.0028
     30 C          -3.0946    4.4742   21.5550 C.ar    1  UNL1        0.0111
     31 C          -2.8702    5.7877   22.2440 C.ar    1  UNL1        0.0577
     32 CL         -3.8709    6.8948   22.0924 Cl      1  UNL1       -0.0822
     33 C          -1.6451    5.9939   23.0846 C.ar    1  UNL1        0.0111
     34 C          -0.6444    4.8869   23.2362 C.ar    1  UNL1       -0.0028
     35 C           0.7862    1.8755   21.4854 C.ar    1  UNL1       -0.0143
     36 C           1.8156    2.6627   20.7300 C.ar    1  UNL1       -0.0028
     37 C           2.4699    2.0718   19.5165 C.ar    1  UNL1        0.0111
     38 C           2.0949    0.6936   19.0584 C.ar    1  UNL1        0.0577
     39 CL          2.7492    0.1026   17.8449 Cl      1  UNL1       -0.0822
     40 C           1.0656   -0.0937   19.8138 C.ar    1  UNL1        0.0111
     41 C           0.4112    0.4972   21.0273 C.ar    1  UNL1       -0.0028
@<TRIPOS>BOND
     1     1     2    2
     2     2     3    1
     3     3     4    1
     4     4    12    1
     5    12    14    1
     6    14    15    1
     7    15    16    1
     8    16    17    1
     9    17    20    1
    10    20    21    2
    11    20    22    2
    12    20    23    1
    13    23    24    1
    14    23    25    1
    15    23    26    1
    16    17    18    1
    17    18    19    1
    18     4     5    2
    19     5     6   ar
    20     6     7   ar
    21     7    27    1
    22    27    28    1
    23    28    29   ar
    24    29    30   ar
    25    30    31   ar
    26    31    32    1
    27    31    33   ar
    28    33    34   ar
    29    27    35    1
    30    35    36   ar
    31    36    37   ar
    32    37    38   ar
    33    38    39    1
    34    38    40   ar
    35    40    41   ar
    36     7     8   ar
    37     8     9   ar
    38     9    10   ar
    39    10    11    2
    40    11     2    1
    41    19    14    1
    42    10     5   ar
    43    34    28   ar
    44    41    35   ar
    45    12    13    1
@<TRIPOS>MOLECULE
*****
 41 45 0 0 0
SMALL
GASTEIGER

@<TRIPOS>ATOM
      1 O           3.0718   -0.5990   29.8265 O.2     1  UNL1       -0.2726
      2 C           2.7584   -0.0725   28.4573 C.2     1  UNL1        0.2513
      3 C           3.8216   -0.0541   27.3993 C.3     1  UNL1        0.1278
      4 C           3.5082    0.4724   26.0302 C.2     1  UNL1        0.0321
      5 C           2.1316    0.9806   25.7190 C.ar    1  UNL1        0.0245
      6 C           1.8183    1.5072   24.3499 C.ar    1  UNL1       -0.0014
      7 C           0.4417    2.0153   24.0388 C.ar    1  UNL1       -0.0142
      8 C          -0.6215    1.9970   25.0967 C.ar    1  UNL1       -0.0023
      9 C          -0.3081    1.4705   26.4658 C.ar    1  UNL1        0.0163
     10 C           1.0684    0.9623   26.7770 C.ar    1  UNL1        0.0742
     11 N           1.3818    0.4357   28.1462 N.am    1  UNL1       -0.1789
     12 N           4.5714    0.4907   24.9723 N.pl3   1  UNL1       -0.3368
     13 H           5.2919    1.1605   25.0101 H       1  UNL1        0.1465
     14 C           4.5367   -0.5114   23.8567 C.3     1  UNL1        0.0716
     15 C           4.3613   -0.0508   22.4399 C.3     1  UNL1        0.0386
     16 C           4.3267   -1.0529   21.3244 C.3     1  UNL1        0.0974
     17 N           4.4674   -2.5156   21.6255 N.3     1  UNL1       -0.1520
     18 C           4.6428   -2.9762   23.0422 C.3     1  UNL1        0.0974
     19 C           4.6775   -1.9741   24.1578 C.3     1  UNL1        0.0386
     20 S           4.4328   -3.5178   20.5100 S.O2    1  UNL1        0.1302
     21 O           3.4851   -2.6383   19.7494 O.2     1  UNL1       -0.1495
     22 O           5.3805   -4.3972   21.2705 O.2     1  UNL1       -0.1495
     23 C           4.3982   -4.5200   19.3944 C.3     1  UNL1        0.5359
     24 F           5.3029   -3.6440   18.5794 F       1  UNL1       -0.1493
     25 F           3.4935   -5.3959   20.2093 F       1  UNL1       -0.1493
     26 F           4.3636   -5.5221   18.2788 F       1  UNL1       -0.1493
     27 C           0.1283    2.5419   22.6696 C.3     1  UNL1        0.0667
     28 C           0.7871    1.9380   21.4649 C.ar    1  UNL1       -0.0143
     29 C           1.8793    2.6822   20.7553 C.ar    1  UNL1       -0.0028
     30 C           2.5381    2.0783   19.5506 C.ar    1  UNL1        0.0111
     31 C           2.1047    0.7303   19.0555 C.ar    1  UNL1        0.0577
     32 CL          2.7635    0.1264   17.8508 Cl      1  UNL1       -0.0822
     33 C           1.0126   -0.0138   19.7650 C.ar    1  UNL1        0.0111
     34 C           0.3538    0.5901   20.9697 C.ar    1  UNL1       -0.0028
     35 C          -0.8438    3.6723   22.5052 C.ar    1  UNL1       -0.0143
     36 C          -2.1950    3.4183   21.9052 C.ar    1  UNL1       -0.0028
     37 C          -3.1672    4.5486   21.7408 C.ar    1  UNL1        0.0111
     38 C          -2.7882    5.9331   22.1763 C.ar    1  UNL1        0.0577
     39 CL         -3.7604    7.0635   22.0119 Cl      1  UNL1       -0.0822
     40 C          -1.4372    6.1872   22.7763 C.ar    1  UNL1        0.0111
     41 C          -0.4649    5.0568   22.9407 C.ar    1  UNL1       -0.0028
@<TRIPOS>BOND
     1     1     2    2
     2     2     3    1
     3     3     4    1
     4     4    12    1
     5    12    14    1
     6    14    15    1
     7    15    16    1
     8    16    17    1
     9    17    20    1
    10    20    21    2
    11    20    22    2
    12    20    23    1
    13    23    24    1
    14    23    25    1
    15    23    26    1
    16    17    18    1
    17    18    19    1
    18     4     5    2
    19     5     6   ar
    20     6     7   ar
    21     7    27    1
    22    27    28    1
    23    28    29   ar
    24    29    30   ar
    25    30    31   ar
    26    31    32    1
    27    31    33   ar
    28    33    34   ar
    29    27    35    1
    30    35    36   ar
    31    36    37   ar
    32    37    38   ar
    33    38    39    1
    34    38    40   ar
    35    40    41   ar
    36     7     8   ar
    37     8     9   ar
    38     9    10   ar
    39    10    11    2
    40    11     2    1
    41    19    14    1
    42    10     5   ar
    43    34    28   ar
    44    41    35   ar
    45    12    13    1
@<TRIPOS>MOLECULE
*****
 41 45 0 0 0
SMALL
GASTEIGER

@<TRIPOS>ATOM
      1 O           0.1904    2.6377   17.8615 O.2     1  UNL1       -0.2726
      2 C          -0.0783    2.8544   19.3213 C.2     1  UNL1        0.2513
      3 C          -0.7851    4.0963   19.7775 C.3     1  UNL1        0.1278
      4 C          -1.0538    4.3130   21.2372 C.2     1  UNL1        0.0321
      5 C          -0.6157    3.2879   22.2408 C.ar    1  UNL1        0.0245
      6 C          -0.8844    3.5046   23.7005 C.ar    1  UNL1       -0.0014
      7 C          -0.4462    2.4794   24.7040 C.ar    1  UNL1       -0.0142
      8 C           0.2607    1.2376   24.2478 C.ar    1  UNL1       -0.0023
      9 C           0.5293    1.0209   22.7881 C.ar    1  UNL1        0.0163
     10 C           0.0912    2.0460   21.7846 C.ar    1  UNL1        0.0742
     11 N           0.3599    1.8293   20.3248 N.am    1  UNL1       -0.1789
     12 N          -1.7607    5.5549   21.6934 N.pl3   1  UNL1       -0.3368
     13 H          -1.3095    6.4279   21.6344 H       1  UNL1        0.1465
     14 C          -3.1549    5.4666   22.2396 C.3     1  UNL1        0.0716
     15 C          -3.5525    6.3029   23.4197 C.3     1  UNL1        0.0386
     16 C          -4.9468    6.2146   23.9658 C.3     1  UNL1        0.0974
     17 N          -5.9434    5.2900   23.3319 N.3     1  UNL1       -0.1520
     18 C          -5.5459    4.4538   22.1518 C.3     1  UNL1        0.0974
     19 C          -4.1516    4.5420   21.6057 C.3     1  UNL1        0.0386
     20 S          -7.3376    5.2017   23.8780 S.O2    1  UNL1        0.1302
     21 O          -7.7270    4.3064   22.7393 O.2     1  UNL1       -0.1495
     22 O          -6.9483    6.0971   25.0167 O.2     1  UNL1       -0.1495
     23 C          -8.7319    5.1135   24.4242 C.3     1  UNL1        0.5359
     24 F          -8.8797    3.7460   23.8257 F       1  UNL1       -0.1493
     25 F          -8.5841    6.4809   25.0227 F       1  UNL1       -0.1493
     26 F         -10.1261    5.0252   24.9704 F       1  UNL1       -0.1493
     27 C          -0.7149    2.6961   26.1638 C.3     1  UNL1        0.0667
     28 C          -1.7051    3.7359   26.5979 C.ar    1  UNL1       -0.0143
     29 C          -3.1759    3.4578   26.5003 C.ar    1  UNL1       -0.0028
     30 C          -4.1662    4.4976   26.9344 C.ar    1  UNL1        0.0111
     31 C          -3.6856    5.8153   27.4660 C.ar    1  UNL1        0.0577
     32 CL         -4.6758    6.8551   27.9001 Cl      1  UNL1       -0.0822
     33 C          -2.2148    6.0933   27.5635 C.ar    1  UNL1        0.0111
     34 C          -1.2246    5.0536   27.1295 C.ar    1  UNL1       -0.0028
     35 C           0.0066    1.8731   27.1895 C.ar    1  UNL1       -0.0143
     36 C          -0.7015    0.7448   27.8791 C.ar    1  UNL1       -0.0028
     37 C           0.0201   -0.0782   28.9048 C.ar    1  UNL1        0.0111
     38 C           1.4497    0.2270   29.2408 C.ar    1  UNL1        0.0577
     39 CL          2.1712   -0.5960   30.2665 Cl      1  UNL1       -0.0822
     40 C           2.1578    1.3553   28.5512 C.ar    1  UNL1        0.0111
     41 C           1.4363    2.1784   27.5255 C.ar    1  UNL1       -0.0028
@<TRIPOS>BOND
     1     1     2    2
     2     2     3    1
     3     3     4    1
     4     4    12    1
     5    12    14    1
     6    14    15    1
     7    15    16    1
     8    16    17    1
     9    17    20    1
    10    20    21    2
    11    20    22    2
    12    20    23    1
    13    23    24    1
    14    23    25    1
    15    23    26    1
    16    17    18    1
    17    18    19    1
    18     4     5    2
    19     5     6   ar
    20     6     7   ar
    21     7    27    1
    22    27    28    1
    23    28    29   ar
    24    29    30   ar
    25    30    31   ar
    26    31    32    1
    27    31    33   ar
    28    33    34   ar
    29    27    35    1
    30    35    36   ar
    31    36    37   ar
    32    37    38   ar
    33    38    39    1
    34    38    40   ar
    35    40    41   ar
    36     7     8   ar
    37     8     9   ar
    38     9    10   ar
    39    10    11    2
    40    11     2    1
    41    19    14    1
    42    10     5   ar
    43    34    28   ar
    44    41    35   ar
    45    12    13    1
@<TRIPOS>MOLECULE
*****
 41 45 0 0 0
SMALL
GASTEIGER

@<TRIPOS>ATOM
      1 O          -5.0233    5.8293   16.4069 O.2     1  UNL1       -0.2726
      2 C          -4.2514    5.0924   17.4611 C.2     1  UNL1        0.2513
      3 C          -4.9792    4.3219   18.5225 C.3     1  UNL1        0.1278
      4 C          -4.2074    3.5850   19.5767 C.2     1  UNL1        0.0321
      5 C          -2.7078    3.6186   19.5694 C.ar    1  UNL1        0.0245
      6 C          -1.9360    2.8817   20.6236 C.ar    1  UNL1       -0.0014
      7 C          -0.4364    2.9153   20.6162 C.ar    1  UNL1       -0.0142
      8 C           0.2914    3.6858   19.5548 C.ar    1  UNL1       -0.0023
      9 C          -0.4804    4.4227   18.5006 C.ar    1  UNL1        0.0163
     10 C          -1.9800    4.3891   18.5080 C.ar    1  UNL1        0.0742
     11 N          -2.7519    5.1260   17.4538 N.am    1  UNL1       -0.1789
     12 N          -4.9352    2.8145   20.6381 N.pl3   1  UNL1       -0.3368
     13 H          -5.1907    1.8773   20.4782 H       1  UNL1        0.1465
     14 C          -5.2737    3.4720   21.9432 C.3     1  UNL1        0.0716
     15 C          -4.4248    3.2176   23.1535 C.3     1  UNL1        0.0386
     16 C          -4.7633    3.8750   24.4586 C.3     1  UNL1        0.0974
     17 N          -5.9506    4.7869   24.5533 N.3     1  UNL1       -0.1520
     18 C          -6.7994    5.0413   23.3431 C.3     1  UNL1        0.0974
     19 C          -6.4609    4.3838   22.0379 C.3     1  UNL1        0.0386
     20 S          -6.2890    5.4443   25.8584 S.O2    1  UNL1        0.1302
     21 O          -5.0912    4.8019   26.4927 O.2     1  UNL1       -0.1495
     22 O          -7.4869    6.0867   25.2241 O.2     1  UNL1       -0.1495
     23 C          -6.6276    6.1018   27.1635 C.3     1  UNL1        0.5359
     24 F          -8.0482    6.2672   26.7115 F       1  UNL1       -0.1493
     25 F          -5.2069    5.9364   27.6154 F       1  UNL1       -0.1493
     26 F          -6.9661    6.7593   28.4685 F       1  UNL1       -0.1493
     27 C           0.3355    2.1784   21.6704 C.3     1  UNL1        0.0667
     28 C           0.1118    2.4915   23.1202 C.ar    1  UNL1       -0.0143
     29 C          -0.1853    3.8987   23.5465 C.ar    1  UNL1       -0.0028
     30 C          -0.4090    4.2117   24.9963 C.ar    1  UNL1        0.0111
     31 C          -0.3356    3.1176   26.0199 C.ar    1  UNL1        0.0577
     32 CL         -0.5593    3.4306   27.4697 Cl      1  UNL1       -0.0822
     33 C          -0.0385    1.7105   25.5936 C.ar    1  UNL1        0.0111
     34 C           0.1852    1.3974   24.1438 C.ar    1  UNL1       -0.0028
     35 C           1.3310    1.1285   21.2748 C.ar    1  UNL1       -0.0143
     36 C           0.8820   -0.0795   20.5071 C.ar    1  UNL1       -0.0028
     37 C           1.8776   -1.1294   20.1114 C.ar    1  UNL1        0.0111
     38 C           3.3221   -0.9714   20.4834 C.ar    1  UNL1        0.0577
     39 CL          4.3176   -2.0213   20.0878 Cl      1  UNL1       -0.0822
     40 C           3.7711    0.2365   21.2511 C.ar    1  UNL1        0.0111
     41 C           2.7756    1.2865   21.6468 C.ar    1  UNL1       -0.0028
@<TRIPOS>BOND
     1     1     2    2
     2     2     3    1
     3     3     4    1
     4     4    12    1
     5    12    14    1
     6    14    15    1
     7    15    16    1
     8    16    17    1
     9    17    20    1
    10    20    21    2
    11    20    22    2
    12    20    23    1
    13    23    24    1
    14    23    25    1
    15    23    26    1
    16    17    18    1
    17    18    19    1
    18     4     5    2
    19     5     6   ar
    20     6     7   ar
    21     7    27    1
    22    27    28    1
    23    28    29   ar
    24    29    30   ar
    25    30    31   ar
    26    31    32    1
    27    31    33   ar
    28    33    34   ar
    29    27    35    1
    30    35    36   ar
    31    36    37   ar
    32    37    38   ar
    33    38    39    1
    34    38    40   ar
    35    40    41   ar
    36     7     8   ar
    37     8     9   ar
    38     9    10   ar
    39    10    11    2
    40    11     2    1
    41    19    14    1
    42    10     5   ar
    43    34    28   ar
    44    41    35   ar
    45    12    13    1
@<TRIPOS>MOLECULE
*****
 41 45 0 0 0
SMALL
GASTEIGER

@<TRIPOS>ATOM
      1 O           5.3371    3.2109   28.6845 O.2     1  UNL1       -0.2726
      2 C           5.3537    1.9449   27.8800 C.2     1  UNL1        0.2513
      3 C           4.0792    1.4093   27.2981 C.3     1  UNL1        0.1278
      4 C           4.0957    0.1434   26.4936 C.2     1  UNL1        0.0321
      5 C           5.3869   -0.5870   26.2711 C.ar    1  UNL1        0.0245
      6 C           5.4035   -1.8529   25.4667 C.ar    1  UNL1       -0.0014
      7 C           6.6946   -2.5832   25.2442 C.ar    1  UNL1       -0.0142
      8 C           7.9692   -2.0477   25.8261 C.ar    1  UNL1       -0.0023
      9 C           7.9526   -0.7818   26.6306 C.ar    1  UNL1        0.0163
     10 C           6.6615   -0.0514   26.8531 C.ar    1  UNL1        0.0742
     11 N           6.6449    1.2145   27.6575 N.am    1  UNL1       -0.1789
     12 N           2.8212   -0.3921   25.9117 N.pl3   1  UNL1       -0.3368
     13 H           2.2723   -1.0256   26.4281 H       1  UNL1        0.1465
     14 C           2.3830    0.0374   24.5430 C.3     1  UNL1        0.0716
     15 C           1.3357    1.1003   24.3899 C.3     1  UNL1        0.0386
     16 C           0.8975    1.5298   23.0212 C.3     1  UNL1        0.0974
     17 N           1.5065    0.8965   21.8055 N.3     1  UNL1       -0.1520
     18 C           2.5538   -0.1664   21.9585 C.3     1  UNL1        0.0974
     19 C           2.9921   -0.5960   23.3273 C.3     1  UNL1        0.0386
     20 S           1.0683    1.3260   20.4367 S.O2    1  UNL1        0.1302
     21 O          -0.2473    0.6352   20.6411 O.2     1  UNL1       -0.1495
     22 O           2.3840    2.0169   20.2324 O.2     1  UNL1       -0.1495
     23 C           0.6302    1.7556   19.0679 C.3     1  UNL1        0.5359
     24 F           1.8062    1.0435   18.4681 F       1  UNL1       -0.1493
     25 F          -0.5458    2.4677   19.6678 F       1  UNL1       -0.1493
     26 F           0.1921    2.1851   17.6992 F       1  UNL1       -0.1493
     27 C           6.7112   -3.8492   24.4397 C.3     1  UNL1        0.0667
     28 C           6.3213   -3.8227   22.9915 C.ar    1  UNL1       -0.0143
     29 C           7.3806   -3.7760   21.9304 C.ar    1  UNL1       -0.0028
     30 C           6.9907   -3.7495   20.4822 C.ar    1  UNL1        0.0111
     31 C           5.5416   -3.7697   20.0951 C.ar    1  UNL1        0.0577
     32 CL          5.1517   -3.7431   18.6469 Cl      1  UNL1       -0.0822
     33 C           4.4824   -3.8163   21.1562 C.ar    1  UNL1        0.0111
     34 C           4.8723   -3.8428   22.6044 C.ar    1  UNL1       -0.0028
     35 C           7.1177   -5.1416   25.0834 C.ar    1  UNL1       -0.0143
     36 C           6.7819   -5.4011   26.5222 C.ar    1  UNL1       -0.0028
     37 C           7.1884   -6.6935   27.1659 C.ar    1  UNL1        0.0111
     38 C           7.9307   -7.7265   26.3710 C.ar    1  UNL1        0.0577
     39 CL          8.3372   -9.0189   27.0147 Cl      1  UNL1       -0.0822
     40 C           8.2665   -7.4671   24.9323 C.ar    1  UNL1        0.0111
     41 C           7.8600   -6.1746   24.2885 C.ar    1  UNL1       -0.0028
@<TRIPOS>BOND
     1     1     2    2
     2     2     3    1
     3     3     4    1
     4     4    12    1
     5    12    14    1
     6    14    15    1
     7    15    16    1
     8    16    17    1
     9    17    20    1
    10    20    21    2
    11    20    22    2
    12    20    23    1
    13    23    24    1
    14    23    25    1
    15    23    26    1
    16    17    18    1
    17    18    19    1
    18     4     5    2
    19     5     6   ar
    20     6     7   ar
    21     7    27    1
    22    27    28    1
    23    28    29   ar
    24    29    30   ar
    25    30    31   ar
    26    31    32    1
    27    31    33   ar
    28    33    34   ar
    29    27    35    1
    30    35    36   ar
    31    36    37   ar
    32    37    38   ar
    33    38    39    1
    34    38    40   ar
    35    40    41   ar
    36     7     8   ar
    37     8     9   ar
    38     9    10   ar
    39    10    11    2
    40    11     2    1
    41    19    14    1
    42    10     5   ar
    43    34    28   ar
    44    41    35   ar
    45    12    13    1
@<TRIPOS>MOLECULE
*****
 41 45 0 0 0
SMALL
GASTEIGER

@<TRIPOS>ATOM
      1 O          -1.3023    2.0965   24.8998 O.2     1  UNL1       -0.2726
      2 C          -0.0944    1.5691   25.6160 C.2     1  UNL1        0.2513
      3 C           1.2079    1.4264   24.8855 C.3     1  UNL1        0.1278
      4 C           2.4158    0.8991   25.6017 C.2     1  UNL1        0.0321
      5 C           2.3214    0.5146   27.0485 C.ar    1  UNL1        0.0245
      6 C           3.5293   -0.0127   27.7647 C.ar    1  UNL1       -0.0014
      7 C           3.4349   -0.3973   29.2115 C.ar    1  UNL1       -0.0142
      8 C           2.1326   -0.2545   29.9420 C.ar    1  UNL1       -0.0023
      9 C           0.9247    0.2728   29.2258 C.ar    1  UNL1        0.0163
     10 C           1.0191    0.6573   27.7791 C.ar    1  UNL1        0.0742
     11 N          -0.1888    1.1846   27.0628 N.am    1  UNL1       -0.1789
     12 N           3.7180    0.7564   24.8711 N.pl3   1  UNL1       -0.3368
     13 H           4.4739    1.3471   25.0924 H       1  UNL1        0.1465
     14 C           3.8687   -0.2863   23.8034 C.3     1  UNL1        0.0716
     15 C           4.3139   -1.6721   24.1660 C.3     1  UNL1        0.0386
     16 C           4.4646   -2.7149   23.0983 C.3     1  UNL1        0.0974
     17 N           4.1700   -2.3719   21.6681 N.3     1  UNL1       -0.1520
     18 C           3.7247   -0.9862   21.3055 C.3     1  UNL1        0.0974
     19 C           3.5741    0.0567   22.3732 C.3     1  UNL1        0.0386
     20 S           4.3206   -3.4146   20.6004 S.O2    1  UNL1        0.1302
     21 O           3.6588   -2.4995   19.6133 O.2     1  UNL1       -0.1495
     22 O           4.9824   -4.3298   21.5876 O.2     1  UNL1       -0.1495
     23 C           4.4713   -4.4574   19.5327 C.3     1  UNL1        0.5359
     24 F           5.9300   -4.5810   19.8593 F       1  UNL1       -0.1493
     25 F           3.0125   -4.3339   19.2061 F       1  UNL1       -0.1493
     26 F           4.6220   -5.5002   18.4651 F       1  UNL1       -0.1493
     27 C           4.6428   -0.9246   29.9278 C.3     1  UNL1        0.0667
     28 C           4.7133   -0.8630   31.4248 C.ar    1  UNL1       -0.0143
     29 C           4.4328   -2.0906   32.2400 C.ar    1  UNL1       -0.0028
     30 C           4.5033   -2.0291   33.7371 C.ar    1  UNL1        0.0111
     31 C           4.8542   -0.7399   34.4190 C.ar    1  UNL1        0.0577
     32 CL          4.9247   -0.6783   35.9161 Cl      1  UNL1       -0.0822
     33 C           5.1346    0.4876   33.6039 C.ar    1  UNL1        0.0111
     34 C           5.0642    0.4261   32.1068 C.ar    1  UNL1       -0.0028
     35 C           5.7801   -1.5134   29.1470 C.ar    1  UNL1       -0.0143
     36 C           7.1439   -0.8936   29.2252 C.ar    1  UNL1       -0.0028
     37 C           8.2812   -1.4824   28.4444 C.ar    1  UNL1        0.0111
     38 C           8.0549   -2.6911   27.5854 C.ar    1  UNL1        0.0577
     39 CL          9.1922   -3.2799   26.8046 Cl      1  UNL1       -0.0822
     40 C           6.6912   -3.3109   27.5071 C.ar    1  UNL1        0.0111
     41 C           5.5538   -2.7221   28.2880 C.ar    1  UNL1       -0.0028
@<TRIPOS>BOND
     1     1     2    2
     2     2     3    1
     3     3     4    1
     4     4    12    1
     5    12    14    1
     6    14    15    1
     7    15    16    1
     8    16    17    1
     9    17    20    1
    10    20    21    2
    11    20    22    2
    12    20    23    1
    13    23    24    1
    14    23    25    1
    15    23    26    1
    16    17    18    1
    17    18    19    1
    18     4     5    2
    19     5     6   ar
    20     6     7   ar
    21     7    27    1
    22    27    28    1
    23    28    29   ar
    24    29    30   ar
    25    30    31   ar
    26    31    32    1
    27    31    33   ar
    28    33    34   ar
    29    27    35    1
    30    35    36   ar
    31    36    37   ar
    32    37    38   ar
    33    38    39    1
    34    38    40   ar
    35    40    41   ar
    36     7     8   ar
    37     8     9   ar
    38     9    10   ar
    39    10    11    2
    40    11     2    1
    41    19    14    1
    42    10     5   ar
    43    34    28   ar
    44    41    35   ar
    45    12    13    1
@<TRIPOS>MOLECULE
*****
 41 45 0 0 0
SMALL
GASTEIGER

@<TRIPOS>ATOM
      1 O          -1.3293    2.0911   25.0386 O.2     1  UNL1       -0.2726
      2 C          -0.1004    1.5724   25.7249 C.2     1  UNL1        0.2513
      3 C           1.1883    1.4536   24.9666 C.3     1  UNL1        0.1278
      4 C           2.4172    0.9350   25.6528 C.2     1  UNL1        0.0321
      5 C           2.3574    0.5352   27.0973 C.ar    1  UNL1        0.0245
      6 C           3.5862    0.0165   27.7835 C.ar    1  UNL1       -0.0014
      7 C           3.5263   -0.3833   29.2280 C.ar    1  UNL1       -0.0142
      8 C           2.2376   -0.2645   29.9862 C.ar    1  UNL1       -0.0023
      9 C           1.0087    0.2542   29.3001 C.ar    1  UNL1        0.0163
     10 C           1.0686    0.6540   27.8556 C.ar    1  UNL1        0.0742
     11 N          -0.1603    1.1726   27.1694 N.am    1  UNL1       -0.1789
     12 N           3.7060    0.8162   24.8945 N.pl3   1  UNL1       -0.3368
     13 H           4.4560    1.4195   25.1010 H       1  UNL1        0.1465
     14 C           3.8519   -0.2218   23.8216 C.3     1  UNL1        0.0716
     15 C           4.2963   -1.6099   24.1764 C.3     1  UNL1        0.0386
     16 C           4.4423   -2.6479   23.1034 C.3     1  UNL1        0.0974
     17 N           4.1438   -2.2979   21.6757 N.3     1  UNL1       -0.1520
     18 C           3.6994   -0.9099   21.3209 C.3     1  UNL1        0.0974
     19 C           3.5535    0.1282   22.3938 C.3     1  UNL1        0.0386
     20 S           4.2898   -3.3359   20.6028 S.O2    1  UNL1        0.1302
     21 O           3.8897   -2.3244   19.5699 O.2     1  UNL1       -0.1495
     22 O           4.6899   -4.3473   21.6357 O.2     1  UNL1       -0.1495
     23 C           4.4358   -4.3739   19.5298 C.3     1  UNL1        0.5359
     24 F           5.9058   -4.4617   19.8148 F       1  UNL1       -0.1493
     25 F           2.9657   -4.2862   19.2449 F       1  UNL1       -0.1493
     26 F           4.5818   -5.4120   18.4569 F       1  UNL1       -0.1493
     27 C           4.7552   -0.9019   29.9142 C.3     1  UNL1        0.0667
     28 C           5.8680   -1.5022   29.1072 C.ar    1  UNL1       -0.0143
     29 C           5.6749   -2.8285   28.4334 C.ar    1  UNL1       -0.0028
     30 C           6.7877   -3.4288   27.6264 C.ar    1  UNL1        0.0111
     31 C           8.0936   -2.7028   27.4930 C.ar    1  UNL1        0.0577
     32 CL          9.2064   -3.3030   26.6859 Cl      1  UNL1       -0.0822
     33 C           8.2866   -1.3766   28.1667 C.ar    1  UNL1        0.0111
     34 C           7.1739   -0.7763   28.9738 C.ar    1  UNL1       -0.0028
     35 C           4.8713   -0.8203   31.4075 C.ar    1  UNL1       -0.0143
     36 C           4.5437   -2.0161   32.2517 C.ar    1  UNL1       -0.0028
     37 C           4.6598   -1.9345   33.7450 C.ar    1  UNL1        0.0111
     38 C           5.1034   -0.6570   34.3940 C.ar    1  UNL1        0.0577
     39 CL          5.2195   -0.5754   35.8873 Cl      1  UNL1       -0.0822
     40 C           5.4310    0.5388   33.5499 C.ar    1  UNL1        0.0111
     41 C           5.3149    0.4572   32.0565 C.ar    1  UNL1       -0.0028
@<TRIPOS>BOND
     1     1     2    2
     2     2     3    1
     3     3     4    1
     4     4    12    1
     5    12    14    1
     6    14    15    1
     7    15    16    1
     8    16    17    1
     9    17    20    1
    10    20    21    2
    11    20    22    2
    12    20    23    1
    13    23    24    1
    14    23    25    1
    15    23    26    1
    16    17    18    1
    17    18    19    1
    18     4     5    2
    19     5     6   ar
    20     6     7   ar
    21     7    27    1
    22    27    28    1
    23    28    29   ar
    24    29    30   ar
    25    30    31   ar
    26    31    32    1
    27    31    33   ar
    28    33    34   ar
    29    27    35    1
    30    35    36   ar
    31    36    37   ar
    32    37    38   ar
    33    38    39    1
    34    38    40   ar
    35    40    41   ar
    36     7     8   ar
    37     8     9   ar
    38     9    10   ar
    39    10    11    2
    40    11     2    1
    41    19    14    1
    42    10     5   ar
    43    34    28   ar
    44    41    35   ar
    45    12    13    1
@<TRIPOS>MOLECULE
*****
 41 45 0 0 0
SMALL
GASTEIGER

@<TRIPOS>ATOM
      1 O           5.1644    3.3639   28.4535 O.2     1  UNL1       -0.2726
      2 C           5.2049    2.0905   27.6618 C.2     1  UNL1        0.2513
      3 C           3.9436    1.5353   27.0693 C.3     1  UNL1        0.1278
      4 C           3.9841    0.2619   26.2776 C.2     1  UNL1        0.0321
      5 C           5.2858   -0.4564   26.0784 C.ar    1  UNL1        0.0245
      6 C           5.3262   -1.7298   25.2867 C.ar    1  UNL1       -0.0014
      7 C           6.6279   -2.4480   25.0875 C.ar    1  UNL1       -0.0142
      8 C           7.8891   -1.8929   25.6800 C.ar    1  UNL1       -0.0023
      9 C           7.8487   -0.6195   26.4717 C.ar    1  UNL1        0.0163
     10 C           6.5470    0.0988   26.6709 C.ar    1  UNL1        0.0742
     11 N           6.5066    1.3722   27.4626 N.am    1  UNL1       -0.1789
     12 N           2.7228   -0.2932   25.6851 N.pl3   1  UNL1       -0.3368
     13 H           2.1953   -0.9578   26.1845 H       1  UNL1        0.1465
     14 C           2.2652    0.1643   24.3319 C.3     1  UNL1        0.0716
     15 C           1.2033    1.2174   24.2156 C.3     1  UNL1        0.0386
     16 C           0.7457    1.6748   22.8624 C.3     1  UNL1        0.0974
     17 N           1.3499    1.0792   21.6254 N.3     1  UNL1       -0.1520
     18 C           2.4117    0.0262   21.7416 C.3     1  UNL1        0.0974
     19 C           2.8694   -0.4313   23.0949 C.3     1  UNL1        0.0386
     20 S           0.8923    1.5367   20.2722 S.O2    1  UNL1        0.1302
     21 O          -0.4418    0.8920   20.5054 O.2     1  UNL1       -0.1495
     22 O           2.2264    2.1814   20.0390 O.2     1  UNL1       -0.1495
     23 C           0.4347    1.9942   18.9189 C.3     1  UNL1        0.5359
     24 F           0.0207    3.3117   19.5043 F       1  UNL1       -0.1493
     25 F           0.8487    0.6767   18.3334 F       1  UNL1       -0.1493
     26 F          -0.0229    2.4517   17.5656 F       1  UNL1       -0.1493
     27 C           6.6683   -3.7215   24.2958 C.3     1  UNL1        0.0667
     28 C           7.0942   -5.0004   24.9538 C.ar    1  UNL1       -0.0143
     29 C           6.7616   -5.2493   26.3951 C.ar    1  UNL1       -0.0028
     30 C           7.1875   -6.5283   27.0531 C.ar    1  UNL1        0.0111
     31 C           7.9461   -7.5583   26.2697 C.ar    1  UNL1        0.0577
     32 CL          8.3720   -8.8372   26.9276 Cl      1  UNL1       -0.0822
     33 C           8.2787   -7.3094   24.8284 C.ar    1  UNL1        0.0111
     34 C           7.8528   -6.0304   24.1704 C.ar    1  UNL1       -0.0028
     35 C           6.2829   -3.7159   22.8462 C.ar    1  UNL1       -0.0143
     36 C           4.8463   -3.8906   22.4514 C.ar    1  UNL1       -0.0028
     37 C           4.4609   -3.8851   21.0018 C.ar    1  UNL1        0.0111
     38 C           5.5119   -3.7049   19.9470 C.ar    1  UNL1        0.0577
     39 CL          5.1265   -3.6993   18.4974 Cl      1  UNL1       -0.0822
     40 C           6.9484   -3.5302   20.3417 C.ar    1  UNL1        0.0111
     41 C           7.3340   -3.5357   21.7913 C.ar    1  UNL1       -0.0028
@<TRIPOS>BOND
     1     1     2    2
     2     2     3    1
     3     3     4    1
     4     4    12    1
     5    12    14    1
     6    14    15    1
     7    15    16    1
     8    16    17    1
     9    17    20    1
    10    20    21    2
    11    20    22    2
    12    20    23    1
    13    23    24    1
    14    23    25    1
    15    23    26    1
    16    17    18    1
    17    18    19    1
    18     4     5    2
    19     5     6   ar
    20     6     7   ar
    21     7    27    1
    22    27    28    1
    23    28    29   ar
    24    29    30   ar
    25    30    31   ar
    26    31    32    1
    27    31    33   ar
    28    33    34   ar
    29    27    35    1
    30    35    36   ar
    31    36    37   ar
    32    37    38   ar
    33    38    39    1
    34    38    40   ar
    35    40    41   ar
    36     7     8   ar
    37     8     9   ar
    38     9    10   ar
    39    10    11    2
    40    11     2    1
    41    19    14    1
    42    10     5   ar
    43    34    28   ar
    44    41    35   ar
    45    12    13    1
@<TRIPOS>MOLECULE
*****
 41 45 0 0 0
SMALL
GASTEIGER

@<TRIPOS>ATOM
      1 O           6.9886   -6.2507   31.6309 O.2     1  UNL1       -0.2726
      2 C           6.8933   -5.3841   30.4101 C.2     1  UNL1        0.2513
      3 C           6.5933   -3.9211   30.5505 C.3     1  UNL1        0.1278
      4 C           6.4980   -3.0546   29.3299 C.2     1  UNL1        0.0321
      5 C           6.7026   -3.6510   27.9688 C.ar    1  UNL1        0.0245
      6 C           6.6072   -2.7845   26.7482 C.ar    1  UNL1       -0.0014
      7 C           6.8118   -3.3809   25.3872 C.ar    1  UNL1       -0.0142
      8 C           7.1118   -4.8439   25.2468 C.ar    1  UNL1       -0.0023
      9 C           7.2072   -5.7105   26.4674 C.ar    1  UNL1        0.0163
     10 C           7.0025   -5.1140   27.8284 C.ar    1  UNL1        0.0742
     11 N           7.0979   -5.9806   29.0491 N.am    1  UNL1       -0.1789
     12 N           6.1980   -1.5916   29.4702 N.pl3   1  UNL1       -0.3368
     13 H           6.9147   -0.9637   29.7180 H       1  UNL1        0.1465
     14 C           4.8061   -1.0853   29.2332 C.3     1  UNL1        0.0716
     15 C           4.3619   -0.7350   27.8439 C.3     1  UNL1        0.0386
     16 C           2.9700   -0.2286   27.6068 C.3     1  UNL1        0.0974
     17 N           2.0223   -0.0726   28.7590 N.3     1  UNL1       -0.1520
     18 C           2.4665   -0.4228   30.1482 C.3     1  UNL1        0.0974
     19 C           3.8584   -0.9292   30.3853 C.3     1  UNL1        0.0386
     20 S           0.6304    0.4338   28.5219 S.O2    1  UNL1        0.1302
     21 O           0.1503   -0.3230   29.7247 O.2     1  UNL1       -0.1495
     22 O           1.1106    1.1905   27.3191 O.2     1  UNL1       -0.1495
     23 C          -0.7615    0.9402   28.2848 C.3     1  UNL1        0.5359
     24 F          -0.2295    2.3353   28.1419 F       1  UNL1       -0.1493
     25 F          -1.2935   -0.4550   28.4277 F       1  UNL1       -0.1493
     26 F          -2.1533    1.4466   28.0477 F       1  UNL1       -0.1493
     27 C           6.7165   -2.5144   24.1664 C.3     1  UNL1        0.0667
     28 C           6.1931   -3.0841   22.8813 C.ar    1  UNL1       -0.0143
     29 C           4.7306   -3.3838   22.7344 C.ar    1  UNL1       -0.0028
     30 C           4.2072   -3.9535   21.4493 C.ar    1  UNL1        0.0111
     31 C           5.1463   -4.2235   20.3111 C.ar    1  UNL1        0.0577
     32 CL          4.6229   -4.7932   19.0260 Cl      1  UNL1       -0.0822
     33 C           6.6086   -3.9238   20.4581 C.ar    1  UNL1        0.0111
     34 C           7.1320   -3.3541   21.7432 C.ar    1  UNL1       -0.0028
     35 C           7.1446   -1.0783   24.2309 C.ar    1  UNL1       -0.0143
     36 C           6.1277   -0.0027   24.4744 C.ar    1  UNL1       -0.0028
     37 C           6.5557    1.4334   24.5388 C.ar    1  UNL1        0.0111
     38 C           8.0006    1.7941   24.3597 C.ar    1  UNL1        0.0577
     39 CL          8.4287    3.2303   24.4242 Cl      1  UNL1       -0.0822
     40 C           9.0175    0.7187   24.1163 C.ar    1  UNL1        0.0111
     41 C           8.5895   -0.7175   24.0518 C.ar    1  UNL1       -0.0028
@<TRIPOS>BOND
     1     1     2    2
     2     2     3    1
     3     3     4    1
     4     4    12    1
     5    12    14    1
     6    14    15    1
     7    15    16    1
     8    16    17    1
     9    17    20    1
    10    20    21    2
    11    20    22    2
    12    20    23    1
    13    23    24    1
    14    23    25    1
    15    23    26    1
    16    17    18    1
    17    18    19    1
    18     4     5    2
    19     5     6   ar
    20     6     7   ar
    21     7    27    1
    22    27    28    1
    23    28    29   ar
    24    29    30   ar
    25    30    31   ar
    26    31    32    1
    27    31    33   ar
    28    33    34   ar
    29    27    35    1
    30    35    36   ar
    31    36    37   ar
    32    37    38   ar
    33    38    39    1
    34    38    40   ar
    35    40    41   ar
    36     7     8   ar
    37     8     9   ar
    38     9    10   ar
    39    10    11    2
    40    11     2    1
    41    19    14    1
    42    10     5   ar
    43    34    28   ar
    44    41    35   ar
    45    12    13    1
