@<TRIPOS>MOLECULE
*****
 33 37 0 0 0
SMALL
GASTEIGER

@<TRIPOS>ATOM
      1 C          -0.7076    2.8356   23.3637 C.ar    1  UNL1        0.3283
      2 N          -1.9767    3.5591   23.7036 N.ar    1  UNL1       -0.1750
      3 C          -2.5278    3.4926   25.0972 C.ar    1  UNL1        0.1668
      4 N          -1.8096    2.7026   26.1508 N.ar    1  UNL1       -0.1946
      5 C          -0.5404    1.9791   25.8108 C.ar    1  UNL1        0.2255
      6 N           0.0107    2.0455   24.4173 N.ar    1  UNL1       -0.1607
      7 C          -3.7970    4.2162   25.4371 C.2     1  UNL1        0.0334
      8 C          -3.9112    4.9617   26.7337 C.2     1  UNL1        0.0502
      9 C          -5.1803    5.6852   27.0736 C.2     1  UNL1        0.2355
     10 N          -6.3355    5.6633   26.1169 N.2     1  UNL1       -0.0341
     11 C          -6.2213    4.9178   24.8203 C.2     1  UNL1        0.3594
     12 N          -7.1851    4.7200   23.6880 N.2     1  UNL1       -0.0344
     13 C          -6.5116    3.8743   22.6484 C.2     1  UNL1        0.2320
     14 C          -5.1315    3.5493   23.1380 C.2     1  UNL1        0.0409
     15 C          -4.9521    4.1942   24.4804 C.3     1  UNL1        0.1630
     16 N           0.1778    1.1891   26.8644 N.pl3   1  UNL1       -0.2729
     17 C           1.6690    1.0383   26.8027 C.3     1  UNL1        0.1257
     18 C           2.3872    0.2482   27.8564 C.3     1  UNL1        0.1637
     19 O           1.6142   -0.3909   28.9717 O.3     1  UNL1       -0.3501
     20 C           0.1230   -0.2401   29.0334 C.3     1  UNL1        0.1637
     21 C          -0.5951    0.5499   27.9798 C.3     1  UNL1        0.1257
     22 O          -0.1565    2.9020   21.9702 O.3     1  UNL1       -0.4222
     23 C           2.5698   -0.3493   20.4713 C.ar    1  UNL1        0.0538
     24 C           3.1434    0.8474   21.1704 C.ar    1  UNL1        0.0076
     25 C           2.2347    1.9313   21.6701 C.ar    1  UNL1        0.0378
     26 C           0.7523    1.8182   21.4706 C.ar    1  UNL1        0.1487
     27 C           0.1787    0.6215   20.7714 C.ar    1  UNL1        0.0378
     28 C           1.0874   -0.4623   20.2718 C.ar    1  UNL1        0.0076
     29 C           4.8955   -2.4783   18.0613 C.3     1  UNL1        0.1152
     30 N           3.9868   -1.3946   18.5609 N.am    1  UNL1       -0.2726
     31 C           3.5863   -0.2723   17.6498 C.3     1  UNL1        0.1152
     32 C           3.4785   -1.4330   19.9717 C.2     1  UNL1        0.2491
     33 O           3.8790   -2.5553   20.8828 O.2     1  UNL1       -0.2699
@<TRIPOS>BOND
     1    29    30    1
     2    30    31    1
     3    30    32   am
     4    32    33    2
     5    32    23    1
     6    23    24   ar
     7    24    25   ar
     8    25    26   ar
     9    26    22    1
    10    22     1    1
    11     1     2   ar
    12     2     3   ar
    13     3     7    1
    14     7     8    2
    15     8     9    1
    16     9    10    2
    17    10    11    1
    18    11    12    2
    19    12    13    1
    20    13    14    2
    21    14    15    1
    22     3     4   ar
    23     4     5   ar
    24     5    16    1
    25    16    17    1
    26    17    18    1
    27    18    19    1
    28    19    20    1
    29    20    21    1
    30     5     6   ar
    31    26    27   ar
    32    27    28   ar
    33    28    23   ar
    34     6     1   ar
    35    15     7    1
    36    21    16    1
    37    15    11    1
@<TRIPOS>MOLECULE
*****
 33 37 0 0 0
SMALL
GASTEIGER

@<TRIPOS>ATOM
      1 C          -0.4608    4.0883   20.1648 C.ar    1  UNL1        0.3283
      2 N          -0.5060    3.8364   21.6427 N.ar    1  UNL1       -0.1750
      3 C          -1.8271    3.7189   22.3435 C.ar    1  UNL1        0.1668
      4 N          -3.1029    3.8534   21.5663 N.ar    1  UNL1       -0.1946
      5 C          -3.0577    4.1053   20.0882 C.ar    1  UNL1        0.2255
      6 N          -1.7367    4.2228   19.3874 N.ar    1  UNL1       -0.1607
      7 C          -1.8722    3.4670   23.8215 C.2     1  UNL1        0.0334
      8 C          -0.6744    2.8978   24.5222 C.2     1  UNL1        0.0502
      9 C          -0.7195    2.6459   26.0002 C.2     1  UNL1        0.2355
     10 N          -1.9626    2.9632   26.7775 N.2     1  UNL1       -0.0341
     11 C          -3.1604    3.5325   26.0768 C.2     1  UNL1        0.3594
     12 N          -4.5146    3.9414   26.5756 N.2     1  UNL1       -0.0344
     13 C          -5.3065    4.4461   25.4058 C.2     1  UNL1        0.2320
     14 C          -4.4416    4.3490   24.1841 C.2     1  UNL1        0.0409
     15 C          -3.1153    3.7844   24.5988 C.3     1  UNL1        0.1630
     16 N          -4.3335    4.2398   19.3110 N.pl3   1  UNL1       -0.2729
     17 C          -4.4268    5.2297   18.1878 C.3     1  UNL1        0.1257
     18 C          -5.7027    5.3641   17.4105 C.3     1  UNL1        0.1637
     19 O          -6.8852    4.5087   17.7565 O.3     1  UNL1       -0.3501
     20 C          -6.7920    3.5189   18.8797 C.3     1  UNL1        0.1637
     21 C          -5.5162    3.3844   19.6569 C.3     1  UNL1        0.1257
     22 O           0.8602    4.2057   19.4640 O.3     1  UNL1       -0.4222
     23 C           3.0371    0.5000   18.1302 C.ar    1  UNL1        0.0538
     24 C           1.5563    0.4563   18.3653 C.ar    1  UNL1        0.0076
     25 C           0.8306    1.6915   18.8099 C.ar    1  UNL1        0.0378
     26 C           1.5858    2.9705   19.0194 C.ar    1  UNL1        0.1487
     27 C           3.0666    3.0142   18.7842 C.ar    1  UNL1        0.0378
     28 C           3.7923    1.7790   18.3396 C.ar    1  UNL1        0.0076
     29 C           5.1182   -2.8768   18.2568 C.3     1  UNL1        0.1152
     30 N           4.3926   -1.6416   18.7014 N.am    1  UNL1       -0.2726
     31 C           4.2970   -1.3126   20.1617 C.3     1  UNL1        0.1152
     32 C           3.7626   -0.7352   17.6856 C.2     1  UNL1        0.2491
     33 O           3.8583   -1.0642   16.2253 O.2     1  UNL1       -0.2699
@<TRIPOS>BOND
     1    29    30    1
     2    30    31    1
     3    30    32   am
     4    32    33    2
     5    32    23    1
     6    23    24   ar
     7    24    25   ar
     8    25    26   ar
     9    26    22    1
    10    22     1    1
    11     1     2   ar
    12     2     3   ar
    13     3     7    1
    14     7     8    2
    15     8     9    1
    16     9    10    2
    17    10    11    1
    18    11    12    2
    19    12    13    1
    20    13    14    2
    21    14    15    1
    22     3     4   ar
    23     4     5   ar
    24     5    16    1
    25    16    17    1
    26    17    18    1
    27    18    19    1
    28    19    20    1
    29    20    21    1
    30     5     6   ar
    31    26    27   ar
    32    27    28   ar
    33    28    23   ar
    34     6     1   ar
    35    15     7    1
    36    21    16    1
    37    15    11    1
@<TRIPOS>MOLECULE
*****
 33 37 0 0 0
SMALL
GASTEIGER

@<TRIPOS>ATOM
      1 C          -1.0610    3.2161   21.9958 C.ar    1  UNL1        0.3283
      2 N          -0.4532    2.9274   23.3363 N.ar    1  UNL1       -0.1750
      3 C          -1.2934    3.0172   24.5758 C.ar    1  UNL1        0.1668
      4 N          -2.7413    3.3956   24.4746 N.ar    1  UNL1       -0.1946
      5 C          -3.3491    3.6843   23.1339 C.ar    1  UNL1        0.2255
      6 N          -2.5090    3.5945   21.8945 N.ar    1  UNL1       -0.1607
      7 C          -0.6855    2.7285   25.9164 C.2     1  UNL1        0.0334
      8 C          -0.2770    1.3289   26.2689 C.2     1  UNL1        0.0502
      9 C           0.3308    1.0402   27.6094 C.2     1  UNL1        0.2355
     10 N           0.5302    2.1511   28.5975 N.2     1  UNL1       -0.0341
     11 C           0.1217    3.5507   28.2450 C.2     1  UNL1        0.3594
     12 N           0.1948    4.8399   29.0082 N.2     1  UNL1       -0.0344
     13 C          -0.3680    5.9254   28.1393 C.2     1  UNL1        0.2320
     14 C          -0.7888    5.3071   26.8390 C.2     1  UNL1        0.0409
     15 C          -0.4861    3.8394   26.9044 C.3     1  UNL1        0.1630
     16 N          -4.7970    4.0627   23.0328 N.pl3   1  UNL1       -0.2729
     17 C          -5.4466    4.1906   21.6867 C.3     1  UNL1        0.1257
     18 C          -6.8946    4.5690   21.5856 C.3     1  UNL1        0.1637
     19 O          -7.6929    4.8195   22.8304 O.3     1  UNL1       -0.3501
     20 C          -7.0434    4.6916   24.1765 C.3     1  UNL1        0.1637
     21 C          -5.5955    4.3132   24.2776 C.3     1  UNL1        0.1257
     22 O          -0.2209    3.1264   20.7563 O.3     1  UNL1       -0.4222
     23 C           2.5862   -0.3445   20.1872 C.ar    1  UNL1        0.0538
     24 C           3.1333    1.0279   20.4466 C.ar    1  UNL1        0.0076
     25 C           2.1976    2.1849   20.6363 C.ar    1  UNL1        0.0378
     26 C           0.7148    1.9694   20.5666 C.ar    1  UNL1        0.1487
     27 C           0.1677    0.5971   20.3073 C.ar    1  UNL1        0.0378
     28 C           1.1033   -0.5599   20.1176 C.ar    1  UNL1        0.0076
     29 C           5.0321   -2.9436   18.4519 C.3     1  UNL1        0.1152
     30 N           4.0965   -1.7868   18.6416 N.am    1  UNL1       -0.2726
     31 C           3.7353   -0.9152   17.4755 C.3     1  UNL1        0.1152
     32 C           3.5218   -1.5014   19.9975 C.2     1  UNL1        0.2491
     33 O           3.8829   -2.3729   21.1637 O.2     1  UNL1       -0.2699
@<TRIPOS>BOND
     1    29    30    1
     2    30    31    1
     3    30    32   am
     4    32    33    2
     5    32    23    1
     6    23    24   ar
     7    24    25   ar
     8    25    26   ar
     9    26    22    1
    10    22     1    1
    11     1     2   ar
    12     2     3   ar
    13     3     7    1
    14     7     8    2
    15     8     9    1
    16     9    10    2
    17    10    11    1
    18    11    12    2
    19    12    13    1
    20    13    14    2
    21    14    15    1
    22     3     4   ar
    23     4     5   ar
    24     5    16    1
    25    16    17    1
    26    17    18    1
    27    18    19    1
    28    19    20    1
    29    20    21    1
    30     5     6   ar
    31    26    27   ar
    32    27    28   ar
    33    28    23   ar
    34     6     1   ar
    35    15     7    1
    36    21    16    1
    37    15    11    1
@<TRIPOS>MOLECULE
*****
 33 37 0 0 0
SMALL
GASTEIGER

@<TRIPOS>ATOM
      1 C          -0.4604    2.8325   22.7108 C.ar    1  UNL1        0.3283
      2 N           0.4244    2.5026   23.8761 N.ar    1  UNL1       -0.1750
      3 C          -0.0888    2.6626   25.2766 C.ar    1  UNL1        0.1668
      4 N          -1.4869    3.1525   25.5116 N.ar    1  UNL1       -0.1946
      5 C          -2.3718    3.4824   24.3461 C.ar    1  UNL1        0.2255
      6 N          -1.8586    3.3225   22.9458 N.ar    1  UNL1       -0.1607
      7 C           0.7961    2.3327   26.4419 C.2     1  UNL1        0.0334
      8 C           2.1581    2.9521   26.5484 C.2     1  UNL1        0.0502
      9 C           3.0430    2.6222   27.7137 C.2     1  UNL1        0.2355
     10 N           2.5660    1.6728   28.7726 N.2     1  UNL1       -0.0341
     11 C           1.2040    1.0534   28.6661 C.2     1  UNL1        0.3594
     12 N           0.4677    0.0901   29.5492 N.2     1  UNL1       -0.0344
     13 C          -0.8723   -0.1754   28.9296 C.2     1  UNL1        0.2320
     14 C          -0.9642    0.6239   27.6636 C.2     1  UNL1        0.0409
     15 C           0.3191    1.3833   27.5008 C.3     1  UNL1        0.1630
     16 N          -3.7699    3.9724   24.5811 N.pl3   1  UNL1       -0.2729
     17 C          -4.8077    3.8217   23.5085 C.3     1  UNL1        0.1257
     18 C          -6.2059    4.3116   23.7436 C.3     1  UNL1        0.1637
     19 O          -6.5662    4.9522   25.0512 O.3     1  UNL1       -0.3501
     20 C          -5.5285    5.1029   26.1237 C.3     1  UNL1        0.1637
     21 C          -4.1303    4.6130   25.8887 C.3     1  UNL1        0.1257
     22 O           0.0527    2.6725   21.3105 O.3     1  UNL1       -0.4222
     23 C           2.7797   -0.7591   20.2917 C.ar    1  UNL1        0.0538
     24 C           3.3556    0.5375   20.7786 C.ar    1  UNL1        0.0076
     25 C           2.4466    1.6814   21.1182 C.ar    1  UNL1        0.0378
     26 C           0.9617    1.5287   20.9709 C.ar    1  UNL1        0.1487
     27 C           0.3858    0.2320   20.4841 C.ar    1  UNL1        0.0378
     28 C           1.2947   -0.9119   20.1445 C.ar    1  UNL1        0.0076
     29 C           5.1730   -3.1633   18.2322 C.3     1  UNL1        0.1152
     30 N           4.2641   -2.0195   18.5718 N.am    1  UNL1       -0.2726
     31 C           3.9305   -0.9920   17.5311 C.3     1  UNL1        0.1152
     32 C           3.6886   -1.9030   19.9522 C.2     1  UNL1        0.2491
     33 O           4.0222   -2.9304   20.9929 O.2     1  UNL1       -0.2699
@<TRIPOS>BOND
     1    29    30    1
     2    30    31    1
     3    30    32   am
     4    32    33    2
     5    32    23    1
     6    23    24   ar
     7    24    25   ar
     8    25    26   ar
     9    26    22    1
    10    22     1    1
    11     1     2   ar
    12     2     3   ar
    13     3     7    1
    14     7     8    2
    15     8     9    1
    16     9    10    2
    17    10    11    1
    18    11    12    2
    19    12    13    1
    20    13    14    2
    21    14    15    1
    22     3     4   ar
    23     4     5   ar
    24     5    16    1
    25    16    17    1
    26    17    18    1
    27    18    19    1
    28    19    20    1
    29    20    21    1
    30     5     6   ar
    31    26    27   ar
    32    27    28   ar
    33    28    23   ar
    34     6     1   ar
    35    15     7    1
    36    21    16    1
    37    15    11    1
@<TRIPOS>MOLECULE
*****
 33 37 0 0 0
SMALL
GASTEIGER

@<TRIPOS>ATOM
      1 C          -0.5598    2.7388   23.0877 C.ar    1  UNL1        0.3283
      2 N           0.1229    1.9882   24.1923 N.ar    1  UNL1       -0.1750
      3 C          -0.4455    2.0148   25.5802 C.ar    1  UNL1        0.1668
      4 N          -1.6966    2.7922   25.8635 N.ar    1  UNL1       -0.1946
      5 C          -2.3794    3.5428   24.7588 C.ar    1  UNL1        0.2255
      6 N          -1.8111    3.5162   23.3709 N.ar    1  UNL1       -0.1607
      7 C           0.2374    1.2641   26.6849 C.2     1  UNL1        0.0334
      8 C          -0.5777    0.5749   27.7388 C.2     1  UNL1        0.0502
      9 C           0.1051   -0.1757   28.8433 C.2     1  UNL1        0.2355
     10 N           1.6031   -0.2373   28.8941 N.2     1  UNL1       -0.0341
     11 C           2.4181    0.4519   27.8402 C.2     1  UNL1        0.3594
     12 N           3.8991    0.5646   27.6308 N.2     1  UNL1       -0.0344
     13 C           4.1316    1.3849   26.3967 C.2     1  UNL1        0.2320
     14 C           2.7943    1.7792   25.8434 C.2     1  UNL1        0.0409
     15 C           1.7352    1.2026   26.7356 C.3     1  UNL1        0.1630
     16 N          -3.6306    4.3202   25.0420 N.pl3   1  UNL1       -0.2729
     17 C          -4.9452    3.8522   24.4915 C.3     1  UNL1        0.1257
     18 C          -6.1964    4.6296   24.7748 C.3     1  UNL1        0.1637
     19 O          -6.1330    5.8749   25.6085 O.3     1  UNL1       -0.3501
     20 C          -4.8185    6.3429   26.1590 C.3     1  UNL1        0.1637
     21 C          -3.5673    5.5656   25.8757 C.3     1  UNL1        0.1257
     22 O           0.0085    2.7121   21.6998 O.3     1  UNL1       -0.4222
     23 C           2.7369   -0.6410   20.4497 C.ar    1  UNL1        0.0538
     24 C           1.2569   -0.7591   20.2362 C.ar    1  UNL1        0.0076
     25 C           0.3473    0.3586   20.6529 C.ar    1  UNL1        0.0378
     26 C           0.9179    1.5944   21.2831 C.ar    1  UNL1        0.1487
     27 C           2.3980    1.7125   21.4965 C.ar    1  UNL1        0.0378
     28 C           3.3074    0.5949   21.0799 C.ar    1  UNL1        0.0076
     29 C           5.1082   -2.9136   18.2222 C.3     1  UNL1        0.1152
     30 N           4.1988   -1.7960   18.6389 N.am    1  UNL1       -0.2726
     31 C           3.8419   -0.7155   17.6616 C.3     1  UNL1        0.1152
     32 C           3.6463   -1.7587   20.0330 C.2     1  UNL1        0.2491
     33 O           4.0032   -2.8391   21.0103 O.2     1  UNL1       -0.2699
@<TRIPOS>BOND
     1    29    30    1
     2    30    31    1
     3    30    32   am
     4    32    33    2
     5    32    23    1
     6    23    24   ar
     7    24    25   ar
     8    25    26   ar
     9    26    22    1
    10    22     1    1
    11     1     2   ar
    12     2     3   ar
    13     3     7    1
    14     7     8    2
    15     8     9    1
    16     9    10    2
    17    10    11    1
    18    11    12    2
    19    12    13    1
    20    13    14    2
    21    14    15    1
    22     3     4   ar
    23     4     5   ar
    24     5    16    1
    25    16    17    1
    26    17    18    1
    27    18    19    1
    28    19    20    1
    29    20    21    1
    30     5     6   ar
    31    26    27   ar
    32    27    28   ar
    33    28    23   ar
    34     6     1   ar
    35    15     7    1
    36    21    16    1
    37    15    11    1
@<TRIPOS>MOLECULE
*****
 33 37 0 0 0
SMALL
GASTEIGER

@<TRIPOS>ATOM
      1 C          -0.4880    2.6113   20.4672 C.ar    1  UNL1        0.3283
      2 N           0.3731    2.8686   21.6681 N.ar    1  UNL1       -0.1750
      3 C          -0.2373    3.4115   22.9262 C.ar    1  UNL1        0.1668
      4 N          -1.7087    3.6972   22.9833 N.ar    1  UNL1       -0.1946
      5 C          -2.5698    3.4398   21.7823 C.ar    1  UNL1        0.2255
      6 N          -1.9595    2.8969   20.5243 N.ar    1  UNL1       -0.1607
      7 C           0.6239    3.6688   24.1272 C.2     1  UNL1        0.0334
      8 C           1.6251    4.7855   24.1067 C.2     1  UNL1        0.0502
      9 C           2.4862    5.0428   25.3076 C.2     1  UNL1        0.2355
     10 N           2.3462    4.1834   26.5290 N.2     1  UNL1       -0.0341
     11 C           1.3449    3.0667   26.5495 C.2     1  UNL1        0.3594
     12 N           0.9843    2.0612   27.6025 N.2     1  UNL1       -0.0344
     13 C          -0.0997    1.1824   27.0523 C.2     1  UNL1        0.2320
     14 C          -0.4090    1.6448   25.6593 C.2     1  UNL1        0.0409
     15 C           0.4838    2.8094   25.3485 C.3     1  UNL1        0.1630
     16 N          -4.0412    3.7254   21.8394 N.pl3   1  UNL1       -0.2729
     17 C          -4.7527    3.7350   23.1600 C.3     1  UNL1        0.1257
     18 C          -6.2242    4.0206   23.2171 C.3     1  UNL1        0.1637
     19 O          -6.9841    4.2967   21.9537 O.3     1  UNL1       -0.3501
     20 C          -6.2727    4.2872   20.6332 C.3     1  UNL1        0.1637
     21 C          -4.8012    4.0015   20.5761 C.3     1  UNL1        0.1257
     22 O           0.1223    2.0683   19.2091 O.3     1  UNL1       -0.4222
     23 C           3.1083   -1.2914   19.4248 C.ar    1  UNL1        0.0538
     24 C           1.9401   -1.2647   20.3653 C.ar    1  UNL1        0.0076
     25 C           0.9448   -0.1448   20.2935 C.ar    1  UNL1        0.0378
     26 C           1.1176    0.9484   19.2810 C.ar    1  UNL1        0.1487
     27 C           2.2859    0.9217   18.3405 C.ar    1  UNL1        0.0378
     28 C           3.2812   -0.1981   18.4123 C.ar    1  UNL1        0.0076
     29 C           6.3482   -3.3730   20.3836 C.3     1  UNL1        0.1152
     30 N           5.3530   -2.2532   20.3117 N.am    1  UNL1       -0.2726
     31 C           5.6069   -0.9752   21.0548 C.3     1  UNL1        0.1152
     32 C           4.1036   -2.4112   19.4967 C.2     1  UNL1        0.2491
     33 O           3.8497   -3.6892   18.7536 O.2     1  UNL1       -0.2699
@<TRIPOS>BOND
     1    29    30    1
     2    30    31    1
     3    30    32   am
     4    32    33    2
     5    32    23    1
     6    23    24   ar
     7    24    25   ar
     8    25    26   ar
     9    26    22    1
    10    22     1    1
    11     1     2   ar
    12     2     3   ar
    13     3     7    1
    14     7     8    2
    15     8     9    1
    16     9    10    2
    17    10    11    1
    18    11    12    2
    19    12    13    1
    20    13    14    2
    21    14    15    1
    22     3     4   ar
    23     4     5   ar
    24     5    16    1
    25    16    17    1
    26    17    18    1
    27    18    19    1
    28    19    20    1
    29    20    21    1
    30     5     6   ar
    31    26    27   ar
    32    27    28   ar
    33    28    23   ar
    34     6     1   ar
    35    15     7    1
    36    21    16    1
    37    15    11    1
@<TRIPOS>MOLECULE
*****
 33 37 0 0 0
SMALL
GASTEIGER

@<TRIPOS>ATOM
      1 C           6.5939   -2.9484   25.1068 C.ar    1  UNL1        0.3283
      2 N           5.4808   -1.9544   24.9558 N.ar    1  UNL1       -0.1750
      3 C           4.6692   -1.5499   26.1507 C.ar    1  UNL1        0.1668
      4 N           4.9707   -2.1394   27.4966 N.ar    1  UNL1       -0.1946
      5 C           6.0839   -3.1335   27.6476 C.ar    1  UNL1        0.2255
      6 N           6.8955   -3.5380   26.4527 N.ar    1  UNL1       -0.1607
      7 C           3.5561   -0.5558   25.9996 C.2     1  UNL1        0.0334
      8 C           3.0046    0.1419   27.2075 C.2     1  UNL1        0.0502
      9 C           1.8915    1.1359   27.0565 C.2     1  UNL1        0.2355
     10 N           1.3299    1.4324   25.6975 N.2     1  UNL1       -0.0341
     11 C           1.8814    0.7347   24.4896 C.2     1  UNL1        0.3594
     12 N           1.5318    0.8215   23.0335 N.2     1  UNL1       -0.0344
     13 C           2.4289   -0.1189   22.2847 C.2     1  UNL1        0.2320
     14 C           3.3329   -0.7870   23.2779 C.2     1  UNL1        0.0409
     15 C           2.9945   -0.2594   24.6407 C.3     1  UNL1        0.1630
     16 N           6.3854   -3.7231   28.9935 N.pl3   1  UNL1       -0.2729
     17 C           6.4100   -2.8442   30.2089 C.3     1  UNL1        0.1257
     18 C           6.7115   -3.4338   31.5548 C.3     1  UNL1        0.1637
     19 O           6.9885   -4.9022   31.6853 O.3     1  UNL1       -0.3501
     20 C           6.9639   -5.7811   30.4700 C.3     1  UNL1        0.1637
     21 C           6.6624   -5.1915   29.1241 C.3     1  UNL1        0.1257
     22 O           7.4055   -3.3529   23.9119 O.3     1  UNL1       -0.4222
     23 C           6.0969   -2.1287   19.7840 C.ar    1  UNL1        0.0538
     24 C           5.6904   -3.4634   20.3347 C.ar    1  UNL1        0.0076
     25 C           6.1266   -3.8716   21.7107 C.ar    1  UNL1        0.0378
     26 C           6.9693   -2.9449   22.5360 C.ar    1  UNL1        0.1487
     27 C           7.3758   -1.6102   21.9853 C.ar    1  UNL1        0.0378
     28 C           6.9397   -1.2020   20.6094 C.ar    1  UNL1        0.0076
     29 C           3.7996   -0.9150   16.7842 C.3     1  UNL1        0.1152
     30 N           4.2358   -1.3231   18.1601 N.am    1  UNL1       -0.2726
     31 C           3.2471   -1.3335   19.2881 C.3     1  UNL1        0.1152
     32 C           5.6608   -1.7207   18.4082 C.2     1  UNL1        0.2491
     33 O           6.6495   -1.7103   17.2802 O.2     1  UNL1       -0.2699
@<TRIPOS>BOND
     1    29    30    1
     2    30    31    1
     3    30    32   am
     4    32    33    2
     5    32    23    1
     6    23    24   ar
     7    24    25   ar
     8    25    26   ar
     9    26    22    1
    10    22     1    1
    11     1     2   ar
    12     2     3   ar
    13     3     7    1
    14     7     8    2
    15     8     9    1
    16     9    10    2
    17    10    11    1
    18    11    12    2
    19    12    13    1
    20    13    14    2
    21    14    15    1
    22     3     4   ar
    23     4     5   ar
    24     5    16    1
    25    16    17    1
    26    17    18    1
    27    18    19    1
    28    19    20    1
    29    20    21    1
    30     5     6   ar
    31    26    27   ar
    32    27    28   ar
    33    28    23   ar
    34     6     1   ar
    35    15     7    1
    36    21    16    1
    37    15    11    1
@<TRIPOS>MOLECULE
*****
 33 37 0 0 0
SMALL
GASTEIGER

@<TRIPOS>ATOM
      1 C           6.6926   -4.2393   23.4249 C.ar    1  UNL1        0.3283
      2 N           6.1105   -3.0032   24.0437 N.ar    1  UNL1       -0.1750
      3 C           6.0908   -2.8494   25.5358 C.ar    1  UNL1        0.1668
      4 N           6.6532   -3.9317   26.4088 N.ar    1  UNL1       -0.1946
      5 C           7.2353   -5.1679   25.7899 C.ar    1  UNL1        0.2255
      6 N           7.2551   -5.3217   24.2979 N.ar    1  UNL1       -0.1607
      7 C           5.5087   -1.6132   26.1546 C.2     1  UNL1        0.0334
      8 C           6.0849   -1.0695   27.4284 C.2     1  UNL1        0.0502
      9 C           5.5028    0.1666   28.0472 C.2     1  UNL1        0.2355
     10 N           4.3444    0.8591   27.3924 N.2     1  UNL1       -0.0341
     11 C           3.7682    0.3154   26.1187 C.2     1  UNL1        0.3594
     12 N           2.6359    0.7791   25.2510 N.2     1  UNL1       -0.0344
     13 C           2.5183   -0.1705   24.0959 C.2     1  UNL1        0.2320
     14 C           3.5778   -1.2211   24.2496 C.2     1  UNL1        0.0409
     15 C           4.3504   -0.9208   25.4998 C.3     1  UNL1        0.1630
     16 N           7.7978   -6.2502   26.6629 N.pl3   1  UNL1       -0.2729
     17 C           7.8394   -7.6662   26.1694 C.3     1  UNL1        0.1257
     18 C           8.4019   -8.7485   27.0426 C.3     1  UNL1        0.1637
     19 O           8.9226   -8.4148   28.4091 O.3     1  UNL1       -0.3501
     20 C           8.8809   -6.9990   28.9026 C.3     1  UNL1        0.1637
     21 C           8.3185   -5.9167   28.0295 C.3     1  UNL1        0.1257
     22 O           6.7123   -4.3932   21.9329 O.3     1  UNL1       -0.4222
     23 C           4.1733   -1.7122   19.3607 C.ar    1  UNL1        0.0538
     24 C           3.6813   -3.0792   19.7337 C.ar    1  UNL1        0.0076
     25 C           4.5276   -3.9730   20.5911 C.ar    1  UNL1        0.0378
     26 C           5.8660   -3.4996   21.0755 C.ar    1  UNL1        0.1487
     27 C           6.3580   -2.1325   20.7026 C.ar    1  UNL1        0.0378
     28 C           5.5118   -1.2388   19.8452 C.ar    1  UNL1        0.0076
     29 C           1.2880    0.7688   18.2343 C.3     1  UNL1        0.1152
     30 N           2.1343   -0.1248   19.0917 N.am    1  UNL1       -0.2726
     31 C           1.7880   -0.3246   20.5374 C.3     1  UNL1        0.1152
     32 C           3.3271   -0.8186   18.5034 C.2     1  UNL1        0.2491
     33 O           3.6734   -0.6187   17.0577 O.2     1  UNL1       -0.2699
@<TRIPOS>BOND
     1    29    30    1
     2    30    31    1
     3    30    32   am
     4    32    33    2
     5    32    23    1
     6    23    24   ar
     7    24    25   ar
     8    25    26   ar
     9    26    22    1
    10    22     1    1
    11     1     2   ar
    12     2     3   ar
    13     3     7    1
    14     7     8    2
    15     8     9    1
    16     9    10    2
    17    10    11    1
    18    11    12    2
    19    12    13    1
    20    13    14    2
    21    14    15    1
    22     3     4   ar
    23     4     5   ar
    24     5    16    1
    25    16    17    1
    26    17    18    1
    27    18    19    1
    28    19    20    1
    29    20    21    1
    30     5     6   ar
    31    26    27   ar
    32    27    28   ar
    33    28    23   ar
    34     6     1   ar
    35    15     7    1
    36    21    16    1
    37    15    11    1
@<TRIPOS>MOLECULE
*****
 33 37 0 0 0
SMALL
GASTEIGER

@<TRIPOS>ATOM
      1 C          -0.5417    3.7437   20.8602 C.ar    1  UNL1        0.3283
      2 N           0.0436    3.2894   22.1643 N.ar    1  UNL1       -0.1750
      3 C          -0.8406    3.1167   23.3637 C.ar    1  UNL1        0.1668
      4 N          -2.3102    3.3983   23.2589 N.ar    1  UNL1       -0.1946
      5 C          -2.8955    3.8527   21.9546 C.ar    1  UNL1        0.2255
      6 N          -2.0114    4.0254   20.7553 N.ar    1  UNL1       -0.1607
      7 C          -0.2552    2.6623   24.6679 C.2     1  UNL1        0.0334
      8 C          -0.7986    3.1957   25.9602 C.2     1  UNL1        0.0502
      9 C          -0.2132    2.7414   27.2643 C.2     1  UNL1        0.2355
     10 N           0.9156    1.7535   27.2762 N.2     1  UNL1       -0.0341
     11 C           1.4589    1.2201   25.9838 C.2     1  UNL1        0.3594
     12 N           2.5580    0.2444   25.6837 N.2     1  UNL1       -0.0344
     13 C           2.6518    0.0957   24.1941 C.2     1  UNL1        0.2320
     14 C           1.6108    0.9796   23.5735 C.2     1  UNL1        0.0409
     15 C           0.8735    1.6745   24.6797 C.3     1  UNL1        0.1630
     16 N          -4.3651    4.1344   21.8498 N.pl3   1  UNL1       -0.2729
     17 C          -5.2253    4.0979   23.0782 C.3     1  UNL1        0.1257
     18 C          -6.6950    4.3796   22.9733 C.3     1  UNL1        0.1637
     19 O          -7.3043    4.6978   21.6401 O.3     1  UNL1       -0.3501
     20 C          -6.4441    4.7343   20.4118 C.3     1  UNL1        0.1637
     21 C          -4.9746    4.4526   20.5166 C.3     1  UNL1        0.1257
     22 O           0.3424    3.9164   19.6609 O.3     1  UNL1       -0.4222
     23 C           2.8696    0.4850   18.2156 C.ar    1  UNL1        0.0538
     24 C           1.4527    0.2442   18.6451 C.ar    1  UNL1        0.0076
     25 C           0.6103    1.3880   19.1269 C.ar    1  UNL1        0.0378
     26 C           1.1848    2.7726   19.1791 C.ar    1  UNL1        0.1487
     27 C           2.6016    3.0134   18.7496 C.ar    1  UNL1        0.0378
     28 C           3.4440    1.8697   18.2678 C.ar    1  UNL1        0.0076
     29 C           5.3423   -2.6190   18.2332 C.3     1  UNL1        0.1152
     30 N           4.5000   -1.4753   18.7149 N.am    1  UNL1       -0.2726
     31 C           4.4456   -1.1478   20.1777 C.3     1  UNL1        0.1152
     32 C           3.7119   -0.6588   17.7339 C.2     1  UNL1        0.2491
     33 O           3.7663   -0.9862   16.2711 O.2     1  UNL1       -0.2699
@<TRIPOS>BOND
     1    29    30    1
     2    30    31    1
     3    30    32   am
     4    32    33    2
     5    32    23    1
     6    23    24   ar
     7    24    25   ar
     8    25    26   ar
     9    26    22    1
    10    22     1    1
    11     1     2   ar
    12     2     3   ar
    13     3     7    1
    14     7     8    2
    15     8     9    1
    16     9    10    2
    17    10    11    1
    18    11    12    2
    19    12    13    1
    20    13    14    2
    21    14    15    1
    22     3     4   ar
    23     4     5   ar
    24     5    16    1
    25    16    17    1
    26    17    18    1
    27    18    19    1
    28    19    20    1
    29    20    21    1
    30     5     6   ar
    31    26    27   ar
    32    27    28   ar
    33    28    23   ar
    34     6     1   ar
    35    15     7    1
    36    21    16    1
    37    15    11    1
