@<TRIPOS>MOLECULE
*****
 31 34 0 0 0
SMALL
GASTEIGER

@<TRIPOS>ATOM
      1 N          -7.7833  -19.3507   21.3157 N.3     1  UNL1       -0.2644
      2 C          -8.5839  -19.0310   22.5432 C.3     1  UNL1        0.0981
      3 C          -9.5874  -20.0177   23.0622 C.3     1  UNL1        0.0224
      4 C         -10.3880  -19.6980   24.2897 C.3     1  UNL1        0.0065
      5 C         -10.1851  -18.3916   24.9983 C.3     1  UNL1        0.0277
      6 C          -9.1816  -17.4049   24.4793 C.ar    1  UNL1       -0.0073
      7 C          -8.9786  -16.0985   25.1879 C.ar    1  UNL1       -0.0015
      8 C          -7.9751  -15.1118   24.6690 C.ar    1  UNL1        0.0203
      9 C          -7.1745  -15.4315   23.4415 C.ar    1  UNL1        0.0985
     10 N          -7.3774  -16.7378   22.7329 N.ar    1  UNL1       -0.2471
     11 C          -8.3810  -17.7246   23.2518 C.ar    1  UNL1        0.0695
     12 C          -8.2766  -18.9215   19.9657 C.3     1  UNL1        0.0949
     13 C          -9.0188  -20.8767   18.4242 C.3     1  UNL1        0.0275
     14 C          -9.3644  -19.6968   19.2834 C.2     1  UNL1       -0.0309
     15 C         -10.7980  -19.2921   19.4603 C.2     1  UNL1       -0.0164
     16 C         -11.1436  -18.1122   20.3196 C.3     1  UNL1        0.0913
     17 N         -11.8981  -16.9547   19.7358 N.3     1  UNL1       -0.3175
     18 H         -11.3205  -16.4915   19.0341 H       1  UNL1        0.1192
     19 H         -12.1305  -16.2923   20.4758 H       1  UNL1        0.1192
     20 C          -6.4894  -20.0996   21.4381 C.3     1  UNL1        0.0888
     21 C          -5.1879  -19.3538   21.4344 C.3     1  UNL1        0.0748
     22 C          -4.3546  -19.3057   20.1881 C.3     1  UNL1        0.0432
     23 C          -3.0531  -18.5599   20.1843 C.ar    1  UNL1       -0.0234
     24 C          -2.2198  -18.5119   18.9380 C.ar    1  UNL1       -0.0045
     25 C          -0.9184  -17.7661   18.9343 C.ar    1  UNL1       -0.0003
     26 C          -0.4503  -17.0684   20.1769 C.ar    1  UNL1       -0.0003
     27 C          -1.2835  -17.1164   21.4232 C.ar    1  UNL1       -0.0032
     28 C          -2.5850  -17.8622   21.4269 C.ar    1  UNL1       -0.0103
     29 C          -3.4183  -17.9103   22.6732 C.3     1  UNL1        0.0953
     30 N          -4.7198  -18.6560   22.6769 N.3     1  UNL1       -0.2934
     31 H          -5.4441  -17.9830   22.9273 H       1  UNL1        0.1236
@<TRIPOS>BOND
     1    13    14    1
     2    14    15    2
     3    15    16    1
     4    16    17    1
     5    14    12    1
     6    12     1    1
     7     1    20    1
     8    21    20    1
     9    21    22    1
    10    22    23    1
    11    23    24   ar
    12    24    25   ar
    13    25    26   ar
    14    26    27   ar
    15    27    28   ar
    16    28    29    1
    17    29    30    1
    18     2     1    1
    19     2     3    1
    20     3     4    1
    21     4     5    1
    22     5     6    1
    23     6     7   ar
    24     7     8   ar
    25     8     9   ar
    26     9    10   ar
    27    10    11   ar
    28    30    21    1
    29    11     2    1
    30    28    23   ar
    31    11     6   ar
    32    17    18    1
    33    17    19    1
    34    30    31    1
@<TRIPOS>MOLECULE
*****
 31 34 0 0 0
SMALL
GASTEIGER

@<TRIPOS>ATOM
      1 N          -8.2837  -17.7666   22.9927 N.3     1  UNL1       -0.2644
      2 C          -9.7704  -17.8837   23.1541 C.3     1  UNL1        0.0981
      3 C         -10.3417  -18.6019   24.3405 C.3     1  UNL1        0.0224
      4 C         -11.8284  -18.7191   24.5019 C.3     1  UNL1        0.0065
      5 C         -12.7438  -18.1180   23.4769 C.3     1  UNL1        0.0277
      6 C         -12.1725  -17.3997   22.2904 C.ar    1  UNL1       -0.0073
      7 C         -13.0878  -16.7985   21.2653 C.ar    1  UNL1       -0.0015
      8 C         -12.5165  -16.0803   20.0789 C.ar    1  UNL1        0.0203
      9 C         -11.0298  -15.9631   19.9175 C.ar    1  UNL1        0.0985
     10 N         -10.1145  -16.5643   20.9426 N.ar    1  UNL1       -0.2471
     11 C         -10.6858  -17.2826   22.1291 C.ar    1  UNL1        0.0695
     12 C          -7.6213  -16.4249   23.0982 C.3     1  UNL1        0.0949
     13 C          -8.5932  -15.6165   25.3679 C.3     1  UNL1        0.0275
     14 C          -7.4254  -15.7888   24.4424 C.2     1  UNL1       -0.0309
     15 C          -6.0618  -15.3249   24.8611 C.2     1  UNL1       -0.0164
     16 C          -4.8940  -15.4971   23.9356 C.3     1  UNL1        0.0913
     17 N          -4.6509  -14.5005   22.8414 N.3     1  UNL1       -0.3175
     18 H          -5.4130  -14.5456   22.1649 H       1  UNL1        0.1192
     19 H          -3.7694  -14.7154   22.3753 H       1  UNL1        0.1192
     20 C          -7.4595  -18.9910   22.7258 C.3     1  UNL1        0.0888
     21 C          -6.2514  -18.9037   21.8410 C.3     1  UNL1        0.0748
     22 C          -4.8904  -18.7240   22.4455 C.3     1  UNL1        0.0432
     23 C          -3.6823  -18.6367   21.5607 C.ar    1  UNL1       -0.0234
     24 C          -2.3213  -18.4569   22.1652 C.ar    1  UNL1       -0.0045
     25 C          -1.1133  -18.3697   21.2804 C.ar    1  UNL1       -0.0003
     26 C          -1.2662  -18.4621   19.7911 C.ar    1  UNL1       -0.0003
     27 C          -2.6271  -18.6419   19.1865 C.ar    1  UNL1       -0.0032
     28 C          -3.8352  -18.7291   20.0714 C.ar    1  UNL1       -0.0103
     29 C          -5.1962  -18.9089   19.4669 C.3     1  UNL1        0.0953
     30 N          -6.4043  -18.9962   20.3517 N.3     1  UNL1       -0.2934
     31 H          -6.8480  -19.8936   20.1564 H       1  UNL1        0.1236
@<TRIPOS>BOND
     1    13    14    1
     2    14    15    2
     3    15    16    1
     4    16    17    1
     5    14    12    1
     6    12     1    1
     7     1    20    1
     8    21    20    1
     9    21    22    1
    10    22    23    1
    11    23    24   ar
    12    24    25   ar
    13    25    26   ar
    14    26    27   ar
    15    27    28   ar
    16    28    29    1
    17    29    30    1
    18     2     1    1
    19     2     3    1
    20     3     4    1
    21     4     5    1
    22     5     6    1
    23     6     7   ar
    24     7     8   ar
    25     8     9   ar
    26     9    10   ar
    27    10    11   ar
    28    30    21    1
    29    11     2    1
    30    28    23   ar
    31    11     6   ar
    32    17    18    1
    33    17    19    1
    34    30    31    1
@<TRIPOS>MOLECULE
*****
 31 34 0 0 0
SMALL
GASTEIGER

@<TRIPOS>ATOM
      1 N          -7.6855  -19.5686   21.5893 N.3     1  UNL1       -0.2644
      2 C          -8.4541  -19.1954   22.8222 C.3     1  UNL1        0.0981
      3 C          -9.3417  -20.2054   23.4870 C.3     1  UNL1        0.0224
      4 C         -10.1103  -19.8322   24.7199 C.3     1  UNL1        0.0065
      5 C          -9.9914  -18.4491   25.2879 C.3     1  UNL1        0.0277
      6 C          -9.1038  -17.4391   24.6230 C.ar    1  UNL1       -0.0073
      7 C          -8.9848  -16.0558   25.1910 C.ar    1  UNL1       -0.0015
      8 C          -8.0972  -15.0459   24.5261 C.ar    1  UNL1        0.0203
      9 C          -7.3286  -15.4190   23.2933 C.ar    1  UNL1        0.0985
     10 N          -7.4475  -16.8022   22.7253 N.ar    1  UNL1       -0.2471
     11 C          -8.3352  -17.8123   23.3902 C.ar    1  UNL1        0.0695
     12 C          -8.1682  -19.1230   20.2409 C.3     1  UNL1        0.0949
     13 C         -10.6593  -18.4702   20.5853 C.3     1  UNL1        0.0275
     14 C          -9.6143  -19.2772   19.8734 C.2     1  UNL1       -0.0309
     15 C         -10.0154  -20.2384   18.7938 C.2     1  UNL1       -0.0164
     16 C          -8.9705  -21.0453   18.0819 C.3     1  UNL1        0.0913
     17 N          -9.1909  -21.4708   16.6606 N.3     1  UNL1       -0.3175
     18 H          -9.9708  -22.1269   16.6191 H       1  UNL1        0.1192
     19 H          -8.3477  -21.9222   16.3061 H       1  UNL1        0.1192
     20 C          -6.4340  -20.3875   21.7049 C.3     1  UNL1        0.0888
     21 C          -5.1396  -19.8599   21.1606 C.3     1  UNL1        0.0748
     22 C          -4.4797  -18.6786   21.8080 C.3     1  UNL1        0.0432
     23 C          -3.1852  -18.1511   21.2637 C.ar    1  UNL1       -0.0234
     24 C          -2.5254  -16.9698   21.9111 C.ar    1  UNL1       -0.0045
     25 C          -1.2310  -16.4423   21.3669 C.ar    1  UNL1       -0.0003
     26 C          -0.5965  -17.0961   20.1752 C.ar    1  UNL1       -0.0003
     27 C          -1.2564  -18.2773   19.5279 C.ar    1  UNL1       -0.0032
     28 C          -2.5507  -18.8048   20.0721 C.ar    1  UNL1       -0.0103
     29 C          -3.2107  -19.9861   19.4247 C.3     1  UNL1        0.0953
     30 N          -4.5051  -20.5136   19.9690 N.3     1  UNL1       -0.2934
     31 H          -4.3434  -21.4891   20.2196 H       1  UNL1        0.1236
@<TRIPOS>BOND
     1    13    14    1
     2    14    15    2
     3    15    16    1
     4    16    17    1
     5    14    12    1
     6    12     1    1
     7     1    20    1
     8    21    20    1
     9    21    22    1
    10    22    23    1
    11    23    24   ar
    12    24    25   ar
    13    25    26   ar
    14    26    27   ar
    15    27    28   ar
    16    28    29    1
    17    29    30    1
    18     2     1    1
    19     2     3    1
    20     3     4    1
    21     4     5    1
    22     5     6    1
    23     6     7   ar
    24     7     8   ar
    25     8     9   ar
    26     9    10   ar
    27    10    11   ar
    28    30    21    1
    29    11     2    1
    30    28    23   ar
    31    11     6   ar
    32    17    18    1
    33    17    19    1
    34    30    31    1
@<TRIPOS>MOLECULE
*****
 31 34 0 0 0
SMALL
GASTEIGER

@<TRIPOS>ATOM
      1 N          -9.4053  -17.6370   23.0028 N.3     1  UNL1       -0.2644
      2 C          -8.9503  -17.2662   24.3832 C.3     1  UNL1        0.0981
      3 C          -9.7366  -17.7170   25.5784 C.3     1  UNL1        0.0224
      4 C          -9.2816  -17.3462   26.9588 C.3     1  UNL1        0.0065
      5 C          -8.0404  -16.5247   27.1440 C.3     1  UNL1        0.0277
      6 C          -7.2541  -16.0739   25.9488 C.ar    1  UNL1       -0.0073
      7 C          -6.0128  -15.2524   26.1340 C.ar    1  UNL1       -0.0015
      8 C          -5.2265  -14.8016   24.9388 C.ar    1  UNL1        0.0203
      9 C          -5.6814  -15.1724   23.5584 C.ar    1  UNL1        0.0985
     10 N          -6.9227  -15.9939   23.3732 N.ar    1  UNL1       -0.2471
     11 C          -7.7091  -16.4447   24.5684 C.ar    1  UNL1        0.0695
     12 C         -10.2881  -16.7040   22.2282 C.3     1  UNL1        0.0949
     13 C         -11.2487  -17.1053   19.8478 C.3     1  UNL1        0.0275
     14 C         -11.3612  -17.2542   21.3361 C.2     1  UNL1       -0.0309
     15 C         -12.5468  -17.9534   21.9325 C.2     1  UNL1       -0.0164
     16 C         -12.6593  -18.1023   23.4208 C.3     1  UNL1        0.0913
     17 N         -13.9925  -17.9499   24.0911 N.3     1  UNL1       -0.3175
     18 H         -14.3154  -16.9875   23.9910 H       1  UNL1        0.1192
     19 H         -13.9030  -18.1772   25.0815 H       1  UNL1        0.1192
     20 C          -8.9774  -18.9408   22.3970 C.3     1  UNL1        0.0888
     21 C          -7.6675  -19.0372   21.6725 C.3     1  UNL1        0.0748
     22 C          -6.3881  -19.1479   22.4476 C.3     1  UNL1        0.0432
     23 C          -5.0781  -19.2443   21.7231 C.ar    1  UNL1       -0.0234
     24 C          -3.7987  -19.3550   22.4982 C.ar    1  UNL1       -0.0045
     25 C          -2.4889  -19.4514   21.7736 C.ar    1  UNL1       -0.0003
     26 C          -2.4585  -19.4371   20.2740 C.ar    1  UNL1       -0.0003
     27 C          -3.7379  -19.3263   19.4989 C.ar    1  UNL1       -0.0032
     28 C          -5.0477  -19.2300   20.2234 C.ar    1  UNL1       -0.0103
     29 C          -6.3272  -19.1192   19.4483 C.3     1  UNL1        0.0953
     30 N          -7.6370  -19.0229   20.1729 N.3     1  UNL1       -0.2934
     31 H          -8.2056  -19.8095   19.8593 H       1  UNL1        0.1236
@<TRIPOS>BOND
     1    13    14    1
     2    14    15    2
     3    15    16    1
     4    16    17    1
     5    14    12    1
     6    12     1    1
     7     1    20    1
     8    21    20    1
     9    21    22    1
    10    22    23    1
    11    23    24   ar
    12    24    25   ar
    13    25    26   ar
    14    26    27   ar
    15    27    28   ar
    16    28    29    1
    17    29    30    1
    18     2     1    1
    19     2     3    1
    20     3     4    1
    21     4     5    1
    22     5     6    1
    23     6     7   ar
    24     7     8   ar
    25     8     9   ar
    26     9    10   ar
    27    10    11   ar
    28    30    21    1
    29    11     2    1
    30    28    23   ar
    31    11     6   ar
    32    17    18    1
    33    17    19    1
    34    30    31    1
@<TRIPOS>MOLECULE
*****
 31 34 0 0 0
SMALL
GASTEIGER

@<TRIPOS>ATOM
      1 N          -7.6969  -18.2747   22.5900 N.3     1  UNL1       -0.2644
      2 C          -9.1082  -18.5213   23.0344 C.3     1  UNL1        0.0981
      3 C          -9.3815  -19.4396   24.1885 C.3     1  UNL1        0.0224
      4 C         -10.7928  -19.6861   24.6329 C.3     1  UNL1        0.0065
      5 C         -11.9308  -19.0143   23.9231 C.3     1  UNL1        0.0277
      6 C         -11.6574  -18.0961   22.7691 C.ar    1  UNL1       -0.0073
      7 C         -12.7954  -17.4242   22.0593 C.ar    1  UNL1       -0.0015
      8 C         -12.5221  -16.5059   20.9052 C.ar    1  UNL1        0.0203
      9 C         -11.1108  -16.2594   20.4608 C.ar    1  UNL1        0.0985
     10 N          -9.9728  -16.9312   21.1705 N.ar    1  UNL1       -0.2471
     11 C         -10.2461  -17.8495   22.3247 C.ar    1  UNL1        0.0695
     12 C          -7.1315  -16.8859   22.6246 C.3     1  UNL1        0.0949
     13 C          -4.8487  -16.3135   23.7252 C.3     1  UNL1        0.0275
     14 C          -6.3417  -16.4270   23.8144 C.2     1  UNL1       -0.0309
     15 C          -7.0451  -16.0816   25.0936 C.2     1  UNL1       -0.0164
     16 C          -8.5381  -16.1951   25.1828 C.3     1  UNL1        0.0913
     17 N          -9.4088  -15.1512   24.5486 N.3     1  UNL1       -0.3175
     18 H          -9.2763  -14.2608   25.0281 H       1  UNL1        0.1192
     19 H         -10.3861  -15.4341   24.6207 H       1  UNL1        0.1192
     20 C          -6.8510  -19.4171   22.1111 C.3     1  UNL1        0.0888
     21 C          -5.4063  -19.1917   21.7762 C.3     1  UNL1        0.0748
     22 C          -5.0209  -18.6930   20.4151 C.3     1  UNL1        0.0432
     23 C          -3.5762  -18.4676   20.0801 C.ar    1  UNL1       -0.0234
     24 C          -3.1908  -17.9688   18.7190 C.ar    1  UNL1       -0.0045
     25 C          -1.7462  -17.7435   18.3842 C.ar    1  UNL1       -0.0003
     26 C          -0.6869  -18.0169   19.4104 C.ar    1  UNL1       -0.0003
     27 C          -1.0723  -18.5157   20.7715 C.ar    1  UNL1       -0.0032
     28 C          -2.5169  -18.7410   21.1064 C.ar    1  UNL1       -0.0103
     29 C          -2.9024  -19.2399   22.4675 C.3     1  UNL1        0.0953
     30 N          -4.3470  -19.4652   22.8024 N.3     1  UNL1       -0.2934
     31 H          -4.5580  -18.8757   23.6076 H       1  UNL1        0.1236
@<TRIPOS>BOND
     1    13    14    1
     2    14    15    2
     3    15    16    1
     4    16    17    1
     5    14    12    1
     6    12     1    1
     7     1    20    1
     8    21    20    1
     9    21    22    1
    10    22    23    1
    11    23    24   ar
    12    24    25   ar
    13    25    26   ar
    14    26    27   ar
    15    27    28   ar
    16    28    29    1
    17    29    30    1
    18     2     1    1
    19     2     3    1
    20     3     4    1
    21     4     5    1
    22     5     6    1
    23     6     7   ar
    24     7     8   ar
    25     8     9   ar
    26     9    10   ar
    27    10    11   ar
    28    30    21    1
    29    11     2    1
    30    28    23   ar
    31    11     6   ar
    32    17    18    1
    33    17    19    1
    34    30    31    1
@<TRIPOS>MOLECULE
*****
 31 34 0 0 0
SMALL
GASTEIGER

@<TRIPOS>ATOM
      1 N          -6.4903  -17.2746   22.7107 N.3     1  UNL1       -0.2644
      2 C          -6.0274  -18.4855   21.9560 C.3     1  UNL1        0.0981
      3 C          -7.0064  -19.5623   21.5925 C.3     1  UNL1        0.0224
      4 C          -6.5436  -20.7731   20.8378 C.3     1  UNL1        0.0065
      5 C          -5.1017  -20.9072   20.4466 C.3     1  UNL1        0.0277
      6 C          -4.1228  -19.8305   20.8101 C.ar    1  UNL1       -0.0073
      7 C          -2.6808  -19.9646   20.4189 C.ar    1  UNL1       -0.0015
      8 C          -1.7019  -18.8878   20.7823 C.ar    1  UNL1        0.0203
      9 C          -2.1647  -17.6770   21.5370 C.ar    1  UNL1        0.0985
     10 N          -3.6065  -17.5428   21.9282 N.ar    1  UNL1       -0.2471
     11 C          -4.5856  -18.6196   21.5648 C.ar    1  UNL1        0.0695
     12 C          -5.9760  -17.0118   24.0950 C.3     1  UNL1        0.0949
     13 C          -4.5252  -14.9499   23.4676 C.3     1  UNL1        0.0275
     14 C          -5.4120  -15.6660   24.4426 C.2     1  UNL1       -0.0309
     15 C          -5.7348  -15.0364   25.7653 C.2     1  UNL1       -0.0164
     16 C          -6.6216  -15.7526   26.7403 C.3     1  UNL1        0.0913
     17 N          -7.8733  -15.0938   27.2394 N.3     1  UNL1       -0.3175
     18 H          -7.6278  -14.2775   27.7996 H       1  UNL1        0.1192
     19 H          -8.3996  -15.7536   27.8123 H       1  UNL1        0.1192
     20 C          -7.4674  -16.3266   22.0810 C.3     1  UNL1        0.0888
     21 C          -8.9407  -16.5270   22.2789 C.3     1  UNL1        0.0748
     22 C          -9.4342  -17.4634   23.3417 C.3     1  UNL1        0.0432
     23 C         -10.9076  -17.6638   23.5396 C.ar    1  UNL1       -0.0234
     24 C         -11.4011  -18.6001   24.6024 C.ar    1  UNL1       -0.0045
     25 C         -12.8744  -18.8005   24.8003 C.ar    1  UNL1       -0.0003
     26 C         -13.8542  -18.0645   23.9352 C.ar    1  UNL1       -0.0003
     27 C         -13.3607  -17.1282   22.8724 C.ar    1  UNL1       -0.0032
     28 C         -11.8874  -16.9278   22.6746 C.ar    1  UNL1       -0.0103
     29 C         -11.3939  -15.9914   21.6117 C.3     1  UNL1        0.0953
     30 N          -9.9206  -15.7910   21.4139 N.3     1  UNL1       -0.2934
     31 H          -9.7387  -14.7959   21.5440 H       1  UNL1        0.1236
@<TRIPOS>BOND
     1    13    14    1
     2    14    15    2
     3    15    16    1
     4    16    17    1
     5    14    12    1
     6    12     1    1
     7     1    20    1
     8    21    20    1
     9    21    22    1
    10    22    23    1
    11    23    24   ar
    12    24    25   ar
    13    25    26   ar
    14    26    27   ar
    15    27    28   ar
    16    28    29    1
    17    29    30    1
    18     2     1    1
    19     2     3    1
    20     3     4    1
    21     4     5    1
    22     5     6    1
    23     6     7   ar
    24     7     8   ar
    25     8     9   ar
    26     9    10   ar
    27    10    11   ar
    28    30    21    1
    29    11     2    1
    30    28    23   ar
    31    11     6   ar
    32    17    18    1
    33    17    19    1
    34    30    31    1
@<TRIPOS>MOLECULE
*****
 31 34 0 0 0
SMALL
GASTEIGER

@<TRIPOS>ATOM
      1 N          -9.2205  -18.7132   22.6998 N.3     1  UNL1       -0.2644
      2 C          -8.7247  -17.3598   23.1153 C.3     1  UNL1        0.0981
      3 C          -8.2860  -16.3704   22.0768 C.3     1  UNL1        0.0224
      4 C          -7.7902  -15.0171   22.4923 C.3     1  UNL1        0.0065
      5 C          -7.7330  -14.6532   23.9463 C.3     1  UNL1        0.0277
      6 C          -8.1717  -15.6426   24.9848 C.ar    1  UNL1       -0.0073
      7 C          -8.1146  -15.2787   26.4389 C.ar    1  UNL1       -0.0015
      8 C          -8.5533  -16.2681   27.4775 C.ar    1  UNL1        0.0203
      9 C          -9.0491  -17.6214   27.0620 C.ar    1  UNL1        0.0985
     10 N          -9.1063  -17.9853   25.6079 N.ar    1  UNL1       -0.2471
     11 C          -8.6676  -16.9959   24.5693 C.ar    1  UNL1        0.0695
     12 C         -10.6414  -18.8862   22.2513 C.3     1  UNL1        0.0949
     13 C         -12.0133  -18.6337   24.4432 C.3     1  UNL1        0.0275
     14 C         -11.7546  -18.2378   23.0197 C.2     1  UNL1       -0.0309
     15 C         -12.6092  -17.1936   22.3645 C.2     1  UNL1       -0.0164
     16 C         -12.3505  -16.7977   20.9410 C.3     1  UNL1        0.0913
     17 N         -11.2825  -15.7933   20.6241 N.3     1  UNL1       -0.3175
     18 H         -11.5443  -14.8857   21.0088 H       1  UNL1        0.1192
     19 H         -11.1775  -15.7164   19.6125 H       1  UNL1        0.1192
     20 C          -8.2955  -19.8935   22.7328 C.3     1  UNL1        0.0888
     21 C          -6.9611  -19.8199   22.0514 C.3     1  UNL1        0.0748
     22 C          -5.8427  -19.0386   22.6749 C.3     1  UNL1        0.0432
     23 C          -4.5084  -18.9650   21.9935 C.ar    1  UNL1       -0.0234
     24 C          -3.3900  -18.1837   22.6170 C.ar    1  UNL1       -0.0045
     25 C          -2.0557  -18.1102   21.9356 C.ar    1  UNL1       -0.0003
     26 C          -1.8398  -18.8179   20.6308 C.ar    1  UNL1       -0.0003
     27 C          -2.9582  -19.5992   20.0074 C.ar    1  UNL1       -0.0032
     28 C          -4.2925  -19.6728   20.6887 C.ar    1  UNL1       -0.0103
     29 C          -5.4110  -20.4541   20.0653 C.3     1  UNL1        0.0953
     30 N          -6.7452  -20.5276   20.7466 N.3     1  UNL1       -0.2934
     31 H          -6.9372  -21.5156   20.9123 H       1  UNL1        0.1236
@<TRIPOS>BOND
     1    13    14    1
     2    14    15    2
     3    15    16    1
     4    16    17    1
     5    14    12    1
     6    12     1    1
     7     1    20    1
     8    21    20    1
     9    21    22    1
    10    22    23    1
    11    23    24   ar
    12    24    25   ar
    13    25    26   ar
    14    26    27   ar
    15    27    28   ar
    16    28    29    1
    17    29    30    1
    18     2     1    1
    19     2     3    1
    20     3     4    1
    21     4     5    1
    22     5     6    1
    23     6     7   ar
    24     7     8   ar
    25     8     9   ar
    26     9    10   ar
    27    10    11   ar
    28    30    21    1
    29    11     2    1
    30    28    23   ar
    31    11     6   ar
    32    17    18    1
    33    17    19    1
    34    30    31    1
@<TRIPOS>MOLECULE
*****
 31 34 0 0 0
SMALL
GASTEIGER

@<TRIPOS>ATOM
      1 N          -7.3582  -17.5204   23.1561 N.3     1  UNL1       -0.2644
      2 C          -8.7727  -18.0184   23.1190 C.3     1  UNL1        0.0981
      3 C          -9.6268  -17.9432   24.3497 C.3     1  UNL1        0.0224
      4 C         -11.0412  -18.4412   24.3126 C.3     1  UNL1        0.0065
      5 C         -11.6015  -19.0144   23.0448 C.3     1  UNL1        0.0277
      6 C         -10.7474  -19.0896   21.8141 C.ar    1  UNL1       -0.0073
      7 C         -11.3077  -19.6629   20.5462 C.ar    1  UNL1       -0.0015
      8 C         -10.4536  -19.7381   19.3154 C.ar    1  UNL1        0.0203
      9 C          -9.0391  -19.2401   19.3525 C.ar    1  UNL1        0.0985
     10 N          -8.4788  -18.6669   20.6204 N.ar    1  UNL1       -0.2471
     11 C          -9.3330  -18.5916   21.8512 C.ar    1  UNL1        0.0695
     12 C          -7.0827  -16.0463   23.1866 C.3     1  UNL1        0.0949
     13 C          -4.6914  -15.1817   23.7198 C.3     1  UNL1        0.0275
     14 C          -6.0908  -15.4888   24.1640 C.2     1  UNL1       -0.0309
     15 C          -6.4983  -15.2383   25.5857 C.2     1  UNL1       -0.0164
     16 C          -7.8977  -15.5454   26.0300 C.3     1  UNL1        0.0913
     17 N          -8.1314  -16.2930   27.3092 N.3     1  UNL1       -0.3175
     18 H          -7.7687  -17.2421   27.2194 H       1  UNL1        0.1192
     19 H          -9.1320  -16.3285   27.5043 H       1  UNL1        0.1192
     20 C          -6.2193  -18.4965   23.1627 C.3     1  UNL1        0.0888
     21 C          -5.2045  -18.4725   22.0583 C.3     1  UNL1        0.0748
     22 C          -3.8027  -18.0178   22.3377 C.3     1  UNL1        0.0432
     23 C          -2.7878  -17.9937   21.2333 C.ar    1  UNL1       -0.0234
     24 C          -1.3860  -17.5390   21.5127 C.ar    1  UNL1       -0.0045
     25 C          -0.3712  -17.5150   20.4083 C.ar    1  UNL1       -0.0003
     26 C          -0.7583  -17.9456   19.0246 C.ar    1  UNL1       -0.0003
     27 C          -2.1601  -18.4003   18.7452 C.ar    1  UNL1       -0.0032
     28 C          -3.1749  -18.4243   19.8495 C.ar    1  UNL1       -0.0103
     29 C          -4.5768  -18.8790   19.5702 C.3     1  UNL1        0.0953
     30 N          -5.5916  -18.9031   20.6745 N.3     1  UNL1       -0.2934
     31 H          -5.9244  -19.8645   20.7476 H       1  UNL1        0.1236
@<TRIPOS>BOND
     1    13    14    1
     2    14    15    2
     3    15    16    1
     4    16    17    1
     5    14    12    1
     6    12     1    1
     7     1    20    1
     8    21    20    1
     9    21    22    1
    10    22    23    1
    11    23    24   ar
    12    24    25   ar
    13    25    26   ar
    14    26    27   ar
    15    27    28   ar
    16    28    29    1
    17    29    30    1
    18     2     1    1
    19     2     3    1
    20     3     4    1
    21     4     5    1
    22     5     6    1
    23     6     7   ar
    24     7     8   ar
    25     8     9   ar
    26     9    10   ar
    27    10    11   ar
    28    30    21    1
    29    11     2    1
    30    28    23   ar
    31    11     6   ar
    32    17    18    1
    33    17    19    1
    34    30    31    1
@<TRIPOS>MOLECULE
*****
 31 34 0 0 0
SMALL
GASTEIGER

@<TRIPOS>ATOM
      1 N          -5.9510  -16.5387   23.6474 N.3     1  UNL1       -0.2644
      2 C          -4.8504  -17.3023   22.9724 C.3     1  UNL1        0.0981
      3 C          -3.4226  -16.8823   23.1587 C.3     1  UNL1        0.0224
      4 C          -2.3220  -17.6459   22.4836 C.3     1  UNL1        0.0065
      5 C          -2.6493  -18.8295   21.6223 C.3     1  UNL1        0.0277
      6 C          -4.0771  -19.2495   21.4360 C.ar    1  UNL1       -0.0073
      7 C          -4.4044  -20.4332   20.5747 C.ar    1  UNL1       -0.0015
      8 C          -5.8323  -20.8532   20.3884 C.ar    1  UNL1        0.0203
      9 C          -6.9329  -20.0896   21.0634 C.ar    1  UNL1        0.0985
     10 N          -6.6056  -18.9060   21.9247 N.ar    1  UNL1       -0.2471
     11 C          -5.1777  -18.4859   22.1110 C.ar    1  UNL1        0.0695
     12 C          -6.1576  -16.6713   25.1271 C.3     1  UNL1        0.0949
     13 C          -4.7056  -14.7424   26.0869 C.3     1  UNL1        0.0275
     14 C          -6.0149  -15.4706   26.0149 C.2     1  UNL1       -0.0309
     15 C          -7.1818  -14.9982   26.8306 C.2     1  UNL1       -0.0164
     16 C          -8.4911  -15.7264   26.7586 C.3     1  UNL1        0.0913
     17 N          -8.6772  -17.0109   27.5104 N.3     1  UNL1       -0.3175
     18 H          -8.0628  -17.7254   27.1200 H       1  UNL1        0.1192
     19 H          -9.6473  -17.3152   27.4288 H       1  UNL1        0.1192
     20 C          -6.8450  -15.6426   22.8427 C.3     1  UNL1        0.0888
     21 C          -8.2907  -15.9967   22.6565 C.3     1  UNL1        0.0748
     22 C          -8.9663  -16.9239   23.6228 C.3     1  UNL1        0.0432
     23 C         -10.4120  -17.2780   23.4366 C.ar    1  UNL1       -0.0234
     24 C         -11.0876  -18.2052   24.4030 C.ar    1  UNL1       -0.0045
     25 C         -12.5332  -18.5592   24.2168 C.ar    1  UNL1       -0.0003
     26 C         -13.3033  -17.9861   23.0642 C.ar    1  UNL1       -0.0003
     27 C         -12.6277  -17.0589   22.0978 C.ar    1  UNL1       -0.0032
     28 C         -11.1821  -16.7048   22.2840 C.ar    1  UNL1       -0.0103
     29 C         -10.5065  -15.7776   21.3176 C.3     1  UNL1        0.0953
     30 N          -9.0608  -15.4236   21.5039 N.3     1  UNL1       -0.2934
     31 H          -9.0156  -14.4087   21.5951 H       1  UNL1        0.1236
@<TRIPOS>BOND
     1    13    14    1
     2    14    15    2
     3    15    16    1
     4    16    17    1
     5    14    12    1
     6    12     1    1
     7     1    20    1
     8    21    20    1
     9    21    22    1
    10    22    23    1
    11    23    24   ar
    12    24    25   ar
    13    25    26   ar
    14    26    27   ar
    15    27    28   ar
    16    28    29    1
    17    29    30    1
    18     2     1    1
    19     2     3    1
    20     3     4    1
    21     4     5    1
    22     5     6    1
    23     6     7   ar
    24     7     8   ar
    25     8     9   ar
    26     9    10   ar
    27    10    11   ar
    28    30    21    1
    29    11     2    1
    30    28    23   ar
    31    11     6   ar
    32    17    18    1
    33    17    19    1
    34    30    31    1
