@<TRIPOS>MOLECULE
*****
 36 39 0 0 0
SMALL
GASTEIGER

@<TRIPOS>ATOM
      1 C          -8.7744  -17.0293   23.5207 C.ar    1  UNL1        0.0005
      2 C          -9.1628  -15.8316   24.3360 C.ar    1  UNL1       -0.0002
      3 C          -8.1376  -15.1345   25.1803 C.ar    1  UNL1        0.0038
      4 C          -6.7238  -15.6351   25.2093 C.ar    1  UNL1        0.0712
      5 C          -6.3354  -16.8328   24.3940 C.ar    1  UNL1        0.0012
      6 C          -7.3608  -17.5299   23.5497 C.ar    1  UNL1       -0.0022
      7 C         -10.4178  -19.0076   23.1522 C.ar    1  UNL1        0.1386
      8 C         -11.4431  -19.7046   22.3079 C.ar    1  UNL1        0.0366
      9 C         -11.8504  -19.1204   20.9878 C.ar    1  UNL1       -0.0008
     10 C         -11.2324  -17.8392   20.5120 C.ar    1  UNL1       -0.0164
     11 C         -10.2071  -17.1422   21.3563 C.ar    1  UNL1       -0.0009
     12 C          -9.7998  -17.7264   22.6764 C.ar    1  UNL1        0.0334
     13 C          -9.5846  -21.0275   24.5578 C.3     1  UNL1        0.2525
     14 O         -10.0105  -19.5918   24.4724 O.3     1  UNL1       -0.4714
     15 C         -11.6397  -17.2550   19.1918 C.3     1  UNL1        0.0679
     16 C         -11.8579  -15.7767   19.0611 C.2     1  UNL1        0.0547
     17 O         -10.7101  -14.8774   18.7090 O.co2   1  UNL1       -0.5488
     18 O         -13.2238  -15.1977   19.2826 O.co2   1  UNL1       -0.5488
     19 C          -5.6986  -14.9380   26.0536 C.3     1  UNL1        0.4186
     20 F          -4.6733  -14.2409   26.8979 F       1  UNL1       -0.1659
     21 F          -6.6526  -14.9366   27.2110 F       1  UNL1       -0.1659
     22 F          -4.7445  -14.9394   24.8962 F       1  UNL1       -0.1659
     23 C          -6.9724  -18.7276   22.7345 C.3     1  UNL1        0.1235
     24 N          -5.8944  -18.6117   21.6978 N.am    1  UNL1       -0.2396
     25 C          -6.0719  -18.7840   20.2183 C.2     1  UNL1        0.4054
     26 O          -7.3584  -19.1024   19.5157 O.2     1  UNL1       -0.2262
     27 O          -4.7369  -18.5819   19.5647 O.3     1  UNL1       -0.4320
     28 C          -3.7345  -18.2847   20.6403 C.3     1  UNL1        0.2107
     29 C          -4.4499  -18.3031   21.9586 C.3     1  UNL1        0.1232
     30 C          -3.8296  -18.0563   23.3018 C.3     1  UNL1        0.0258
     31 C          -2.2733  -18.0162   20.4338 C.ar    1  UNL1        0.0190
     32 C          -1.3634  -19.1217   19.9864 C.ar    1  UNL1       -0.0008
     33 C           0.0978  -18.8532   19.7800 C.ar    1  UNL1       -0.0002
     34 C           0.6493  -17.4793   20.0209 C.ar    1  UNL1       -0.0000
     35 C          -0.2605  -16.3737   20.4683 C.ar    1  UNL1       -0.0002
     36 C          -1.7218  -16.6423   20.6748 C.ar    1  UNL1       -0.0008
@<TRIPOS>UNITY_ATOM_ATTR
17 1
charge -1
@<TRIPOS>BOND
     1    13    14    1
     2    14     7    1
     3     7     8   ar
     4     8     9   ar
     5     9    10   ar
     6    10    15    1
     7    15    16    1
     8    16    17   ar
     9    16    18   ar
    10    10    11   ar
    11    11    12   ar
    12    12     1    1
    13     1     2   ar
    14     2     3   ar
    15     3     4   ar
    16     4    19    1
    17    19    20    1
    18    19    21    1
    19    19    22    1
    20     4     5   ar
    21     5     6   ar
    22     6    23    1
    23    23    24    1
    24    24    25   am
    25    25    26    2
    26    25    27    1
    27    27    28    1
    28    28    31    1
    29    31    32   ar
    30    32    33   ar
    31    33    34   ar
    32    34    35   ar
    33    35    36   ar
    34    28    29    1
    35    29    30    1
    36    12     7   ar
    37     6     1   ar
    38    29    24    1
    39    36    31   ar
@<TRIPOS>MOLECULE
*****
 36 39 0 0 0
SMALL
GASTEIGER

@<TRIPOS>ATOM
      1 C         -12.3972   -3.6316   18.1244 C.ar    1  UNL1        0.0005
      2 C         -11.1971   -3.7835   19.0113 C.ar    1  UNL1       -0.0002
      3 C         -10.4423   -5.0795   19.0364 C.ar    1  UNL1        0.0038
      4 C         -10.8877   -6.2237   18.1746 C.ar    1  UNL1        0.0712
      5 C         -12.0878   -6.0718   17.2877 C.ar    1  UNL1        0.0012
      6 C         -12.8426   -4.7757   17.2626 C.ar    1  UNL1       -0.0022
      7 C         -12.8438   -1.3084   17.0505 C.ar    1  UNL1        0.1386
      8 C         -13.5986   -0.0124   17.0255 C.ar    1  UNL1        0.0366
      9 C         -14.6615    0.2564   18.0491 C.ar    1  UNL1       -0.0008
     10 C         -14.9697   -0.7707   19.0978 C.ar    1  UNL1       -0.0164
     11 C         -14.2150   -2.0667   19.1229 C.ar    1  UNL1       -0.0009
     12 C         -13.1520   -2.3356   18.0993 C.ar    1  UNL1        0.0334
     13 C         -10.3689   -1.1380   16.2787 C.3     1  UNL1        0.2525
     14 O         -11.7809   -1.5772   16.0269 O.3     1  UNL1       -0.4714
     15 C         -16.0327   -0.5019   20.1215 C.3     1  UNL1        0.0679
     16 C         -17.4628   -0.8435   19.8251 C.2     1  UNL1        0.0547
     17 O         -17.9727   -2.2297   20.0872 O.co2   1  UNL1       -0.5488
     18 O         -18.3832    0.2010   19.2667 O.co2   1  UNL1       -0.5488
     19 C         -10.1329   -7.5197   18.1998 C.3     1  UNL1        0.4186
     20 F          -9.3781   -8.8157   18.2249 F       1  UNL1       -0.1659
     21 F          -9.3212   -7.0245   19.3599 F       1  UNL1       -0.1659
     22 F         -10.9446   -8.0149   17.0397 F       1  UNL1       -0.1659
     23 C         -14.0428   -4.6238   16.3757 C.3     1  UNL1        0.1235
     24 N         -15.4140   -4.9060   16.9145 N.am    1  UNL1       -0.2396
     25 C         -16.5455   -3.9253   17.0030 C.2     1  UNL1        0.4054
     26 O         -16.5045   -2.4902   16.5684 O.2     1  UNL1       -0.2262
     27 O         -17.7253   -4.6316   17.6025 O.3     1  UNL1       -0.4320
     28 C         -17.3228   -6.0489   17.8844 C.3     1  UNL1        0.2107
     29 C         -15.8944   -6.2185   17.4592 C.3     1  UNL1        0.1232
     30 C         -15.0879   -7.4791   17.5608 C.3     1  UNL1        0.0258
     31 C         -18.1955   -7.1102   18.4859 C.ar    1  UNL1        0.0190
     32 C         -18.6598   -6.9833   19.9066 C.ar    1  UNL1       -0.0008
     33 C         -19.5325   -8.0446   20.5082 C.ar    1  UNL1       -0.0002
     34 C         -19.9411   -9.2329   19.6890 C.ar    1  UNL1       -0.0000
     35 C         -19.4768   -9.3599   18.2683 C.ar    1  UNL1       -0.0002
     36 C         -18.6040   -8.2985   17.6668 C.ar    1  UNL1       -0.0008
@<TRIPOS>UNITY_ATOM_ATTR
17 1
charge -1
@<TRIPOS>BOND
     1    13    14    1
     2    14     7    1
     3     7     8   ar
     4     8     9   ar
     5     9    10   ar
     6    10    15    1
     7    15    16    1
     8    16    17   ar
     9    16    18   ar
    10    10    11   ar
    11    11    12   ar
    12    12     1    1
    13     1     2   ar
    14     2     3   ar
    15     3     4   ar
    16     4    19    1
    17    19    20    1
    18    19    21    1
    19    19    22    1
    20     4     5   ar
    21     5     6   ar
    22     6    23    1
    23    23    24    1
    24    24    25   am
    25    25    26    2
    26    25    27    1
    27    27    28    1
    28    28    31    1
    29    31    32   ar
    30    32    33   ar
    31    33    34   ar
    32    34    35   ar
    33    35    36   ar
    34    28    29    1
    35    29    30    1
    36    12     7   ar
    37     6     1   ar
    38    29    24    1
    39    36    31   ar
@<TRIPOS>MOLECULE
*****
 36 39 0 0 0
SMALL
GASTEIGER

@<TRIPOS>ATOM
      1 C          -9.3313  -18.6772   21.7213 C.ar    1  UNL1        0.0005
      2 C         -10.5581  -18.3981   20.9045 C.ar    1  UNL1       -0.0002
      3 C         -10.7338  -19.0538   19.5669 C.ar    1  UNL1        0.0038
      4 C          -9.6827  -19.9888   19.0461 C.ar    1  UNL1        0.0712
      5 C          -8.4560  -20.2679   19.8629 C.ar    1  UNL1        0.0012
      6 C          -8.2803  -19.6121   21.2005 C.ar    1  UNL1       -0.0022
      7 C          -9.7287  -18.6608   24.2887 C.ar    1  UNL1        0.1386
      8 C          -9.5531  -18.0050   25.6262 C.ar    1  UNL1        0.0366
      9 C          -8.8043  -16.7097   25.7339 C.ar    1  UNL1       -0.0008
     10 C          -8.2312  -16.0702   24.5040 C.ar    1  UNL1       -0.0164
     11 C          -8.4069  -16.7260   23.1665 C.ar    1  UNL1       -0.0009
     12 C          -9.1557  -18.0213   23.0589 C.ar    1  UNL1        0.0334
     13 C          -9.8015  -21.2454   24.5427 C.3     1  UNL1        0.2525
     14 O         -10.4775  -19.9561   24.1811 O.3     1  UNL1       -0.4714
     15 C          -7.4825  -14.7749   24.6116 C.3     1  UNL1        0.0679
     16 C          -5.9839  -14.7779   24.6748 C.2     1  UNL1        0.0547
     17 O          -5.2893  -14.8180   26.0038 O.co2   1  UNL1       -0.5488
     18 O          -5.1797  -14.7408   23.4091 O.co2   1  UNL1       -0.5488
     19 C          -9.8584  -20.6446   17.7086 C.3     1  UNL1        0.4186
     20 F         -10.0341  -21.3003   16.3711 F       1  UNL1       -0.1659
     21 F         -11.1058  -19.8436   17.4798 F       1  UNL1       -0.1659
     22 F          -8.6110  -21.4455   17.9374 F       1  UNL1       -0.1659
     23 C          -7.0535  -19.8912   22.0173 C.3     1  UNL1        0.1235
     24 N          -5.6992  -19.8536   21.3734 N.am    1  UNL1       -0.2396
     25 C          -5.1394  -20.8830   20.4370 C.2     1  UNL1        0.4054
     26 O          -5.8355  -22.1307   19.9801 O.2     1  UNL1       -0.2262
     27 O          -3.7612  -20.4457   20.0377 O.3     1  UNL1       -0.4320
     28 C          -3.4693  -19.1460   20.7274 C.3     1  UNL1        0.2107
     29 C          -4.6671  -18.7801   21.5529 C.3     1  UNL1        0.1232
     30 C          -4.8081  -17.5556   22.4078 C.3     1  UNL1        0.0258
     31 C          -2.2022  -18.3517   20.6119 C.ar    1  UNL1        0.0190
     32 C          -2.1366  -16.9593   21.1660 C.ar    1  UNL1       -0.0008
     33 C          -0.8695  -16.1650   21.0504 C.ar    1  UNL1       -0.0002
     34 C           0.3322  -16.7630   20.3808 C.ar    1  UNL1       -0.0000
     35 C           0.2667  -18.1555   19.8267 C.ar    1  UNL1       -0.0002
     36 C          -1.0006  -18.9497   19.9423 C.ar    1  UNL1       -0.0008
@<TRIPOS>UNITY_ATOM_ATTR
17 1
charge -1
@<TRIPOS>BOND
     1    13    14    1
     2    14     7    1
     3     7     8   ar
     4     8     9   ar
     5     9    10   ar
     6    10    15    1
     7    15    16    1
     8    16    17   ar
     9    16    18   ar
    10    10    11   ar
    11    11    12   ar
    12    12     1    1
    13     1     2   ar
    14     2     3   ar
    15     3     4   ar
    16     4    19    1
    17    19    20    1
    18    19    21    1
    19    19    22    1
    20     4     5   ar
    21     5     6   ar
    22     6    23    1
    23    23    24    1
    24    24    25   am
    25    25    26    2
    26    25    27    1
    27    27    28    1
    28    28    31    1
    29    31    32   ar
    30    32    33   ar
    31    33    34   ar
    32    34    35   ar
    33    35    36   ar
    34    28    29    1
    35    29    30    1
    36    12     7   ar
    37     6     1   ar
    38    29    24    1
    39    36    31   ar
@<TRIPOS>MOLECULE
*****
 36 39 0 0 0
SMALL
GASTEIGER

@<TRIPOS>ATOM
      1 C           2.8959    0.0880   22.5770 C.ar    1  UNL1        0.0005
      2 C           1.5105    0.4891   22.9890 C.ar    1  UNL1       -0.0002
      3 C           1.2365    0.8894   24.4084 C.ar    1  UNL1        0.0038
      4 C           2.3479    0.8887   25.4158 C.ar    1  UNL1        0.0712
      5 C           3.7333    0.4876   25.0038 C.ar    1  UNL1        0.0012
      6 C           4.0073    0.0873   23.5843 C.ar    1  UNL1       -0.0022
      7 C           3.4021    0.7391   20.1132 C.ar    1  UNL1        0.1386
      8 C           3.6760    0.3387   18.6939 C.ar    1  UNL1        0.0366
      9 C           3.7179   -1.1131   18.3189 C.ar    1  UNL1       -0.0008
     10 C           3.4857   -2.1645   19.3632 C.ar    1  UNL1       -0.0164
     11 C           3.2117   -1.7641   20.7825 C.ar    1  UNL1       -0.0009
     12 C           3.1699   -0.3123   21.1575 C.ar    1  UNL1        0.0334
     13 C           2.1196    2.9952   20.2358 C.3     1  UNL1        0.2525
     14 O           3.3602    2.1908   20.4883 O.3     1  UNL1       -0.4714
     15 C           3.5275   -3.6162   18.9882 C.3     1  UNL1        0.0679
     16 C           4.7962   -4.3983   19.1575 C.2     1  UNL1        0.0547
     17 O           6.0705   -3.6923   19.5152 O.co2   1  UNL1       -0.5488
     18 O           4.7907   -5.8865   18.9692 O.co2   1  UNL1       -0.5488
     19 C           2.0739    1.2890   26.8351 C.3     1  UNL1        0.4186
     20 F           1.7999    1.6894   28.2545 F       1  UNL1       -0.1659
     21 F           3.5136    1.0491   27.1808 F       1  UNL1       -0.1659
     22 F           0.6341    1.5290   26.4895 F       1  UNL1       -0.1659
     23 C           5.3927   -0.3138   23.1723 C.3     1  UNL1        0.1235
     24 N           6.1638   -1.3020   23.9964 N.am    1  UNL1       -0.2396
     25 C           7.1591   -0.9697   25.0683 C.2     1  UNL1        0.4054
     26 O           7.5583    0.4089   25.5042 O.2     1  UNL1       -0.2262
     27 O           7.6853   -2.2583   25.6277 O.3     1  UNL1       -0.4320
     28 C           7.0151   -3.3868   24.9015 C.3     1  UNL1        0.2107
     29 C           6.0748   -2.7958   23.8933 C.3     1  UNL1        0.1232
     30 C           5.1991   -3.5637   22.9481 C.3     1  UNL1        0.0258
     31 C           7.2449   -4.8495   25.1414 C.ar    1  UNL1        0.0190
     32 C           7.9423   -5.6792   24.1044 C.ar    1  UNL1       -0.0008
     33 C           8.1721   -7.1419   24.3442 C.ar    1  UNL1       -0.0002
     34 C           7.7046   -7.7750   25.6212 C.ar    1  UNL1       -0.0000
     35 C           7.0072   -6.9454   26.6583 C.ar    1  UNL1       -0.0002
     36 C           6.7774   -5.4827   26.4183 C.ar    1  UNL1       -0.0008
@<TRIPOS>UNITY_ATOM_ATTR
17 1
charge -1
@<TRIPOS>BOND
     1    13    14    1
     2    14     7    1
     3     7     8   ar
     4     8     9   ar
     5     9    10   ar
     6    10    15    1
     7    15    16    1
     8    16    17   ar
     9    16    18   ar
    10    10    11   ar
    11    11    12   ar
    12    12     1    1
    13     1     2   ar
    14     2     3   ar
    15     3     4   ar
    16     4    19    1
    17    19    20    1
    18    19    21    1
    19    19    22    1
    20     4     5   ar
    21     5     6   ar
    22     6    23    1
    23    23    24    1
    24    24    25   am
    25    25    26    2
    26    25    27    1
    27    27    28    1
    28    28    31    1
    29    31    32   ar
    30    32    33   ar
    31    33    34   ar
    32    34    35   ar
    33    35    36   ar
    34    28    29    1
    35    29    30    1
    36    12     7   ar
    37     6     1   ar
    38    29    24    1
    39    36    31   ar
@<TRIPOS>MOLECULE
*****
 36 39 0 0 0
SMALL
GASTEIGER

@<TRIPOS>ATOM
      1 C          -4.7579  -17.5017   23.2635 C.ar    1  UNL1        0.0005
      2 C          -3.9111  -17.5253   24.5013 C.ar    1  UNL1       -0.0002
      3 C          -4.3250  -16.7367   25.7083 C.ar    1  UNL1        0.0038
      4 C          -5.5857  -15.9245   25.6775 C.ar    1  UNL1        0.0712
      5 C          -6.4326  -15.9009   24.4396 C.ar    1  UNL1        0.0012
      6 C          -6.0186  -16.6895   23.2326 C.ar    1  UNL1       -0.0022
      7 C          -5.0282  -19.5862   21.7364 C.ar    1  UNL1        0.1386
      8 C          -4.6142  -20.3747   20.5295 C.ar    1  UNL1        0.0366
      9 C          -3.5160  -19.8674   19.6425 C.ar    1  UNL1       -0.0008
     10 C          -2.8319  -18.5715   19.9626 C.ar    1  UNL1       -0.0164
     11 C          -3.2458  -17.7829   21.1695 C.ar    1  UNL1       -0.0009
     12 C          -4.3440  -18.2903   22.0565 C.ar    1  UNL1        0.0334
     13 C          -7.0162  -21.2059   22.1536 C.3     1  UNL1        0.2525
     14 O          -6.1263  -20.0936   22.6234 O.3     1  UNL1       -0.4714
     15 C          -1.7337  -18.0641   19.0756 C.3     1  UNL1        0.0679
     16 C          -0.3598  -17.8424   19.6352 C.2     1  UNL1        0.0547
     17 O           0.6207  -18.9765   19.6876 O.co2   1  UNL1       -0.5488
     18 O           0.0338  -16.4867   20.1423 O.co2   1  UNL1       -0.5488
     19 C          -5.9996  -15.1360   26.8844 C.3     1  UNL1        0.4186
     20 F          -6.4135  -14.3474   28.0914 F       1  UNL1       -0.1659
     21 F          -6.9535  -16.2273   27.2704 F       1  UNL1       -0.1659
     22 F          -5.0458  -14.0446   26.4985 F       1  UNL1       -0.1659
     23 C          -6.8654  -16.6660   21.9947 C.3     1  UNL1        0.1235
     24 N          -8.1945  -17.3614   21.9818 N.am    1  UNL1       -0.2396
     25 C          -8.6393  -18.3945   20.9894 C.2     1  UNL1        0.4054
     26 O          -7.8334  -18.9135   19.8356 O.2     1  UNL1       -0.2262
     27 O         -10.0317  -18.8175   21.3533 O.3     1  UNL1       -0.4320
     28 C         -10.4473  -18.0458   22.5706 C.3     1  UNL1        0.2107
     29 C          -9.3119  -17.1460   22.9590 C.3     1  UNL1        0.1232
     30 C          -9.2964  -16.1972   24.1207 C.3     1  UNL1        0.0258
     31 C         -11.7667  -18.1549   23.2757 C.ar    1  UNL1        0.0190
     32 C         -11.8347  -18.7456   24.6528 C.ar    1  UNL1       -0.0008
     33 C         -13.1541  -18.8547   25.3578 C.ar    1  UNL1       -0.0002
     34 C         -14.4057  -18.3730   24.6858 C.ar    1  UNL1       -0.0000
     35 C         -14.3378  -17.7823   23.3086 C.ar    1  UNL1       -0.0002
     36 C         -13.0183  -17.6732   22.6036 C.ar    1  UNL1       -0.0008
@<TRIPOS>UNITY_ATOM_ATTR
17 1
charge -1
@<TRIPOS>BOND
     1    13    14    1
     2    14     7    1
     3     7     8   ar
     4     8     9   ar
     5     9    10   ar
     6    10    15    1
     7    15    16    1
     8    16    17   ar
     9    16    18   ar
    10    10    11   ar
    11    11    12   ar
    12    12     1    1
    13     1     2   ar
    14     2     3   ar
    15     3     4   ar
    16     4    19    1
    17    19    20    1
    18    19    21    1
    19    19    22    1
    20     4     5   ar
    21     5     6   ar
    22     6    23    1
    23    23    24    1
    24    24    25   am
    25    25    26    2
    26    25    27    1
    27    27    28    1
    28    28    31    1
    29    31    32   ar
    30    32    33   ar
    31    33    34   ar
    32    34    35   ar
    33    35    36   ar
    34    28    29    1
    35    29    30    1
    36    12     7   ar
    37     6     1   ar
    38    29    24    1
    39    36    31   ar
@<TRIPOS>MOLECULE
*****
 36 39 0 0 0
SMALL
GASTEIGER

@<TRIPOS>ATOM
      1 C          -9.0574  -16.6872   23.5875 C.ar    1  UNL1        0.0005
      2 C         -10.2195  -15.7414   23.6576 C.ar    1  UNL1       -0.0002
      3 C         -11.5580  -16.1571   23.1234 C.ar    1  UNL1        0.0038
      4 C         -11.7345  -17.5186   22.5191 C.ar    1  UNL1        0.0712
      5 C         -10.5724  -18.4645   22.4491 C.ar    1  UNL1        0.0012
      6 C          -9.2338  -18.0487   22.9833 C.ar    1  UNL1       -0.0022
      7 C          -7.4767  -16.2468   25.6019 C.ar    1  UNL1        0.1386
      8 C          -6.1381  -15.8311   26.1360 C.ar    1  UNL1        0.0366
      9 C          -5.0416  -15.4400   25.1901 C.ar    1  UNL1       -0.0008
     10 C          -5.2837  -15.4647   23.7100 C.ar    1  UNL1       -0.0164
     11 C          -6.6223  -15.8804   23.1758 C.ar    1  UNL1       -0.0009
     12 C          -7.7187  -16.2715   24.1218 C.ar    1  UNL1        0.0334
     13 C          -8.5421  -16.1618   27.9699 C.3     1  UNL1        0.2525
     14 O          -8.5731  -16.6378   26.5478 O.3     1  UNL1       -0.4714
     15 C          -4.1872  -15.0736   22.7641 C.3     1  UNL1        0.0679
     16 C          -3.0013  -15.9730   22.5776 C.2     1  UNL1        0.0547
     17 O          -2.0144  -15.6955   21.4825 O.co2   1  UNL1       -0.5488
     18 O          -2.8023  -17.1498   23.4861 O.co2   1  UNL1       -0.5488
     19 C         -13.0731  -17.9343   21.9849 C.3     1  UNL1        0.4186
     20 F         -14.4117  -18.3500   21.4507 F       1  UNL1       -0.1659
     21 F         -13.6004  -18.0363   23.3855 F       1  UNL1       -0.1659
     22 F         -12.5459  -17.8323   20.5844 F       1  UNL1       -0.1659
     23 C          -8.0717  -18.9945   22.9133 C.3     1  UNL1        0.1235
     24 N          -7.0993  -18.9050   21.7746 N.am    1  UNL1       -0.2396
     25 C          -7.4502  -18.8656   20.3167 C.2     1  UNL1        0.4054
     26 O          -8.8349  -18.9089   19.7416 O.2     1  UNL1       -0.2262
     27 O          -6.1732  -18.7753   19.5349 O.3     1  UNL1       -0.4320
     28 C          -5.0331  -18.7590   20.5097 C.3     1  UNL1        0.2107
     29 C          -5.6056  -18.8391   21.8939 C.3     1  UNL1        0.1232
     30 C          -4.8219  -18.8512   23.1727 C.3     1  UNL1        0.0258
     31 C          -3.5765  -18.6769   20.1614 C.ar    1  UNL1        0.0190
     32 C          -2.5644  -19.4096   20.9914 C.ar    1  UNL1       -0.0008
     33 C          -1.1078  -19.3275   20.6431 C.ar    1  UNL1       -0.0002
     34 C          -0.6631  -18.5127   19.4649 C.ar    1  UNL1       -0.0000
     35 C          -1.6752  -17.7799   18.6348 C.ar    1  UNL1       -0.0002
     36 C          -3.1318  -17.8620   18.9832 C.ar    1  UNL1       -0.0008
@<TRIPOS>UNITY_ATOM_ATTR
17 1
charge -1
@<TRIPOS>BOND
     1    13    14    1
     2    14     7    1
     3     7     8   ar
     4     8     9   ar
     5     9    10   ar
     6    10    15    1
     7    15    16    1
     8    16    17   ar
     9    16    18   ar
    10    10    11   ar
    11    11    12   ar
    12    12     1    1
    13     1     2   ar
    14     2     3   ar
    15     3     4   ar
    16     4    19    1
    17    19    20    1
    18    19    21    1
    19    19    22    1
    20     4     5   ar
    21     5     6   ar
    22     6    23    1
    23    23    24    1
    24    24    25   am
    25    25    26    2
    26    25    27    1
    27    27    28    1
    28    28    31    1
    29    31    32   ar
    30    32    33   ar
    31    33    34   ar
    32    34    35   ar
    33    35    36   ar
    34    28    29    1
    35    29    30    1
    36    12     7   ar
    37     6     1   ar
    38    29    24    1
    39    36    31   ar
@<TRIPOS>MOLECULE
*****
 36 39 0 0 0
SMALL
GASTEIGER

@<TRIPOS>ATOM
      1 C           2.7725    0.2358   18.8084 C.ar    1  UNL1        0.0005
      2 C           3.8017   -0.1261   17.7789 C.ar    1  UNL1       -0.0002
      3 C           4.3566   -1.5188   17.7305 C.ar    1  UNL1        0.0038
      4 C           3.8823   -2.5497   18.7115 C.ar    1  UNL1        0.0712
      5 C           2.8531   -2.1878   19.7410 C.ar    1  UNL1        0.0012
      6 C           2.2982   -0.7950   19.7894 C.ar    1  UNL1       -0.0022
      7 C           2.9751    2.7137   19.5630 C.ar    1  UNL1        0.1386
      8 C           2.4201    4.1064   19.6113 C.ar    1  UNL1        0.0366
      9 C           1.1077    4.4140   18.9534 C.ar    1  UNL1       -0.0008
     10 C           0.3501    3.3290   18.2472 C.ar    1  UNL1       -0.0164
     11 C           0.9051    1.9363   18.1989 C.ar    1  UNL1       -0.0009
     12 C           2.2175    1.6286   18.8567 C.ar    1  UNL1        0.0334
     13 C           4.5628    2.8969   21.6112 C.3     1  UNL1        0.2525
     14 O           4.2875    2.4060   20.2209 O.3     1  UNL1       -0.4714
     15 C          -0.9623    3.6366   17.5893 C.3     1  UNL1        0.0679
     16 C          -2.0874    4.2158   18.3947 C.2     1  UNL1        0.0547
     17 O          -2.5010    3.5654   19.6816 O.co2   1  UNL1       -0.5488
     18 O          -2.7990    5.4454   17.9133 O.co2   1  UNL1       -0.5488
     19 C           4.4373   -3.9424   18.6631 C.3     1  UNL1        0.4186
     20 F           4.9922   -5.3351   18.6147 F       1  UNL1       -0.1659
     21 F           5.7835   -3.3931   18.2947 F       1  UNL1       -0.1659
     22 F           3.0910   -4.4916   19.0316 F       1  UNL1       -0.1659
     23 C           1.2690   -0.4331   20.8188 C.3     1  UNL1        0.1235
     24 N           1.6784    0.2940   22.0654 N.am    1  UNL1       -0.2396
     25 C           2.7349   -0.1453   23.0354 C.2     1  UNL1        0.4054
     26 O           3.5674   -1.3885   22.9293 O.2     1  UNL1       -0.2262
     27 O           2.8127    0.8772   24.1303 O.3     1  UNL1       -0.4320
     28 C           1.8043    1.9482   23.8369 C.3     1  UNL1        0.2107
     29 C           1.1033    1.5878   22.5607 C.3     1  UNL1        0.1232
     30 C           0.0178    2.3817   21.8964 C.3     1  UNL1        0.0258
     31 C           1.5429    3.1658   24.6728 C.ar    1  UNL1        0.0190
     32 C           2.4823    4.3336   24.6116 C.ar    1  UNL1       -0.0008
     33 C           2.2209    5.5512   25.4475 C.ar    1  UNL1       -0.0002
     34 C           1.0199    5.6012   26.3448 C.ar    1  UNL1       -0.0000
     35 C           0.0804    4.4335   26.4062 C.ar    1  UNL1       -0.0002
     36 C           0.3419    3.2158   25.5702 C.ar    1  UNL1       -0.0008
@<TRIPOS>UNITY_ATOM_ATTR
17 1
charge -1
@<TRIPOS>BOND
     1    13    14    1
     2    14     7    1
     3     7     8   ar
     4     8     9   ar
     5     9    10   ar
     6    10    15    1
     7    15    16    1
     8    16    17   ar
     9    16    18   ar
    10    10    11   ar
    11    11    12   ar
    12    12     1    1
    13     1     2   ar
    14     2     3   ar
    15     3     4   ar
    16     4    19    1
    17    19    20    1
    18    19    21    1
    19    19    22    1
    20     4     5   ar
    21     5     6   ar
    22     6    23    1
    23    23    24    1
    24    24    25   am
    25    25    26    2
    26    25    27    1
    27    27    28    1
    28    28    31    1
    29    31    32   ar
    30    32    33   ar
    31    33    34   ar
    32    34    35   ar
    33    35    36   ar
    34    28    29    1
    35    29    30    1
    36    12     7   ar
    37     6     1   ar
    38    29    24    1
    39    36    31   ar
@<TRIPOS>MOLECULE
*****
 36 39 0 0 0
SMALL
GASTEIGER

@<TRIPOS>ATOM
      1 C          -5.2435  -16.8211   23.9831 C.ar    1  UNL1        0.0005
      2 C          -4.6187  -16.6003   25.3287 C.ar    1  UNL1       -0.0002
      3 C          -5.4040  -15.9358   26.4204 C.ar    1  UNL1        0.0038
      4 C          -6.8142  -15.4920   26.1663 C.ar    1  UNL1        0.0712
      5 C          -7.4390  -15.7128   24.8206 C.ar    1  UNL1        0.0012
      6 C          -6.6536  -16.3773   23.7290 C.ar    1  UNL1       -0.0022
      7 C          -4.9356  -18.7816   22.3063 C.ar    1  UNL1        0.1386
      8 C          -4.1502  -19.4461   21.2147 C.ar    1  UNL1        0.0366
      9 C          -2.8874  -18.8146   20.7082 C.ar    1  UNL1       -0.0008
     10 C          -2.4099  -17.5186   21.2934 C.ar    1  UNL1       -0.0164
     11 C          -3.1953  -16.8541   22.3850 C.ar    1  UNL1       -0.0009
     12 C          -4.4581  -17.4856   22.8914 C.ar    1  UNL1        0.0334
     13 C          -6.9310  -20.4098   21.9644 C.3     1  UNL1        0.2525
     14 O          -6.1984  -19.4131   22.8127 O.3     1  UNL1       -0.4714
     15 C          -1.1471  -16.8871   20.7869 C.3     1  UNL1        0.0679
     16 C          -0.1972  -17.6830   19.9419 C.2     1  UNL1        0.0547
     17 O          -0.5469  -18.0029   18.5187 O.co2   1  UNL1       -0.5488
     18 O           1.1026  -18.1590   20.5199 O.co2   1  UNL1       -0.5488
     19 C          -7.5995  -14.8275   27.2579 C.3     1  UNL1        0.4186
     20 F          -8.3848  -14.1630   28.3496 F       1  UNL1       -0.1659
     21 F          -6.3221  -14.4603   27.9533 F       1  UNL1       -0.1659
     22 F          -8.8768  -15.1947   26.5626 F       1  UNL1       -0.1659
     23 C          -7.2784  -16.5981   22.3833 C.3     1  UNL1        0.1235
     24 N          -8.7654  -16.4871   22.2195 N.am    1  UNL1       -0.2396
     25 C          -9.4862  -15.4813   21.3716 C.2     1  UNL1        0.4054
     26 O          -8.8468  -14.4101   20.5387 O.2     1  UNL1       -0.2262
     27 O         -10.9589  -15.7349   21.5029 O.3     1  UNL1       -0.4320
     28 C         -11.1480  -16.8974   22.4319 C.3     1  UNL1        0.2107
     29 C          -9.7924  -17.3622   22.8748 C.3     1  UNL1        0.1232
     30 C          -9.5128  -18.5020   23.8089 C.3     1  UNL1        0.0258
     31 C         -12.4621  -17.4907   22.8454 C.ar    1  UNL1        0.0190
     32 C         -13.4750  -17.8683   21.8055 C.ar    1  UNL1       -0.0008
     33 C         -14.7890  -18.4617   22.2190 C.ar    1  UNL1       -0.0002
     34 C         -15.0903  -18.6776   23.6725 C.ar    1  UNL1       -0.0000
     35 C         -14.0774  -18.3000   24.7125 C.ar    1  UNL1       -0.0002
     36 C         -12.7633  -17.7066   24.2989 C.ar    1  UNL1       -0.0008
@<TRIPOS>UNITY_ATOM_ATTR
17 1
charge -1
@<TRIPOS>BOND
     1    13    14    1
     2    14     7    1
     3     7     8   ar
     4     8     9   ar
     5     9    10   ar
     6    10    15    1
     7    15    16    1
     8    16    17   ar
     9    16    18   ar
    10    10    11   ar
    11    11    12   ar
    12    12     1    1
    13     1     2   ar
    14     2     3   ar
    15     3     4   ar
    16     4    19    1
    17    19    20    1
    18    19    21    1
    19    19    22    1
    20     4     5   ar
    21     5     6   ar
    22     6    23    1
    23    23    24    1
    24    24    25   am
    25    25    26    2
    26    25    27    1
    27    27    28    1
    28    28    31    1
    29    31    32   ar
    30    32    33   ar
    31    33    34   ar
    32    34    35   ar
    33    35    36   ar
    34    28    29    1
    35    29    30    1
    36    12     7   ar
    37     6     1   ar
    38    29    24    1
    39    36    31   ar
@<TRIPOS>MOLECULE
*****
 36 39 0 0 0
SMALL
GASTEIGER

@<TRIPOS>ATOM
      1 C           6.6664   -3.6505   25.5277 C.ar    1  UNL1        0.0005
      2 C           6.8966   -4.9460   26.2479 C.ar    1  UNL1       -0.0002
      3 C           6.8657   -4.9864   27.7470 C.ar    1  UNL1        0.0038
      4 C           6.6047   -3.7313   28.5260 C.ar    1  UNL1        0.0712
      5 C           6.3746   -2.4358   27.8057 C.ar    1  UNL1        0.0012
      6 C           6.4055   -2.3954   26.3065 C.ar    1  UNL1       -0.0022
      7 C           7.9631   -3.2395   23.3141 C.ar    1  UNL1        0.1386
      8 C           7.9939   -3.1992   21.8150 C.ar    1  UNL1        0.0366
      9 C           6.7589   -3.5294   21.0302 C.ar    1  UNL1       -0.0008
     10 C           5.4932   -3.9000   21.7446 C.ar    1  UNL1       -0.0164
     11 C           5.4623   -3.9404   23.2437 C.ar    1  UNL1       -0.0009
     12 C           6.6973   -3.6101   24.0285 C.ar    1  UNL1        0.0334
     13 C           9.5347   -1.4791   24.4008 C.3     1  UNL1        0.2525
     14 O           9.1981   -2.9093   24.0988 O.3     1  UNL1       -0.4714
     15 C           4.2582   -4.2303   20.9599 C.3     1  UNL1        0.0679
     16 C           4.3297   -4.3570   19.4670 C.2     1  UNL1        0.0547
     17 O           4.6584   -5.6802   18.8415 O.co2   1  UNL1       -0.5488
     18 O           4.0726   -3.1606   18.5995 O.co2   1  UNL1       -0.5488
     19 C           6.5739   -3.7717   30.0251 C.3     1  UNL1        0.4186
     20 F           6.5430   -3.8121   31.5242 F       1  UNL1       -0.1659
     21 F           5.8971   -2.4332   30.0472 F       1  UNL1       -0.1659
     22 F           7.2507   -5.1101   30.0029 F       1  UNL1       -0.1659
     23 C           6.1754   -1.0999   25.5862 C.3     1  UNL1        0.1235
     24 N           4.8461   -0.8218   24.9492 N.am    1  UNL1       -0.2396
     25 C           3.5143   -0.8525   25.6388 C.2     1  UNL1        0.4054
     26 O           3.2780   -1.1666   27.0863 O.2     1  UNL1       -0.2262
     27 O           2.4603   -0.5139   24.6265 O.3     1  UNL1       -0.4320
     28 C           3.1408   -0.2740   23.3114 C.3     1  UNL1        0.2107
     29 C           4.6152   -0.4643   23.5109 C.3     1  UNL1        0.1232
     30 C           5.6731   -0.3220   22.4570 C.3     1  UNL1        0.0258
     31 C           2.4654    0.0920   22.0231 C.ar    1  UNL1        0.0190
     32 C           2.4110   -0.8976   20.8972 C.ar    1  UNL1       -0.0008
     33 C           1.7356   -0.5316   19.6089 C.ar    1  UNL1       -0.0002
     34 C           1.1145    0.8240   19.4464 C.ar    1  UNL1       -0.0000
     35 C           1.1688    1.8138   20.5723 C.ar    1  UNL1       -0.0002
     36 C           1.8443    1.4477   21.8607 C.ar    1  UNL1       -0.0008
@<TRIPOS>UNITY_ATOM_ATTR
17 1
charge -1
@<TRIPOS>BOND
     1    13    14    1
     2    14     7    1
     3     7     8   ar
     4     8     9   ar
     5     9    10   ar
     6    10    15    1
     7    15    16    1
     8    16    17   ar
     9    16    18   ar
    10    10    11   ar
    11    11    12   ar
    12    12     1    1
    13     1     2   ar
    14     2     3   ar
    15     3     4   ar
    16     4    19    1
    17    19    20    1
    18    19    21    1
    19    19    22    1
    20     4     5   ar
    21     5     6   ar
    22     6    23    1
    23    23    24    1
    24    24    25   am
    25    25    26    2
    26    25    27    1
    27    27    28    1
    28    28    31    1
    29    31    32   ar
    30    32    33   ar
    31    33    34   ar
    32    34    35   ar
    33    35    36   ar
    34    28    29    1
    35    29    30    1
    36    12     7   ar
    37     6     1   ar
    38    29    24    1
    39    36    31   ar
