@<TRIPOS>MOLECULE
*****
 43 48 0 0 0
SMALL
GASTEIGER

@<TRIPOS>ATOM
      1 N          -0.2326    2.2774   19.6444 N.pl3   1  UNL1       -0.2801
      2 H           0.0088    2.0331   18.7218 H       1  UNL1        0.1552
      3 C           1.4454    0.5287   20.5806 C.ar    1  UNL1        0.1477
      4 C           0.5309    1.6976   20.7980 C.ar    1  UNL1        0.0846
      5 C           0.3799    2.2869   22.1692 C.ar    1  UNL1        0.0174
      6 C           1.1434    1.7072   23.3229 C.ar    1  UNL1       -0.0031
      7 C           2.0579    0.5382   23.1054 C.ar    1  UNL1       -0.0218
      8 C           2.2088   -0.0510   21.7344 C.ar    1  UNL1        0.0091
      9 C           3.0604   -1.2077   21.3020 C.3     1  UNL1        0.0292
     10 C           3.9713   -2.0609   22.1342 C.3     1  UNL1        0.0062
     11 C           4.2556   -1.9680   23.6040 C.3     1  UNL1        0.0166
     12 C           3.6992   -0.9991   24.6048 C.3     1  UNL1        0.0619
     13 C           2.7211    0.1163   24.3830 C.3     1  UNL1        0.0421
     14 N           4.1852   -1.1679   26.0138 N.3     1  UNL1       -0.2713
     15 C           3.3824   -0.6174   27.1551 C.3     1  UNL1        0.0896
     16 C           3.8684   -0.7862   28.5642 C.3     1  UNL1        0.0897
     17 N           5.1572   -1.5055   28.8320 N.3     1  UNL1       -0.2691
     18 C           5.6431   -1.6743   30.2409 C.3     1  UNL1        0.0897
     19 C           5.9600   -2.0560   27.6907 C.3     1  UNL1        0.0897
     20 C           5.4740   -1.8872   26.2816 C.3     1  UNL1        0.0896
     21 C           2.5452    0.5594   18.2271 C.3     1  UNL1        0.2525
     22 O           1.5964   -0.0606   19.2095 O.3     1  UNL1       -0.4705
     23 C          -1.3641    3.2294   19.8965 C.ar    1  UNL1        0.2219
     24 N          -1.3138    4.6196   19.3353 N.ar    1  UNL1       -0.2110
     25 C          -2.4451    5.5716   19.5874 C.ar    1  UNL1        0.1160
     26 C          -3.6269    5.1335   20.4008 C.ar    1  UNL1        0.1082
     27 CL         -4.7583    6.0855   20.6529 Cl      1  UNL1       -0.0777
     28 C          -3.6772    3.7433   20.9621 C.ar    1  UNL1        0.1435
     29 N          -2.5458    2.7913   20.7100 N.ar    1  UNL1       -0.1979
     30 N          -4.8589    3.3052   21.7755 N.pl3   1  UNL1       -0.3181
     31 H          -5.5724    2.7702   21.3585 H       1  UNL1        0.1482
     32 C          -4.9534    3.6819   23.2243 C.3     1  UNL1        0.0832
     33 C          -6.1703    4.2180   23.9183 C.3     1  UNL1        0.0984
     34 C          -5.8166    4.4562   25.3564 C.3     1  UNL1        0.0323
     35 C          -4.7107    4.3631   26.3656 C.2     1  UNL1       -0.0304
     36 C          -3.4938    3.8270   25.6715 C.2     1  UNL1       -0.0294
     37 C          -3.8475    3.5888   24.2334 C.3     1  UNL1        0.0404
     38 C          -5.2831    3.9777   24.0387 C.3     1  UNL1        0.0109
     39 C          -7.5065    4.4714   23.2854 C.2     1  UNL1        0.2208
     40 N          -8.6904    3.6356   23.6726 N.am    1  UNL1       -0.3288
     41 O          -7.6587    5.5605   22.2653 O.2     1  UNL1       -0.2753
     42 H          -8.5905    2.9208   24.3421 H       1  UNL1        0.1449
     43 H          -9.5673    3.8019   23.2572 H       1  UNL1        0.1449
@<TRIPOS>BOND
     1    21    22    1
     2    22     3    1
     3     3     4   ar
     4     4     1    1
     5     1    23    1
     6    23    24   ar
     7    24    25   ar
     8    25    26   ar
     9    26    27    1
    10    26    28   ar
    11    28    30    1
    12    32    30    1
    13    32    33    1
    14    33    39    1
    15    39    40   am
    16    39    41    2
    17    33    34    1
    18    34    35    1
    19    35    36    2
    20    37    36    1
    21    37    38    1
    22    28    29   ar
    23     4     5   ar
    24     5     6   ar
    25     6     7   ar
    26     7     8   ar
    27     8     9    1
    28     9    10    1
    29    10    11    1
    30    11    12    1
    31    12    14    1
    32    14    15    1
    33    15    16    1
    34    16    17    1
    35    17    18    1
    36    17    19    1
    37    19    20    1
    38    12    13    1
    39     8     3   ar
    40    20    14    1
    41    29    23   ar
    42    13     7    1
    43    37    32    1
    44    38    34    1
    45     1     2    1
    46    30    31    1
    47    40    42    1
    48    40    43    1
@<TRIPOS>MOLECULE
*****
 43 48 0 0 0
SMALL
GASTEIGER

@<TRIPOS>ATOM
      1 N           7.4860   -5.6177   24.8019 N.pl3   1  UNL1       -0.2801
      2 H           7.5223   -6.6013   24.7811 H       1  UNL1        0.1552
      3 C           7.3352   -5.6162   27.3956 C.ar    1  UNL1        0.1477
      4 C           7.1733   -4.9056   26.0845 C.ar    1  UNL1        0.0846
      5 C           6.6988   -3.4830   26.0560 C.ar    1  UNL1        0.0174
      6 C           6.3861   -2.7708   27.3387 C.ar    1  UNL1       -0.0031
      7 C           6.5480   -3.4814   28.6498 C.ar    1  UNL1       -0.0218
      8 C           7.0225   -4.9040   28.6782 C.ar    1  UNL1        0.0091
      9 C           7.2503   -5.7904   29.8667 C.3     1  UNL1        0.0292
     10 C           7.0598   -5.4729   31.3204 C.3     1  UNL1        0.0062
     11 C           6.5945   -4.1908   31.9444 C.3     1  UNL1        0.0166
     12 C           6.2047   -2.9094   31.2690 C.3     1  UNL1        0.0619
     13 C           6.1840   -2.5937   29.8028 C.3     1  UNL1        0.0421
     14 N           5.7794   -1.7965   32.1804 N.3     1  UNL1       -0.2713
     15 C           6.1130   -0.3754   31.8353 C.3     1  UNL1        0.0896
     16 C           5.6877    0.7375   32.7467 C.3     1  UNL1        0.0897
     17 N           4.9287    0.4292   34.0033 N.3     1  UNL1       -0.2691
     18 C           4.5034    1.5420   34.9147 C.3     1  UNL1        0.0897
     19 C           4.5950   -0.9919   34.3484 C.3     1  UNL1        0.0897
     20 C           5.0204   -2.1048   33.4369 C.3     1  UNL1        0.0896
     21 C           9.2732   -7.3439   27.3008 C.3     1  UNL1        0.2525
     22 O           7.8098   -7.0389   27.4241 O.3     1  UNL1       -0.4705
     23 C           7.7434   -4.8311   23.5509 C.ar    1  UNL1        0.2219
     24 N           9.0881   -4.2076   23.3202 N.ar    1  UNL1       -0.2110
     25 C           9.3455   -3.4210   22.0693 C.ar    1  UNL1        0.1160
     26 C           8.2581   -3.2578   21.0489 C.ar    1  UNL1        0.1082
     27 CL          8.5155   -2.4711   19.7979 Cl      1  UNL1       -0.0777
     28 C           6.9134   -3.8812   21.2795 C.ar    1  UNL1        0.1435
     29 N           6.6560   -4.6678   22.5305 N.ar    1  UNL1       -0.1979
     30 N           5.8261   -3.7180   20.2592 N.pl3   1  UNL1       -0.3181
     31 H           5.7846   -4.3223   19.4831 H       1  UNL1        0.1482
     32 C           4.8019   -2.6342   20.4214 C.3     1  UNL1        0.0832
     33 C           4.2674   -1.7556   19.3294 C.3     1  UNL1        0.0984
     34 C           3.2676   -0.8170   19.9371 C.3     1  UNL1        0.0323
     35 C           2.5981   -0.4214   21.2198 C.2     1  UNL1       -0.0304
     36 C           3.1326   -1.2999   22.3118 C.2     1  UNL1       -0.0294
     37 C           4.1324   -2.2385   21.7041 C.3     1  UNL1        0.0404
     38 C           4.2158   -1.9400   20.2364 C.3     1  UNL1        0.0109
     39 C           4.6632   -1.8067   17.8834 C.2     1  UNL1        0.2208
     40 N           3.7341   -1.2758   16.8323 N.am    1  UNL1       -0.3288
     41 O           5.9881   -2.3888   17.4886 O.2     1  UNL1       -0.2753
     42 H           2.8645   -0.8938   17.0914 H       1  UNL1        0.1449
     43 H           3.9939   -1.3093   15.8833 H       1  UNL1        0.1449
@<TRIPOS>BOND
     1    21    22    1
     2    22     3    1
     3     3     4   ar
     4     4     1    1
     5     1    23    1
     6    23    24   ar
     7    24    25   ar
     8    25    26   ar
     9    26    27    1
    10    26    28   ar
    11    28    30    1
    12    32    30    1
    13    32    33    1
    14    33    39    1
    15    39    40   am
    16    39    41    2
    17    33    34    1
    18    34    35    1
    19    35    36    2
    20    37    36    1
    21    37    38    1
    22    28    29   ar
    23     4     5   ar
    24     5     6   ar
    25     6     7   ar
    26     7     8   ar
    27     8     9    1
    28     9    10    1
    29    10    11    1
    30    11    12    1
    31    12    14    1
    32    14    15    1
    33    15    16    1
    34    16    17    1
    35    17    18    1
    36    17    19    1
    37    19    20    1
    38    12    13    1
    39     8     3   ar
    40    20    14    1
    41    29    23   ar
    42    13     7    1
    43    37    32    1
    44    38    34    1
    45     1     2    1
    46    30    31    1
    47    40    42    1
    48    40    43    1
@<TRIPOS>MOLECULE
*****
 43 48 0 0 0
SMALL
GASTEIGER

@<TRIPOS>ATOM
      1 N           8.0063   -3.5257   21.4707 N.pl3   1  UNL1       -0.2801
      2 H           8.8196   -3.9869   21.1623 H       1  UNL1        0.1552
      3 C           7.5469   -4.6481   23.7684 C.ar    1  UNL1        0.1477
      4 C           7.7202   -3.4106   22.9386 C.ar    1  UNL1        0.0846
      5 C           7.6075   -2.0578   23.5769 C.ar    1  UNL1        0.0174
      6 C           7.3214   -1.9426   25.0449 C.ar    1  UNL1       -0.0031
      7 C           7.1481   -3.1802   25.8746 C.ar    1  UNL1       -0.0218
      8 C           7.2609   -4.5329   25.2363 C.ar    1  UNL1        0.0091
      9 C           7.1238   -5.8830   25.8755 C.3     1  UNL1        0.0292
     10 C           6.8402   -6.2137   27.3109 C.3     1  UNL1        0.0062
     11 C           6.6235   -5.2761   28.4614 C.3     1  UNL1        0.0166
     12 C           6.6370   -3.7762   28.4609 C.3     1  UNL1        0.0619
     13 C           6.8704   -2.8434   27.3097 C.3     1  UNL1        0.0421
     14 N           6.3834   -3.1226   29.7870 N.3     1  UNL1       -0.2713
     15 C           5.8965   -1.7049   29.8435 C.3     1  UNL1        0.0896
     16 C           5.6430   -1.0513   31.1697 C.3     1  UNL1        0.0897
     17 N           5.8764   -1.8154   32.4393 N.3     1  UNL1       -0.2691
     18 C           5.6228   -1.1618   33.7653 C.3     1  UNL1        0.0897
     19 C           6.3633   -3.2331   32.3827 C.3     1  UNL1        0.0897
     20 C           6.6168   -3.8866   31.0565 C.3     1  UNL1        0.0896
     21 C           9.0078   -6.6306   22.9405 C.3     1  UNL1        0.2525
     22 O           7.6597   -6.0009   23.1301 O.3     1  UNL1       -0.4705
     23 C           7.0532   -2.9381   20.4725 C.ar    1  UNL1        0.2219
     24 N           7.5146   -2.6492   19.0748 N.ar    1  UNL1       -0.2110
     25 C           6.5615   -2.0616   18.0767 C.ar    1  UNL1        0.1160
     26 C           5.1468   -1.7629   18.4763 C.ar    1  UNL1        0.1082
     27 CL          4.1937   -1.1753   17.4781 Cl      1  UNL1       -0.0777
     28 C           4.6853   -2.0518   19.8740 C.ar    1  UNL1        0.1435
     29 N           5.6385   -2.6394   20.8721 N.ar    1  UNL1       -0.1979
     30 N           3.2708   -1.7532   20.2736 N.pl3   1  UNL1       -0.3181
     31 H           2.5269   -2.0167   19.6850 H       1  UNL1        0.1482
     32 C           2.9895   -1.0532   21.5700 C.3     1  UNL1        0.0832
     33 C           2.0285    0.0812   21.7691 C.3     1  UNL1        0.0984
     34 C           2.0649    0.4709   23.2172 C.3     1  UNL1        0.0323
     35 C           2.6952    0.1595   24.5422 C.2     1  UNL1       -0.0304
     36 C           3.6562   -0.9749   24.3431 C.2     1  UNL1       -0.0294
     37 C           3.6198   -1.3646   22.8951 C.3     1  UNL1        0.0404
     38 C           2.6363   -0.4710   22.1992 C.3     1  UNL1        0.0109
     39 C           1.1800    0.7148   20.7066 C.2     1  UNL1        0.2208
     40 N          -0.1681    0.1422   20.3829 N.am    1  UNL1       -0.3288
     41 O           1.6796    1.9209   19.9680 O.2     1  UNL1       -0.2753
     42 H          -0.4960   -0.6494   20.8677 H       1  UNL1        0.1449
     43 H          -0.7249    0.5580   19.6856 H       1  UNL1        0.1449
@<TRIPOS>BOND
     1    21    22    1
     2    22     3    1
     3     3     4   ar
     4     4     1    1
     5     1    23    1
     6    23    24   ar
     7    24    25   ar
     8    25    26   ar
     9    26    27    1
    10    26    28   ar
    11    28    30    1
    12    32    30    1
    13    32    33    1
    14    33    39    1
    15    39    40   am
    16    39    41    2
    17    33    34    1
    18    34    35    1
    19    35    36    2
    20    37    36    1
    21    37    38    1
    22    28    29   ar
    23     4     5   ar
    24     5     6   ar
    25     6     7   ar
    26     7     8   ar
    27     8     9    1
    28     9    10    1
    29    10    11    1
    30    11    12    1
    31    12    14    1
    32    14    15    1
    33    15    16    1
    34    16    17    1
    35    17    18    1
    36    17    19    1
    37    19    20    1
    38    12    13    1
    39     8     3   ar
    40    20    14    1
    41    29    23   ar
    42    13     7    1
    43    37    32    1
    44    38    34    1
    45     1     2    1
    46    30    31    1
    47    40    42    1
    48    40    43    1
@<TRIPOS>MOLECULE
*****
 43 48 0 0 0
SMALL
GASTEIGER

@<TRIPOS>ATOM
      1 N           8.3105   -3.5901   21.5660 N.pl3   1  UNL1       -0.2801
      2 H           9.1475   -4.0270   21.2871 H       1  UNL1        0.1552
      3 C           7.6523   -4.6814   23.8301 C.ar    1  UNL1        0.1477
      4 C           7.9819   -3.4602   23.0238 C.ar    1  UNL1        0.0846
      5 C           7.9828   -2.1091   23.6753 C.ar    1  UNL1        0.0174
      6 C           7.6541   -1.9791   25.1331 C.ar    1  UNL1       -0.0031
      7 C           7.3245   -3.2004   25.9393 C.ar    1  UNL1       -0.0218
      8 C           7.3237   -4.5514   25.2878 C.ar    1  UNL1        0.0091
      9 C           7.0260   -5.8865   25.9036 C.3     1  UNL1        0.0292
     10 C           6.6557   -6.2001   27.3230 C.3     1  UNL1        0.0062
     11 C           6.4916   -5.2562   28.4770 C.3     1  UNL1        0.0166
     12 C           6.6573   -3.7655   28.4969 C.3     1  UNL1        0.0619
     13 C           7.0280   -2.8505   27.3675 C.3     1  UNL1        0.0421
     14 N           6.4211   -3.1020   29.8212 N.3     1  UNL1       -0.2713
     15 C           6.5920   -3.8811   31.0916 C.3     1  UNL1        0.0896
     16 C           6.3557   -3.2175   32.4160 C.3     1  UNL1        0.0897
     17 N           5.9486   -1.7749   32.4700 N.3     1  UNL1       -0.2691
     18 C           5.7123   -1.1114   33.7944 C.3     1  UNL1        0.0897
     19 C           5.7777   -0.9957   31.1997 C.3     1  UNL1        0.0897
     20 C           6.0139   -1.6593   29.8753 C.3     1  UNL1        0.0896
     21 C           8.9368   -6.7888   23.0185 C.3     1  UNL1        0.2525
     22 O           7.6514   -6.0326   23.1786 O.3     1  UNL1       -0.4705
     23 C           7.3639   -3.0542   20.5332 C.ar    1  UNL1        0.2219
     24 N           7.8981   -2.4301   19.2781 N.ar    1  UNL1       -0.2110
     25 C           6.9515   -1.8942   18.2453 C.ar    1  UNL1        0.1160
     26 C           5.4707   -1.9824   18.4675 C.ar    1  UNL1        0.1082
     27 CL          4.5240   -1.4465   17.4347 Cl      1  UNL1       -0.0777
     28 C           4.9364   -2.6064   19.7226 C.ar    1  UNL1        0.1435
     29 N           5.8830   -3.1423   20.7555 N.ar    1  UNL1       -0.1979
     30 N           3.4556   -2.6946   19.9449 N.pl3   1  UNL1       -0.3181
     31 H           2.9673   -3.5104   19.6896 H       1  UNL1        0.1482
     32 C           2.7189   -1.5399   20.5562 C.3     1  UNL1        0.0832
     33 C           3.1231   -0.7904   21.7910 C.3     1  UNL1        0.0984
     34 C           2.1026    0.2809   22.0380 C.3     1  UNL1        0.0323
     35 C           0.8322    0.8889   21.5217 C.2     1  UNL1       -0.0304
     36 C           0.4280    0.1394   20.2869 C.2     1  UNL1       -0.0294
     37 C           1.4485   -0.9319   20.0399 C.3     1  UNL1        0.0404
     38 C           2.4835   -0.8444   21.1222 C.3     1  UNL1        0.0109
     39 C           4.3351   -1.0640   22.6315 C.2     1  UNL1        0.2208
     40 N           5.5967   -0.2851   22.4043 N.am    1  UNL1       -0.3288
     41 O           4.2854   -2.1166   23.6990 O.2     1  UNL1       -0.2753
     42 H           5.6293    0.4057   21.7037 H       1  UNL1        0.1449
     43 H           6.3922   -0.4647   22.9559 H       1  UNL1        0.1449
@<TRIPOS>BOND
     1    21    22    1
     2    22     3    1
     3     3     4   ar
     4     4     1    1
     5     1    23    1
     6    23    24   ar
     7    24    25   ar
     8    25    26   ar
     9    26    27    1
    10    26    28   ar
    11    28    30    1
    12    32    30    1
    13    32    33    1
    14    33    39    1
    15    39    40   am
    16    39    41    2
    17    33    34    1
    18    34    35    1
    19    35    36    2
    20    37    36    1
    21    37    38    1
    22    28    29   ar
    23     4     5   ar
    24     5     6   ar
    25     6     7   ar
    26     7     8   ar
    27     8     9    1
    28     9    10    1
    29    10    11    1
    30    11    12    1
    31    12    14    1
    32    14    15    1
    33    15    16    1
    34    16    17    1
    35    17    18    1
    36    17    19    1
    37    19    20    1
    38    12    13    1
    39     8     3   ar
    40    20    14    1
    41    29    23   ar
    42    13     7    1
    43    37    32    1
    44    38    34    1
    45     1     2    1
    46    30    31    1
    47    40    42    1
    48    40    43    1
@<TRIPOS>MOLECULE
*****
 43 48 0 0 0
SMALL
GASTEIGER

@<TRIPOS>ATOM
      1 N           1.2229    0.3119   19.3385 N.pl3   1  UNL1       -0.2801
      2 H           0.9724   -0.0937   18.4771 H       1  UNL1        0.1552
      3 C           3.2201   -1.3090   19.7050 C.ar    1  UNL1        0.1477
      4 C           2.1574   -0.4097   20.2636 C.ar    1  UNL1        0.0846
      5 C           2.0294   -0.2319   21.7476 C.ar    1  UNL1        0.0174
      6 C           2.9639   -0.9534   22.6728 C.ar    1  UNL1       -0.0031
      7 C           4.0266   -1.8527   22.1140 C.ar    1  UNL1       -0.0218
      8 C           4.1546   -2.0304   20.6302 C.ar    1  UNL1        0.0091
      9 C           5.1360   -2.8729   19.8704 C.3     1  UNL1        0.0292
     10 C           6.2317   -3.7456   20.4069 C.3     1  UNL1        0.0062
     11 C           6.6166   -3.9915   21.8356 C.3     1  UNL1        0.0166
     12 C           6.0009   -3.4253   23.0808 C.3     1  UNL1        0.0619
     13 C           4.8482   -2.4735   23.2047 C.3     1  UNL1        0.0421
     14 N           6.6197   -3.8698   24.3729 N.3     1  UNL1       -0.2713
     15 C           6.3996   -3.0714   25.6236 C.3     1  UNL1        0.0896
     16 C           7.0185   -3.5159   26.9158 C.3     1  UNL1        0.0897
     17 N           7.8573   -4.7587   26.9572 N.3     1  UNL1       -0.2691
     18 C           8.4761   -5.2032   28.2492 C.3     1  UNL1        0.0897
     19 C           8.0774   -5.5571   25.7065 C.3     1  UNL1        0.0897
     20 C           7.4586   -5.1126   24.4143 C.3     1  UNL1        0.0896
     21 C           4.0236   -0.4325   17.3950 C.3     1  UNL1        0.2525
     22 O           3.3482   -1.4867   18.2210 O.3     1  UNL1       -0.4705
     23 C           0.6700    1.6514   19.7258 C.ar    1  UNL1        0.2219
     24 N           1.4416    2.8997   19.4150 N.ar    1  UNL1       -0.2110
     25 C           0.8887    4.2391   19.8023 C.ar    1  UNL1        0.1160
     26 C          -0.4358    4.3305   20.5004 C.ar    1  UNL1        0.1082
     27 CL         -0.9887    5.6700   20.8877 Cl      1  UNL1       -0.0777
     28 C          -1.2074    3.0822   20.8113 C.ar    1  UNL1        0.1435
     29 N          -0.6545    1.7427   20.4240 N.ar    1  UNL1       -0.1979
     30 N          -2.5319    3.1735   21.5094 N.pl3   1  UNL1       -0.3181
     31 H          -2.5805    3.0740   22.4877 H       1  UNL1        0.1482
     32 C          -3.7822    3.4162   20.7172 C.3     1  UNL1        0.0832
     33 C          -5.1675    3.5527   21.2760 C.3     1  UNL1        0.0984
     34 C          -6.1082    3.7860   20.1311 C.3     1  UNL1        0.0323
     35 C          -6.1927    3.9349   18.6409 C.2     1  UNL1       -0.0304
     36 C          -4.8074    3.7984   18.0822 C.2     1  UNL1       -0.0294
     37 C          -3.8667    3.5651   19.2270 C.3     1  UNL1        0.0404
     38 C          -4.6707    3.5575   20.4934 C.3     1  UNL1        0.0109
     39 C          -5.5457    3.4704   22.7252 C.2     1  UNL1        0.2208
     40 N          -6.9166    3.8888   23.1675 N.am    1  UNL1       -0.3288
     41 O          -4.5531    2.9697   23.7321 O.2     1  UNL1       -0.2753
     42 H          -7.5681    4.2175   22.5066 H       1  UNL1        0.1449
     43 H          -7.1649    3.8348   24.1186 H       1  UNL1        0.1449
@<TRIPOS>BOND
     1    21    22    1
     2    22     3    1
     3     3     4   ar
     4     4     1    1
     5     1    23    1
     6    23    24   ar
     7    24    25   ar
     8    25    26   ar
     9    26    27    1
    10    26    28   ar
    11    28    30    1
    12    32    30    1
    13    32    33    1
    14    33    39    1
    15    39    40   am
    16    39    41    2
    17    33    34    1
    18    34    35    1
    19    35    36    2
    20    37    36    1
    21    37    38    1
    22    28    29   ar
    23     4     5   ar
    24     5     6   ar
    25     6     7   ar
    26     7     8   ar
    27     8     9    1
    28     9    10    1
    29    10    11    1
    30    11    12    1
    31    12    14    1
    32    14    15    1
    33    15    16    1
    34    16    17    1
    35    17    18    1
    36    17    19    1
    37    19    20    1
    38    12    13    1
    39     8     3   ar
    40    20    14    1
    41    29    23   ar
    42    13     7    1
    43    37    32    1
    44    38    34    1
    45     1     2    1
    46    30    31    1
    47    40    42    1
    48    40    43    1
@<TRIPOS>MOLECULE
*****
 43 48 0 0 0
SMALL
GASTEIGER

@<TRIPOS>ATOM
      1 N           2.0109   -0.7201   29.1547 N.pl3   1  UNL1       -0.2801
      2 H           2.3192   -1.5264   28.6814 H       1  UNL1        0.1552
      3 C           1.4866    1.1842   27.4668 C.ar    1  UNL1        0.1477
      4 C           1.0241    0.2017   28.5016 C.ar    1  UNL1        0.0846
      5 C          -0.4252    0.1410   28.8834 C.ar    1  UNL1        0.0174
      6 C          -1.4121    1.0628   28.2303 C.ar    1  UNL1       -0.0031
      7 C          -0.9495    2.0453   27.1955 C.ar    1  UNL1       -0.0218
      8 C           0.4997    2.1060   26.8138 C.ar    1  UNL1        0.0091
      9 C           1.1668    3.0034   25.8139 C.3     1  UNL1        0.0292
     10 C           0.5491    4.0618   24.9488 C.3     1  UNL1        0.0062
     11 C          -0.8880    4.4841   24.8700 C.3     1  UNL1        0.0166
     12 C          -2.0625    3.9524   25.6367 C.3     1  UNL1        0.0619
     13 C          -2.0899    2.8670   26.6717 C.3     1  UNL1        0.0421
     14 N          -3.3844    4.5904   25.3276 N.3     1  UNL1       -0.2713
     15 C          -3.4666    6.0697   25.0932 C.3     1  UNL1        0.0896
     16 C          -4.7886    6.7077   24.7840 C.3     1  UNL1        0.0897
     17 N          -6.0282    5.8665   24.7093 N.3     1  UNL1       -0.2691
     18 C          -7.3501    6.5045   24.4002 C.3     1  UNL1        0.0897
     19 C          -5.9460    4.3871   24.9437 C.3     1  UNL1        0.0897
     20 C          -4.6240    3.7491   25.2529 C.3     1  UNL1        0.0896
     21 C           3.5024    0.2379   26.1286 C.3     1  UNL1        0.2525
     22 O           2.9359    1.2450   27.0851 O.3     1  UNL1       -0.4705
     23 C           2.5280   -0.4133   30.5289 C.ar    1  UNL1        0.2219
     24 N           2.1215    0.8561   31.2172 N.ar    1  UNL1       -0.2110
     25 C           2.6386    1.1629   32.5914 C.ar    1  UNL1        0.1160
     26 C           3.5622    0.2004   33.2774 C.ar    1  UNL1        0.1082
     27 CL          4.0793    0.5072   34.6516 Cl      1  UNL1       -0.0777
     28 C           3.9687   -1.0689   32.5892 C.ar    1  UNL1        0.1435
     29 N           3.4516   -1.3758   31.2150 N.ar    1  UNL1       -0.1979
     30 N           4.8922   -2.0315   33.2752 N.pl3   1  UNL1       -0.3181
     31 H           4.5255   -2.7351   33.8579 H       1  UNL1        0.1482
     32 C           6.3745   -1.9220   33.0732 C.3     1  UNL1        0.0832
     33 C           7.2334   -2.8838   32.3070 C.3     1  UNL1        0.0984
     34 C           8.6479   -2.3876   32.3623 C.3     1  UNL1        0.0323
     35 C           9.5315   -1.2970   32.8912 C.2     1  UNL1       -0.0304
     36 C           8.6726   -0.3352   33.6574 C.2     1  UNL1       -0.0294
     37 C           7.2581   -0.8313   33.6021 C.3     1  UNL1        0.0404
     38 C           7.2429   -2.0999   32.8016 C.3     1  UNL1        0.0109
     39 C           6.7608   -4.1241   31.6080 C.2     1  UNL1        0.2208
     40 N           6.5375   -5.3856   32.3881 N.am    1  UNL1       -0.3288
     41 O           6.5115   -4.1027   30.1291 O.2     1  UNL1       -0.2753
     42 H           6.7012   -5.3997   33.3588 H       1  UNL1        0.1449
     43 H           6.2274   -6.1997   31.9294 H       1  UNL1        0.1449
@<TRIPOS>BOND
     1    21    22    1
     2    22     3    1
     3     3     4   ar
     4     4     1    1
     5     1    23    1
     6    23    24   ar
     7    24    25   ar
     8    25    26   ar
     9    26    27    1
    10    26    28   ar
    11    28    30    1
    12    32    30    1
    13    32    33    1
    14    33    39    1
    15    39    40   am
    16    39    41    2
    17    33    34    1
    18    34    35    1
    19    35    36    2
    20    37    36    1
    21    37    38    1
    22    28    29   ar
    23     4     5   ar
    24     5     6   ar
    25     6     7   ar
    26     7     8   ar
    27     8     9    1
    28     9    10    1
    29    10    11    1
    30    11    12    1
    31    12    14    1
    32    14    15    1
    33    15    16    1
    34    16    17    1
    35    17    18    1
    36    17    19    1
    37    19    20    1
    38    12    13    1
    39     8     3   ar
    40    20    14    1
    41    29    23   ar
    42    13     7    1
    43    37    32    1
    44    38    34    1
    45     1     2    1
    46    30    31    1
    47    40    42    1
    48    40    43    1
@<TRIPOS>MOLECULE
*****
 43 48 0 0 0
SMALL
GASTEIGER

@<TRIPOS>ATOM
      1 N           4.3724   -0.7145   24.6504 N.pl3   1  UNL1       -0.2801
      2 H           5.0319   -0.6359   25.3772 H       1  UNL1        0.1552
      3 C           2.5724    0.5363   26.0454 C.ar    1  UNL1        0.1477
      4 C           3.0831    0.0488   24.7219 C.ar    1  UNL1        0.0846
      5 C           2.3045    0.3245   23.4698 C.ar    1  UNL1        0.0174
      6 C           1.0151    1.0878   23.5412 C.ar    1  UNL1       -0.0031
      7 C           0.5045    1.5753   24.8648 C.ar    1  UNL1       -0.0218
      8 C           1.2831    1.2995   26.1167 C.ar    1  UNL1        0.0091
      9 C           0.9561    1.6921   27.5271 C.3     1  UNL1        0.0292
     10 C          -0.2304    2.4575   28.0336 C.3     1  UNL1        0.0062
     11 C          -1.3828    3.0192   27.2550 C.3     1  UNL1        0.0166
     12 C          -1.6335    2.9544   25.7775 C.3     1  UNL1        0.0619
     13 C          -0.7935    2.3118   24.7137 C.3     1  UNL1        0.0421
     14 N          -2.8901    3.6202   25.3007 N.3     1  UNL1       -0.2713
     15 C          -3.9811    3.9494   26.2762 C.3     1  UNL1        0.0896
     16 C          -5.2378    4.6152   25.7994 C.3     1  UNL1        0.0897
     17 N          -5.4037    4.9519   24.3471 N.3     1  UNL1       -0.2691
     18 C          -6.6603    5.6177   23.8703 C.3     1  UNL1        0.0897
     19 C          -4.3127    4.6227   23.3716 C.3     1  UNL1        0.0897
     20 C          -3.0560    3.9569   23.8484 C.3     1  UNL1        0.0896
     21 C           3.2089   -1.0606   27.9933 C.3     1  UNL1        0.2525
     22 O           3.3510    0.2605   27.2975 O.3     1  UNL1       -0.4705
     23 C           4.6569   -1.5974   23.4716 C.ar    1  UNL1        0.2219
     24 N           5.8244   -2.5387   23.5039 N.ar    1  UNL1       -0.2110
     25 C           6.1089   -3.4215   22.3252 C.ar    1  UNL1        0.1160
     26 C           5.2259   -3.3632   21.1140 C.ar    1  UNL1        0.1082
     27 CL          5.5103   -4.2461   19.9352 Cl      1  UNL1       -0.0777
     28 C           4.0583   -2.4220   21.0816 C.ar    1  UNL1        0.1435
     29 N           3.7738   -1.5390   22.2604 N.ar    1  UNL1       -0.1979
     30 N           3.1753   -2.3636   19.8705 N.pl3   1  UNL1       -0.3181
     31 H           3.0485   -3.1662   19.3147 H       1  UNL1        0.1482
     32 C           2.4854   -1.0825   19.5063 C.3     1  UNL1        0.0832
     33 C           2.9116   -0.1261   18.4322 C.3     1  UNL1        0.0984
     34 C           1.9378    1.0147   18.4143 C.3     1  UNL1        0.0323
     35 C           0.7007    1.5645   19.0603 C.2     1  UNL1       -0.0304
     36 C           0.2746    0.6081   20.1344 C.2     1  UNL1       -0.0294
     37 C           1.2483   -0.5327   20.1523 C.3     1  UNL1        0.0404
     38 C           2.2763   -0.2814   19.0892 C.3     1  UNL1        0.0109
     39 C           4.1024   -0.2830   17.5336 C.2     1  UNL1        0.2208
     40 N           5.4277    0.2919   17.9375 N.am    1  UNL1       -0.3288
     41 O           3.9679   -1.0148   16.2312 O.2     1  UNL1       -0.2753
     42 H           5.5159    0.7722   18.7924 H       1  UNL1        0.1449
     43 H           6.2092    0.1890   17.3478 H       1  UNL1        0.1449
@<TRIPOS>BOND
     1    21    22    1
     2    22     3    1
     3     3     4   ar
     4     4     1    1
     5     1    23    1
     6    23    24   ar
     7    24    25   ar
     8    25    26   ar
     9    26    27    1
    10    26    28   ar
    11    28    30    1
    12    32    30    1
    13    32    33    1
    14    33    39    1
    15    39    40   am
    16    39    41    2
    17    33    34    1
    18    34    35    1
    19    35    36    2
    20    37    36    1
    21    37    38    1
    22    28    29   ar
    23     4     5   ar
    24     5     6   ar
    25     6     7   ar
    26     7     8   ar
    27     8     9    1
    28     9    10    1
    29    10    11    1
    30    11    12    1
    31    12    14    1
    32    14    15    1
    33    15    16    1
    34    16    17    1
    35    17    18    1
    36    17    19    1
    37    19    20    1
    38    12    13    1
    39     8     3   ar
    40    20    14    1
    41    29    23   ar
    42    13     7    1
    43    37    32    1
    44    38    34    1
    45     1     2    1
    46    30    31    1
    47    40    42    1
    48    40    43    1
@<TRIPOS>MOLECULE
*****
 43 48 0 0 0
SMALL
GASTEIGER

@<TRIPOS>ATOM
      1 N           0.9995    1.9666   32.7916 N.pl3   1  UNL1       -0.2801
      2 H           0.2005    1.5825   33.2196 H       1  UNL1        0.1552
      3 C           2.6266    0.5941   31.3019 C.ar    1  UNL1        0.1477
      4 C           1.4286    1.4867   31.4368 C.ar    1  UNL1        0.0846
      5 C           0.6597    1.8995   30.2168 C.ar    1  UNL1        0.0174
      6 C           1.0887    1.4196   28.8619 C.ar    1  UNL1       -0.0031
      7 C           2.2867    0.5270   28.7271 C.ar    1  UNL1       -0.0218
      8 C           3.0556    0.1143   29.9470 C.ar    1  UNL1        0.0091
      9 C           4.2694   -0.7626   30.0353 C.3     1  UNL1        0.0292
     10 C           5.0141   -1.4433   28.9252 C.3     1  UNL1        0.0062
     11 C           4.7289   -1.4152   27.4529 C.3     1  UNL1        0.0166
     12 C           3.6286   -0.6995   26.7269 C.3     1  UNL1        0.0619
     13 C           2.5417    0.1648   27.2939 C.3     1  UNL1        0.0421
     14 N           3.6131   -0.8709   25.2368 N.3     1  UNL1       -0.2713
     15 C           2.7106   -0.0199   24.3933 C.3     1  UNL1        0.0896
     16 C           2.6952   -0.1913   22.9032 C.3     1  UNL1        0.0897
     17 N           3.5821   -1.2136   22.2565 N.3     1  UNL1       -0.2691
     18 C           3.5666   -1.3850   20.7665 C.3     1  UNL1        0.0897
     19 C           4.4846   -2.0646   23.1000 C.3     1  UNL1        0.0897
     20 C           4.5001   -1.8932   24.5902 C.3     1  UNL1        0.0896
     21 C           4.5542    1.0088   32.9936 C.3     1  UNL1        0.2525
     22 O           3.3955    0.1814   32.5219 O.3     1  UNL1       -0.4705
     23 C           1.7879    3.0319   33.4943 C.ar    1  UNL1        0.2219
     24 N           2.2738    4.2301   32.7338 N.ar    1  UNL1       -0.2110
     25 C           3.0621    5.2953   33.4364 C.ar    1  UNL1        0.1160
     26 C           3.3646    5.1624   34.8996 C.ar    1  UNL1        0.1082
     27 CL          4.1530    6.2277   35.6022 Cl      1  UNL1       -0.0777
     28 C           2.8788    3.9642   35.6601 C.ar    1  UNL1        0.1435
     29 N           2.0905    2.8990   34.9574 N.ar    1  UNL1       -0.1979
     30 N           3.1813    3.8313   37.1232 N.pl3   1  UNL1       -0.3181
     31 H           3.7538    4.4961   37.5699 H       1  UNL1        0.1482
     32 C           2.6117    2.6854   37.9058 C.3     1  UNL1        0.0832
     33 C           3.2177    1.3196   38.0371 C.3     1  UNL1        0.0984
     34 C           2.3165    0.4943   38.9069 C.3     1  UNL1        0.0323
     35 C           1.0407    0.5131   39.6956 C.2     1  UNL1       -0.0304
     36 C           0.4347    1.8789   39.5643 C.2     1  UNL1       -0.0294
     37 C           1.3359    2.7042   38.6945 C.3     1  UNL1        0.0404
     38 C           2.4989    1.8484   38.2882 C.3     1  UNL1        0.0109
     39 C           4.4999    0.8598   37.4088 C.2     1  UNL1        0.2208
     40 N           5.7959    1.5156   37.7833 N.am    1  UNL1       -0.3288
     41 O           4.4860   -0.2557   36.4061 O.2     1  UNL1       -0.2753
     42 H           5.8051    2.2477   38.4413 H       1  UNL1        0.1449
     43 H           6.6375    1.2138   37.3709 H       1  UNL1        0.1449
@<TRIPOS>BOND
     1    21    22    1
     2    22     3    1
     3     3     4   ar
     4     4     1    1
     5     1    23    1
     6    23    24   ar
     7    24    25   ar
     8    25    26   ar
     9    26    27    1
    10    26    28   ar
    11    28    30    1
    12    32    30    1
    13    32    33    1
    14    33    39    1
    15    39    40   am
    16    39    41    2
    17    33    34    1
    18    34    35    1
    19    35    36    2
    20    37    36    1
    21    37    38    1
    22    28    29   ar
    23     4     5   ar
    24     5     6   ar
    25     6     7   ar
    26     7     8   ar
    27     8     9    1
    28     9    10    1
    29    10    11    1
    30    11    12    1
    31    12    14    1
    32    14    15    1
    33    15    16    1
    34    16    17    1
    35    17    18    1
    36    17    19    1
    37    19    20    1
    38    12    13    1
    39     8     3   ar
    40    20    14    1
    41    29    23   ar
    42    13     7    1
    43    37    32    1
    44    38    34    1
    45     1     2    1
    46    30    31    1
    47    40    42    1
    48    40    43    1
@<TRIPOS>MOLECULE
*****
 43 48 0 0 0
SMALL
GASTEIGER

@<TRIPOS>ATOM
      1 N           5.9632   -3.3231   26.7879 N.pl3   1  UNL1       -0.2801
      2 H           5.9194   -4.3065   26.7990 H       1  UNL1        0.1552
      3 C           6.2170   -2.8182   29.3239 C.ar    1  UNL1        0.1477
      4 C           5.5621   -2.5407   28.0032 C.ar    1  UNL1        0.0846
      5 C           4.5060   -1.4806   27.8978 C.ar    1  UNL1        0.0174
      6 C           4.1049   -0.6981   29.1131 C.ar    1  UNL1       -0.0031
      7 C           4.7598   -0.9758   30.4337 C.ar    1  UNL1       -0.0218
      8 C           5.8157   -2.0358   30.5391 C.ar    1  UNL1        0.0091
      9 C           6.5888   -2.4688   31.7495 C.3     1  UNL1        0.0292
     10 C           6.4965   -1.9487   33.1535 C.3     1  UNL1        0.0062
     11 C           5.6087   -0.8673   33.6937 C.3     1  UNL1        0.0166
     12 C           4.5936   -0.0386   32.9635 C.3     1  UNL1        0.0619
     13 C           4.2158   -0.0869   31.5127 C.3     1  UNL1        0.0421
     14 N           3.8594    0.9718   33.7939 N.3     1  UNL1       -0.2713
     15 C           4.2556    1.1989   35.2228 C.3     1  UNL1        0.0896
     16 C           3.5212    2.2094   36.0532 C.3     1  UNL1        0.0897
     17 N           2.3907    2.9929   35.4549 N.3     1  UNL1       -0.2691
     18 C           1.6564    4.0034   36.2853 C.3     1  UNL1        0.0897
     19 C           1.9945    2.7659   34.0261 C.3     1  UNL1        0.0897
     20 C           2.7288    1.7553   33.1956 C.3     1  UNL1        0.0896
     21 C           6.8785   -5.3175   29.5799 C.3     1  UNL1        0.2525
     22 O           7.2730   -3.8783   29.4293 O.3     1  UNL1       -0.4705
     23 C           6.4311   -2.6070   25.5557 C.ar    1  UNL1        0.2219
     24 N           7.3815   -1.4525   25.6744 N.ar    1  UNL1       -0.2110
     25 C           7.8494   -0.7365   24.4423 C.ar    1  UNL1        0.1160
     26 C           7.3669   -1.1749   23.0913 C.ar    1  UNL1        0.1082
     27 CL          7.8348   -0.4588   21.8591 Cl      1  UNL1       -0.0777
     28 C           6.4165   -2.3294   22.9725 C.ar    1  UNL1        0.1435
     29 N           5.9486   -3.0454   24.2047 N.ar    1  UNL1       -0.1979
     30 N           5.9341   -2.7678   21.6216 N.pl3   1  UNL1       -0.3181
     31 H           6.4606   -3.4128   21.0964 H       1  UNL1        0.1482
     32 C           4.6494   -2.2235   21.0710 C.3     1  UNL1        0.0832
     33 C           4.1154   -2.4530   19.6882 C.3     1  UNL1        0.0984
     34 C           2.8091   -1.7254   19.5690 C.3     1  UNL1        0.0323
     35 C           1.8328   -0.8561   20.3046 C.2     1  UNL1       -0.0304
     36 C           2.3667   -0.6266   21.6874 C.2     1  UNL1       -0.0294
     37 C           3.6731   -1.3541   21.8065 C.3     1  UNL1        0.0404
     38 C           3.9465   -2.0333   20.4972 C.3     1  UNL1        0.0109
     39 C           4.7725   -3.2671   18.6131 C.2     1  UNL1        0.2208
     40 N           4.4527   -4.7262   18.4761 N.am    1  UNL1       -0.3288
     41 O           5.7492   -2.6220   17.6751 O.2     1  UNL1       -0.2753
     42 H           3.8116   -5.1495   19.0918 H       1  UNL1        0.1449
     43 H           4.8839   -5.2605   17.7706 H       1  UNL1        0.1449
@<TRIPOS>BOND
     1    21    22    1
     2    22     3    1
     3     3     4   ar
     4     4     1    1
     5     1    23    1
     6    23    24   ar
     7    24    25   ar
     8    25    26   ar
     9    26    27    1
    10    26    28   ar
    11    28    30    1
    12    32    30    1
    13    32    33    1
    14    33    39    1
    15    39    40   am
    16    39    41    2
    17    33    34    1
    18    34    35    1
    19    35    36    2
    20    37    36    1
    21    37    38    1
    22    28    29   ar
    23     4     5   ar
    24     5     6   ar
    25     6     7   ar
    26     7     8   ar
    27     8     9    1
    28     9    10    1
    29    10    11    1
    30    11    12    1
    31    12    14    1
    32    14    15    1
    33    15    16    1
    34    16    17    1
    35    17    18    1
    36    17    19    1
    37    19    20    1
    38    12    13    1
    39     8     3   ar
    40    20    14    1
    41    29    23   ar
    42    13     7    1
    43    37    32    1
    44    38    34    1
    45     1     2    1
    46    30    31    1
    47    40    42    1
    48    40    43    1
