@<TRIPOS>MOLECULE
*****
 27 26 0 0 0
SMALL
GASTEIGER

@<TRIPOS>ATOM
      1 C         -10.5228  -19.1728   20.4376 C.3     1  UNL1        0.0026
      2 C          -9.9352  -19.6532   19.1438 C.3     1  UNL1        0.0325
      3 C          -8.4516  -19.8333   19.0149 C.3     1  UNL1        0.1491
      4 O          -7.6160  -20.0718   20.2375 O.3     1  UNL1       -0.3141
      5 P          -6.2611  -19.4392   20.3551 P.3     1  UNL1        0.2142
      6 O          -5.6183  -20.7827   20.1774 O.2     1  UNL1       -0.5172
      7 O          -6.9039  -18.0956   20.5327 O.co2   1  UNL1       -0.4373
      8 O          -4.9062  -18.8064   20.4726 O.3     1  UNL1       -0.3077
      9 C          -3.6893  -19.6663   20.6454 C.3     1  UNL1        0.2097
     10 C          -2.5416  -19.1825   21.4813 C.3     1  UNL1        0.1423
     11 N          -2.2490  -17.7143   21.5757 N.4     1  UNL1        0.3125
     12 C          -2.8660  -17.6792   22.9425 C.3     1  UNL1        0.1711
     13 C          -1.6320  -17.7494   20.2089 C.3     1  UNL1        0.1711
     14 C          -1.9564  -16.2462   21.6700 C.3     1  UNL1        0.1711
     15 C         -10.7612  -20.1409   21.5582 C.3     1  UNL1        0.0001
     16 C         -10.1706  -19.8809   22.9124 C.3     1  UNL1        0.0000
     17 C         -11.0470  -19.9023   24.1295 C.3     1  UNL1        0.0000
     18 C         -11.8159  -18.6755   24.5219 C.3     1  UNL1        0.0000
     19 C         -12.9454  -18.1914   23.6618 C.3     1  UNL1        0.0000
     20 C         -12.6883  -17.1769   22.5873 C.3     1  UNL1        0.0000
     21 C         -11.6725  -16.0948   22.8050 C.3     1  UNL1        0.0000
     22 C         -10.4183  -16.0670   21.9827 C.3     1  UNL1        0.0000
     23 C          -9.0947  -16.3623   22.6235 C.3     1  UNL1        0.0000
     24 C          -9.0051  -16.5460   24.1095 C.3     1  UNL1        0.0000
     25 C          -8.7004  -15.3729   24.9932 C.3     1  UNL1        0.0000
     26 C          -8.2816  -16.2013   27.4199 C.3     1  UNL1        0.0000
     27 C          -7.7846  -15.5380   26.1697 C.3     1  UNL1        0.0000
@<TRIPOS>UNITY_ATOM_ATTR
7 1
charge -1
11 1
charge 1
@<TRIPOS>BOND
     1    26    27    1
     2    27    25    1
     3    25    24    1
     4    24    23    1
     5    23    22    1
     6    22    21    1
     7    21    20    1
     8    20    19    1
     9    19    18    1
    10    18    17    1
    11    17    16    1
    12    16    15    1
    13    15     1    1
    14     1     2    1
    15     2     3    1
    16     3     4    1
    17     4     5    1
    18     5     6    2
    19     5     7    1
    20     5     8    1
    21     8     9    1
    22     9    10    1
    23    10    11    1
    24    11    12    1
    25    11    13    1
    26    11    14    1
@<TRIPOS>MOLECULE
*****
 27 26 0 0 0
SMALL
GASTEIGER

@<TRIPOS>ATOM
      1 C         -10.3955  -17.9900   20.3250 C.3     1  UNL1        0.0026
      2 C          -9.9738  -19.3672   19.9061 C.3     1  UNL1        0.0325
      3 C          -8.5570  -19.6219   19.4842 C.3     1  UNL1        0.1491
      4 O          -7.4492  -18.7639   20.0196 O.3     1  UNL1       -0.3141
      5 P          -6.5539  -19.2854   21.1041 P.3     1  UNL1        0.2142
      6 O          -6.6696  -17.9772   21.8287 O.2     1  UNL1       -0.5172
      7 O          -6.4382  -20.5936   20.3795 O.co2   1  UNL1       -0.4373
      8 O          -5.6585  -19.8070   22.1887 O.3     1  UNL1       -0.3077
      9 C          -4.3856  -19.0867   22.5215 C.3     1  UNL1        0.2097
     10 C          -3.1876  -19.2302   21.6303 C.3     1  UNL1        0.1423
     11 N          -2.3982  -18.0179   21.2338 N.4     1  UNL1        0.3125
     12 C          -2.8032  -17.3375   22.5078 C.3     1  UNL1        0.1711
     13 C          -1.9933  -18.6982   19.9598 C.3     1  UNL1        0.1711
     14 C          -1.6089  -16.8056   20.8373 C.3     1  UNL1        0.1711
     15 C         -11.8526  -17.6423   20.4001 C.3     1  UNL1        0.0001
     16 C         -12.2954  -16.4264   21.1590 C.3     1  UNL1        0.0000
     17 C         -12.6690  -16.5410   22.6072 C.3     1  UNL1        0.0000
     18 C         -13.1013  -17.8635   23.1679 C.3     1  UNL1        0.0000
     19 C         -12.2596  -18.5510   24.2017 C.3     1  UNL1        0.0000
     20 C         -10.9821  -19.2269   23.8003 C.3     1  UNL1        0.0000
     21 C          -9.6666  -18.5469   24.0394 C.3     1  UNL1        0.0000
     22 C          -9.5374  -17.0677   23.8272 C.3     1  UNL1        0.0000
     23 C          -8.3657  -16.3273   24.4006 C.3     1  UNL1        0.0000
     24 C          -8.5629  -15.3894   25.5546 C.3     1  UNL1        0.0000
     25 C          -8.1236  -15.7914   26.9313 C.3     1  UNL1        0.0000
     26 C          -5.6710  -15.1680   26.3426 C.3     1  UNL1        0.0000
     27 C          -6.6677  -15.7641   27.2919 C.3     1  UNL1        0.0000
@<TRIPOS>UNITY_ATOM_ATTR
7 1
charge -1
11 1
charge 1
@<TRIPOS>BOND
     1    26    27    1
     2    27    25    1
     3    25    24    1
     4    24    23    1
     5    23    22    1
     6    22    21    1
     7    21    20    1
     8    20    19    1
     9    19    18    1
    10    18    17    1
    11    17    16    1
    12    16    15    1
    13    15     1    1
    14     1     2    1
    15     2     3    1
    16     3     4    1
    17     4     5    1
    18     5     6    2
    19     5     7    1
    20     5     8    1
    21     8     9    1
    22     9    10    1
    23    10    11    1
    24    11    12    1
    25    11    13    1
    26    11    14    1
@<TRIPOS>MOLECULE
*****
 27 26 0 0 0
SMALL
GASTEIGER

@<TRIPOS>ATOM
      1 C          -5.8625  -15.1080   26.5498 C.3     1  UNL1        0.0026
      2 C          -5.0451  -15.9109   25.5817 C.3     1  UNL1        0.0325
      3 C          -5.1426  -15.6372   24.1101 C.3     1  UNL1        0.1491
      4 O          -5.0552  -16.7687   23.1293 O.3     1  UNL1       -0.3141
      5 P          -3.7526  -17.4832   22.9229 P.3     1  UNL1        0.2142
      6 O          -4.3791  -18.7617   23.3952 O.2     1  UNL1       -0.5172
      7 O          -3.1261  -16.2048   22.4506 O.co2   1  UNL1       -0.4373
      8 O          -2.4499  -18.1978   22.7165 O.3     1  UNL1       -0.3077
      9 C          -2.4005  -19.4392   21.8760 C.3     1  UNL1        0.2097
     10 C          -1.8646  -19.3765   20.4764 C.3     1  UNL1        0.1423
     11 N          -2.3769  -18.3381   19.5229 N.4     1  UNL1        0.3125
     12 C          -1.0493  -17.6413   19.5684 C.3     1  UNL1        0.1711
     13 C          -3.7045  -19.0348   19.4774 C.3     1  UNL1        0.1711
     14 C          -2.8892  -17.2997   18.5694 C.3     1  UNL1        0.1711
     15 C          -7.0089  -15.7483   27.2748 C.3     1  UNL1        0.0001
     16 C          -8.4131  -15.5408   26.7895 C.3     1  UNL1        0.0000
     17 C          -8.7109  -15.5717   25.3197 C.3     1  UNL1        0.0000
     18 C          -9.1684  -16.8459   24.6738 C.3     1  UNL1        0.0000
     19 C          -9.4941  -18.0408   25.5200 C.3     1  UNL1        0.0000
     20 C         -10.3750  -19.1267   24.9770 C.3     1  UNL1        0.0000
     21 C          -9.7821  -20.2334   24.1562 C.3     1  UNL1        0.0000
     22 C          -8.8449  -19.9125   23.0298 C.3     1  UNL1        0.0000
     23 C          -9.3799  -19.3503   21.7462 C.3     1  UNL1        0.0000
     24 C         -10.7914  -19.6417   21.3304 C.3     1  UNL1        0.0000
     25 C         -11.7075  -18.5177   20.9468 C.3     1  UNL1        0.0000
     26 C         -12.0722  -16.4646   22.4966 C.3     1  UNL1        0.0000
     27 C         -12.5089  -17.8107   21.9995 C.3     1  UNL1        0.0000
@<TRIPOS>UNITY_ATOM_ATTR
7 1
charge -1
11 1
charge 1
@<TRIPOS>BOND
     1    26    27    1
     2    27    25    1
     3    25    24    1
     4    24    23    1
     5    23    22    1
     6    22    21    1
     7    21    20    1
     8    20    19    1
     9    19    18    1
    10    18    17    1
    11    17    16    1
    12    16    15    1
    13    15     1    1
    14     1     2    1
    15     2     3    1
    16     3     4    1
    17     4     5    1
    18     5     6    2
    19     5     7    1
    20     5     8    1
    21     8     9    1
    22     9    10    1
    23    10    11    1
    24    11    12    1
    25    11    13    1
    26    11    14    1
@<TRIPOS>MOLECULE
*****
 27 26 0 0 0
SMALL
GASTEIGER

@<TRIPOS>ATOM
      1 C          -7.7473  -15.3983   23.5403 C.3     1  UNL1        0.0026
      2 C          -6.4917  -15.0508   24.2837 C.3     1  UNL1        0.0325
      3 C          -5.3171  -15.9833   24.2492 C.3     1  UNL1        0.1491
      4 O          -4.3083  -15.8781   23.1441 O.3     1  UNL1       -0.3141
      5 P          -3.2912  -16.9636   22.9514 P.3     1  UNL1        0.2142
      6 O          -2.5795  -16.1169   21.9383 O.2     1  UNL1       -0.5172
      7 O          -4.0030  -17.8104   23.9644 O.co2   1  UNL1       -0.4373
      8 O          -2.2741  -18.0492   22.7586 O.3     1  UNL1       -0.3077
      9 C          -2.6053  -19.2465   21.9178 C.3     1  UNL1        0.2097
     10 C          -1.9762  -19.4108   20.5661 C.3     1  UNL1        0.1423
     11 N          -2.2035  -18.3778   19.5025 N.4     1  UNL1        0.3125
     12 C          -0.7495  -18.0116   19.5476 C.3     1  UNL1        0.1711
     13 C          -3.6574  -18.7439   19.4575 C.3     1  UNL1        0.1711
     14 C          -2.4307  -17.3447   18.4390 C.3     1  UNL1        0.1711
     15 C          -8.8735  -16.0879   24.2517 C.3     1  UNL1        0.0001
     16 C          -9.0148  -17.5787   24.1644 C.3     1  UNL1        0.0000
     17 C         -10.1496  -18.2667   24.8636 C.3     1  UNL1        0.0000
     18 C         -10.4183  -19.7200   24.6065 C.3     1  UNL1        0.0000
     19 C         -10.0987  -20.3164   23.2679 C.3     1  UNL1        0.0000
     20 C         -11.1027  -20.2443   22.1558 C.3     1  UNL1        0.0000
     21 C         -10.7120  -19.6635   20.8291 C.3     1  UNL1        0.0000
     22 C         -10.2313  -18.2452   20.7436 C.3     1  UNL1        0.0000
     23 C         -11.1255  -17.1833   20.1755 C.3     1  UNL1        0.0000
     24 C         -11.7666  -16.1772   21.0849 C.3     1  UNL1        0.0000
     25 C         -12.1965  -16.5798   22.4644 C.3     1  UNL1        0.0000
     26 C         -13.7068  -18.0088   24.0223 C.3     1  UNL1        0.0000
     27 C         -13.3106  -17.5680   22.6444 C.3     1  UNL1        0.0000
@<TRIPOS>UNITY_ATOM_ATTR
7 1
charge -1
11 1
charge 1
@<TRIPOS>BOND
     1    26    27    1
     2    27    25    1
     3    25    24    1
     4    24    23    1
     5    23    22    1
     6    22    21    1
     7    21    20    1
     8    20    19    1
     9    19    18    1
    10    18    17    1
    11    17    16    1
    12    16    15    1
    13    15     1    1
    14     1     2    1
    15     2     3    1
    16     3     4    1
    17     4     5    1
    18     5     6    2
    19     5     7    1
    20     5     8    1
    21     8     9    1
    22     9    10    1
    23    10    11    1
    24    11    12    1
    25    11    13    1
    26    11    14    1
@<TRIPOS>MOLECULE
*****
 27 26 0 0 0
SMALL
GASTEIGER

@<TRIPOS>ATOM
      1 C          -7.9466  -16.1512   27.2865 C.3     1  UNL1        0.0026
      2 C          -6.8813  -15.1092   27.1157 C.3     1  UNL1        0.0325
      3 C          -5.6250  -15.4371   26.3645 C.3     1  UNL1        0.1491
      4 O          -5.4138  -14.8933   24.9826 O.3     1  UNL1       -0.3141
      5 P          -4.8519  -15.7753   23.9073 P.3     1  UNL1        0.2142
      6 O          -4.8839  -14.6241   22.9463 O.2     1  UNL1       -0.5172
      7 O          -4.8199  -16.9265   24.8684 O.co2   1  UNL1       -0.4373
      8 O          -4.2900  -16.6574   22.8320 O.3     1  UNL1       -0.3077
      9 C          -2.8237  -16.6167   22.5186 C.3     1  UNL1        0.2097
     10 C          -2.1412  -17.8319   21.9641 C.3     1  UNL1        0.1423
     11 N          -2.7003  -18.5195   20.7539 N.4     1  UNL1        0.3125
     12 C          -2.3364  -17.3328   19.9116 C.3     1  UNL1        0.1711
     13 C          -3.0643  -19.7061   21.5962 C.3     1  UNL1        0.1711
     14 C          -3.2595  -19.2070   19.5437 C.3     1  UNL1        0.1711
     15 C          -8.7087  -16.6472   26.0936 C.3     1  UNL1        0.0001
     16 C          -9.0414  -15.7078   24.9724 C.3     1  UNL1        0.0000
     17 C          -8.7108  -16.0814   23.5578 C.3     1  UNL1        0.0000
     18 C          -8.1232  -17.4281   23.2555 C.3     1  UNL1        0.0000
     19 C          -8.8988  -18.4184   22.4383 C.3     1  UNL1        0.0000
     20 C          -9.2120  -19.7731   23.0009 C.3     1  UNL1        0.0000
     21 C         -10.5591  -20.0417   23.6037 C.3     1  UNL1        0.0000
     22 C         -11.2067  -19.0123   24.4817 C.3     1  UNL1        0.0000
     23 C         -12.4607  -18.3238   24.0307 C.3     1  UNL1        0.0000
     24 C         -12.4075  -17.3255   22.9123 C.3     1  UNL1        0.0000
     25 C         -12.7115  -17.7558   21.5079 C.3     1  UNL1        0.0000
     26 C         -11.2602  -16.1122   20.1143 C.3     1  UNL1        0.0000
     27 C         -11.7133  -17.5100   20.4155 C.3     1  UNL1        0.0000
@<TRIPOS>UNITY_ATOM_ATTR
7 1
charge -1
11 1
charge 1
@<TRIPOS>BOND
     1    26    27    1
     2    27    25    1
     3    25    24    1
     4    24    23    1
     5    23    22    1
     6    22    21    1
     7    21    20    1
     8    20    19    1
     9    19    18    1
    10    18    17    1
    11    17    16    1
    12    16    15    1
    13    15     1    1
    14     1     2    1
    15     2     3    1
    16     3     4    1
    17     4     5    1
    18     5     6    2
    19     5     7    1
    20     5     8    1
    21     8     9    1
    22     9    10    1
    23    10    11    1
    24    11    12    1
    25    11    13    1
    26    11    14    1
@<TRIPOS>MOLECULE
*****
 27 26 0 0 0
SMALL
GASTEIGER

@<TRIPOS>ATOM
      1 C          -6.0977  -15.6276   26.5268 C.3     1  UNL1        0.0026
      2 C          -5.4032  -15.1494   25.2862 C.3     1  UNL1        0.0325
      3 C          -5.3005  -16.0489   24.0902 C.3     1  UNL1        0.1491
      4 O          -4.1687  -15.8808   23.1204 O.3     1  UNL1       -0.3141
      5 P          -3.2195  -17.0154   22.8716 P.3     1  UNL1        0.2142
      6 O          -3.7992  -17.7565   24.0398 O.2     1  UNL1       -0.5172
      7 O          -2.6399  -16.2742   21.7034 O.co2   1  UNL1       -0.4373
      8 O          -2.2703  -18.1499   22.6227 O.3     1  UNL1       -0.3077
      9 C          -2.4168  -18.9940   21.3914 C.3     1  UNL1        0.2097
     10 C          -3.5627  -19.9546   21.2726 C.3     1  UNL1        0.1423
     11 N          -4.8695  -19.4957   20.6967 N.4     1  UNL1        0.3125
     12 C          -4.1545  -18.9858   19.4807 C.3     1  UNL1        0.1711
     13 C          -5.5845  -20.0056   21.9127 C.3     1  UNL1        0.1711
     14 C          -6.1763  -19.0367   20.1208 C.3     1  UNL1        0.1711
     15 C          -7.5770  -15.4325   26.6806 C.3     1  UNL1        0.0001
     16 C          -8.5268  -16.4897   26.2005 C.3     1  UNL1        0.0000
     17 C          -9.1075  -16.4053   24.8201 C.3     1  UNL1        0.0000
     18 C          -8.9751  -17.5655   23.8785 C.3     1  UNL1        0.0000
     19 C          -9.9431  -18.7086   23.9561 C.3     1  UNL1        0.0000
     20 C          -9.8597  -19.8307   22.9642 C.3     1  UNL1        0.0000
     21 C         -10.8362  -19.9012   21.8277 C.3     1  UNL1        0.0000
     22 C         -10.3741  -19.6408   20.4246 C.3     1  UNL1        0.0000
     23 C         -10.6336  -18.3093   19.7846 C.3     1  UNL1        0.0000
     24 C         -11.7416  -17.4356   20.2935 C.3     1  UNL1        0.0000
     25 C         -11.4306  -16.2811   21.1993 C.3     1  UNL1        0.0000
     26 C         -13.0755  -17.2150   22.9804 C.3     1  UNL1        0.0000
     27 C         -12.1770  -16.1185   22.4903 C.3     1  UNL1        0.0000
@<TRIPOS>UNITY_ATOM_ATTR
7 1
charge -1
11 1
charge 1
@<TRIPOS>BOND
     1    26    27    1
     2    27    25    1
     3    25    24    1
     4    24    23    1
     5    23    22    1
     6    22    21    1
     7    21    20    1
     8    20    19    1
     9    19    18    1
    10    18    17    1
    11    17    16    1
    12    16    15    1
    13    15     1    1
    14     1     2    1
    15     2     3    1
    16     3     4    1
    17     4     5    1
    18     5     6    2
    19     5     7    1
    20     5     8    1
    21     8     9    1
    22     9    10    1
    23    10    11    1
    24    11    12    1
    25    11    13    1
    26    11    14    1
@<TRIPOS>MOLECULE
*****
 27 26 0 0 0
SMALL
GASTEIGER

@<TRIPOS>ATOM
      1 C          -8.8140  -15.4461   25.7926 C.3     1  UNL1        0.0026
      2 C          -8.9036  -15.9226   24.3732 C.3     1  UNL1        0.0325
      3 C          -9.1712  -17.3699   24.0834 C.3     1  UNL1        0.1491
      4 O          -8.2555  -18.1344   23.1740 O.3     1  UNL1       -0.3141
      5 P          -8.6677  -18.4175   21.7599 P.3     1  UNL1        0.2142
      6 O          -7.7558  -17.3293   21.2761 O.2     1  UNL1       -0.5172
      7 O          -9.5797  -19.5058   22.2437 O.co2   1  UNL1       -0.4373
      8 O          -9.0800  -18.7008   20.3457 O.3     1  UNL1       -0.3077
      9 C         -10.5339  -18.7137   19.9767 C.3     1  UNL1        0.2097
     10 C         -11.2964  -17.4251   19.8872 C.3     1  UNL1        0.1423
     11 N         -11.7627  -16.7412   21.1381 N.4     1  UNL1        0.3125
     12 C         -12.6973  -17.8817   21.4133 C.3     1  UNL1        0.1711
     13 C         -10.8282  -15.6006   20.8628 C.3     1  UNL1        0.1711
     14 C         -12.2291  -16.0572   22.3889 C.3     1  UNL1        0.1711
     15 C          -7.7897  -16.0334   26.7177 C.3     1  UNL1        0.0001
     16 C          -6.4461  -15.3817   26.8599 C.3     1  UNL1        0.0000
     17 C          -5.2985  -15.8353   26.0071 C.3     1  UNL1        0.0000
     18 C          -5.2770  -15.5088   24.5432 C.3     1  UNL1        0.0000
     19 C          -5.1201  -16.6058   23.5323 C.3     1  UNL1        0.0000
     20 C          -3.7999  -17.3011   23.3790 C.3     1  UNL1        0.0000
     21 C          -3.7438  -18.6857   22.8046 C.3     1  UNL1        0.0000
     22 C          -4.9790  -19.3073   22.2235 C.3     1  UNL1        0.0000
     23 C          -4.9337  -19.9336   20.8613 C.3     1  UNL1        0.0000
     24 C          -3.6919  -19.8250   20.0268 C.3     1  UNL1        0.0000
     25 C          -3.4469  -18.5954   19.2033 C.3     1  UNL1        0.0000
     26 C          -1.0292  -18.2595   20.0932 C.3     1  UNL1        0.0000
     27 C          -2.2980  -17.6889   19.5324 C.3     1  UNL1        0.0000
@<TRIPOS>UNITY_ATOM_ATTR
7 1
charge -1
11 1
charge 1
@<TRIPOS>BOND
     1    26    27    1
     2    27    25    1
     3    25    24    1
     4    24    23    1
     5    23    22    1
     6    22    21    1
     7    21    20    1
     8    20    19    1
     9    19    18    1
    10    18    17    1
    11    17    16    1
    12    16    15    1
    13    15     1    1
    14     1     2    1
    15     2     3    1
    16     3     4    1
    17     4     5    1
    18     5     6    2
    19     5     7    1
    20     5     8    1
    21     8     9    1
    22     9    10    1
    23    10    11    1
    24    11    12    1
    25    11    13    1
    26    11    14    1
@<TRIPOS>MOLECULE
*****
 27 26 0 0 0
SMALL
GASTEIGER

@<TRIPOS>ATOM
      1 C         -10.8147  -18.4390   19.7631 C.3     1  UNL1        0.0026
      2 C          -9.5273  -19.2082   19.7328 C.3     1  UNL1        0.0325
      3 C          -8.5298  -19.0450   20.8412 C.3     1  UNL1        0.1491
      4 O          -7.1454  -18.5535   20.5380 O.3     1  UNL1       -0.3141
      5 P          -5.9549  -19.2680   21.1053 P.3     1  UNL1        0.2142
      6 O          -6.2433  -20.4476   20.2247 O.2     1  UNL1       -0.5172
      7 O          -5.6665  -18.0885   21.9858 O.co2   1  UNL1       -0.4373
      8 O          -4.7642  -19.9826   21.6726 O.3     1  UNL1       -0.3077
      9 C          -3.4255  -19.8540   21.0082 C.3     1  UNL1        0.2097
     10 C          -3.1856  -18.7602   20.0102 C.3     1  UNL1        0.1423
     11 N          -1.9517  -17.9130   20.1081 N.4     1  UNL1        0.3125
     12 C          -1.8388  -17.9045   18.6124 C.3     1  UNL1        0.1711
     13 C          -2.0646  -17.9214   21.6039 C.3     1  UNL1        0.1711
     14 C          -0.7178  -17.0657   20.2061 C.3     1  UNL1        0.1711
     15 C         -10.9208  -17.1865   20.5815 C.3     1  UNL1        0.0001
     16 C         -12.2005  -16.8623   21.2939 C.3     1  UNL1        0.0000
     17 C         -12.2932  -17.0275   22.7819 C.3     1  UNL1        0.0000
     18 C         -11.5874  -18.1670   23.4554 C.3     1  UNL1        0.0000
     19 C         -10.3504  -17.9102   24.2639 C.3     1  UNL1        0.0000
     20 C          -9.6250  -16.6040   24.1306 C.3     1  UNL1        0.0000
     21 C          -8.2313  -16.5733   23.5767 C.3     1  UNL1        0.0000
     22 C          -7.4804  -15.2766   23.5072 C.3     1  UNL1        0.0000
     23 C          -6.0208  -15.2359   23.8505 C.3     1  UNL1        0.0000
     24 C          -5.5434  -15.7837   25.1628 C.3     1  UNL1        0.0000
     25 C          -6.0783  -15.2247   26.4479 C.3     1  UNL1        0.0000
     26 C          -8.4271  -15.2067   27.5583 C.3     1  UNL1        0.0000
     27 C          -7.1755  -15.9409   27.1782 C.3     1  UNL1        0.0000
@<TRIPOS>UNITY_ATOM_ATTR
7 1
charge -1
11 1
charge 1
@<TRIPOS>BOND
     1    26    27    1
     2    27    25    1
     3    25    24    1
     4    24    23    1
     5    23    22    1
     6    22    21    1
     7    21    20    1
     8    20    19    1
     9    19    18    1
    10    18    17    1
    11    17    16    1
    12    16    15    1
    13    15     1    1
    14     1     2    1
    15     2     3    1
    16     3     4    1
    17     4     5    1
    18     5     6    2
    19     5     7    1
    20     5     8    1
    21     8     9    1
    22     9    10    1
    23    10    11    1
    24    11    12    1
    25    11    13    1
    26    11    14    1
@<TRIPOS>MOLECULE
*****
 27 26 0 0 0
SMALL
GASTEIGER

@<TRIPOS>ATOM
      1 C          -7.1993  -15.7583   26.9462 C.3     1  UNL1        0.0026
      2 C          -8.4605  -15.5835   26.1533 C.3     1  UNL1        0.0325
      3 C          -8.7251  -16.4570   24.9628 C.3     1  UNL1        0.1491
      4 O          -8.7136  -15.8683   23.5833 O.3     1  UNL1       -0.3141
      5 P          -8.5332  -16.7584   22.3895 P.3     1  UNL1        0.2142
      6 O          -8.0818  -15.5799   21.5789 O.2     1  UNL1       -0.5172
      7 O          -8.9846  -17.9370   23.2002 O.co2   1  UNL1       -0.4373
      8 O          -8.3528  -17.6487   21.1958 O.3     1  UNL1       -0.3077
      9 C          -9.4480  -18.5899   20.7898 C.3     1  UNL1        0.2097
     10 C         -10.6040  -18.0889   19.9757 C.3     1  UNL1        0.1423
     11 N         -11.6874  -17.2826   20.6284 N.4     1  UNL1        0.3125
     12 C         -11.3786  -16.1310   19.7183 C.3     1  UNL1        0.1711
     13 C         -11.9962  -18.4343   21.5385 C.3     1  UNL1        0.1711
     14 C         -12.7709  -16.4764   21.2811 C.3     1  UNL1        0.1711
     15 C          -5.9272  -15.1116   26.4843 C.3     1  UNL1        0.0001
     16 C          -4.9429  -15.8931   25.6654 C.3     1  UNL1        0.0000
     17 C          -5.0478  -15.8970   24.1691 C.3     1  UNL1        0.0000
     18 C          -5.0347  -17.1963   23.4197 C.3     1  UNL1        0.0000
     19 C          -3.7525  -17.9587   23.2626 C.3     1  UNL1        0.0000
     20 C          -2.6454  -17.3985   22.4197 C.3     1  UNL1        0.0000
     21 C          -1.7055  -18.3234   21.7047 C.3     1  UNL1        0.0000
     22 C          -1.6085  -18.2844   20.2084 C.3     1  UNL1        0.0000
     23 C          -2.8226  -18.5566   19.3707 C.3     1  UNL1        0.0000
     24 C          -3.7798  -19.6412   19.7676 C.3     1  UNL1        0.0000
     25 C          -5.2214  -19.3134   20.0211 C.3     1  UNL1        0.0000
     26 C          -6.4133  -20.4125   22.0513 C.3     1  UNL1        0.0000
     27 C          -6.1419  -20.3593   20.5771 C.3     1  UNL1        0.0000
@<TRIPOS>UNITY_ATOM_ATTR
7 1
charge -1
11 1
charge 1
@<TRIPOS>BOND
     1    26    27    1
     2    27    25    1
     3    25    24    1
     4    24    23    1
     5    23    22    1
     6    22    21    1
     7    21    20    1
     8    20    19    1
     9    19    18    1
    10    18    17    1
    11    17    16    1
    12    16    15    1
    13    15     1    1
    14     1     2    1
    15     2     3    1
    16     3     4    1
    17     4     5    1
    18     5     6    2
    19     5     7    1
    20     5     8    1
    21     8     9    1
    22     9    10    1
    23    10    11    1
    24    11    12    1
    25    11    13    1
    26    11    14    1
