@<TRIPOS>MOLECULE
*****
 22 24 0 0 0
SMALL
GASTEIGER

@<TRIPOS>ATOM
      1 O         -10.3077  -15.1511   24.2067 O.3     1  UNL1       -0.3786
      2 C          -9.5701  -16.3721   23.7432 C.3     1  UNL1        0.1256
      3 H          -9.8249  -14.7411   24.9413 H       1  UNL1        0.2111
      4 C         -10.6229  -16.6130   22.7023 C.3     1  UNL1        0.0353
      5 C         -10.4431  -16.0727   21.3145 C.3     1  UNL1        0.0201
      6 C         -11.4959  -16.3136   20.2736 C.3     1  UNL1        0.0687
      7 N         -12.7286  -17.0948   20.6204 N.3     1  UNL1       -0.2975
      8 C         -12.9084  -17.6350   22.0081 C.3     1  UNL1        0.0687
      9 C         -11.8556  -17.3942   23.0491 C.3     1  UNL1        0.0201
     10 H         -12.7587  -17.8938   19.9871 H       1  UNL1        0.1232
     11 C          -8.5172  -16.1313   24.7841 C.ar    1  UNL1        0.0056
     12 C          -7.2344  -15.4499   24.4097 C.ar    1  UNL1       -0.0017
     13 C          -6.1816  -15.2090   25.4506 C.ar    1  UNL1       -0.0002
     14 C          -6.4115  -15.6496   26.8659 C.ar    1  UNL1       -0.0000
     15 C          -7.6943  -16.3310   27.2403 C.ar    1  UNL1       -0.0002
     16 C          -8.7471  -16.5719   26.1994 C.ar    1  UNL1       -0.0017
     17 C          -8.8324  -17.5931   23.2796 C.ar    1  UNL1        0.0056
     18 C          -7.6161  -17.4508   22.4133 C.ar    1  UNL1       -0.0017
     19 C          -6.8785  -18.6718   21.9497 C.ar    1  UNL1       -0.0002
     20 C          -7.3570  -20.0352   22.3524 C.ar    1  UNL1       -0.0000
     21 C          -8.5732  -20.1776   23.2188 C.ar    1  UNL1       -0.0002
     22 C          -9.3109  -18.9565   23.6824 C.ar    1  UNL1       -0.0017
@<TRIPOS>BOND
     1     1     2    1
     2     2    11    1
     3    11    12   ar
     4    12    13   ar
     5    13    14   ar
     6    14    15   ar
     7    15    16   ar
     8     2    17    1
     9    17    18   ar
    10    18    19   ar
    11    19    20   ar
    12    20    21   ar
    13    21    22   ar
    14     2     4    1
    15     4     5    1
    16     5     6    1
    17     6     7    1
    18     7     8    1
    19     8     9    1
    20    16    11   ar
    21    22    17   ar
    22     9     4    1
    23     1     3    1
    24     7    10    1
@<TRIPOS>MOLECULE
*****
 22 24 0 0 0
SMALL
GASTEIGER

@<TRIPOS>ATOM
      1 O         -10.3274  -15.1619   24.2037 O.3     1  UNL1       -0.3786
      2 C          -9.5838  -16.3792   23.7401 C.3     1  UNL1        0.1256
      3 H          -9.8557  -14.7593   24.9495 H       1  UNL1        0.2111
      4 C         -10.6205  -16.6092   22.6808 C.3     1  UNL1        0.0353
      5 C         -11.8670  -17.3780   23.0055 C.3     1  UNL1        0.0201
      6 C         -12.9037  -17.6079   21.9461 C.3     1  UNL1        0.0687
      7 N         -12.6940  -17.0690   20.5620 N.3     1  UNL1       -0.2975
      8 C         -11.4477  -16.3003   20.2373 C.3     1  UNL1        0.0687
      9 C         -10.4108  -16.0703   21.2967 C.3     1  UNL1        0.0201
     10 H         -13.4811  -16.4511   20.3643 H       1  UNL1        0.1232
     11 C          -8.5470  -16.1493   24.7995 C.ar    1  UNL1        0.0056
     12 C          -8.7927  -16.6169   26.2034 C.ar    1  UNL1       -0.0017
     13 C          -7.7559  -16.3870   27.2627 C.ar    1  UNL1       -0.0002
     14 C          -6.4734  -15.6895   26.9182 C.ar    1  UNL1       -0.0000
     15 C          -6.2277  -15.2219   25.5143 C.ar    1  UNL1       -0.0002
     16 C          -7.2645  -15.4518   24.4550 C.ar    1  UNL1       -0.0017
     17 C          -8.8401  -17.5966   23.2766 C.ar    1  UNL1        0.0056
     18 C          -7.6125  -17.4475   22.4275 C.ar    1  UNL1       -0.0017
     19 C          -6.8688  -18.6649   21.9640 C.ar    1  UNL1       -0.0002
     20 C          -7.3527  -20.0314   22.3494 C.ar    1  UNL1       -0.0000
     21 C          -8.5803  -20.1805   23.1984 C.ar    1  UNL1       -0.0002
     22 C          -9.3240  -18.9631   23.6620 C.ar    1  UNL1       -0.0017
@<TRIPOS>BOND
     1     1     2    1
     2     2    11    1
     3    11    12   ar
     4    12    13   ar
     5    13    14   ar
     6    14    15   ar
     7    15    16   ar
     8     2    17    1
     9    17    18   ar
    10    18    19   ar
    11    19    20   ar
    12    20    21   ar
    13    21    22   ar
    14     2     4    1
    15     4     5    1
    16     5     6    1
    17     6     7    1
    18     7     8    1
    19     8     9    1
    20    16    11   ar
    21    22    17   ar
    22     9     4    1
    23     1     3    1
    24     7    10    1
@<TRIPOS>MOLECULE
*****
 22 24 0 0 0
SMALL
GASTEIGER

@<TRIPOS>ATOM
      1 O          -8.6668  -15.1687   22.0728 O.3     1  UNL1       -0.3786
      2 C          -9.0400  -16.4766   22.7055 C.3     1  UNL1        0.1256
      3 H          -8.0271  -14.7073   22.6374 H       1  UNL1        0.2111
      4 C          -9.9573  -16.7710   21.5558 C.3     1  UNL1        0.0353
      5 C          -9.8325  -18.0660   20.8093 C.3     1  UNL1        0.0201
      6 C         -10.7499  -18.3604   19.6596 C.3     1  UNL1        0.0687
      7 N         -11.7921  -17.3598   19.2565 N.3     1  UNL1       -0.2975
      8 C         -11.9169  -16.0648   20.0029 C.3     1  UNL1        0.0687
      9 C         -10.9995  -15.7703   21.1526 C.3     1  UNL1        0.0201
     10 H         -12.6947  -17.8294   19.3286 H       1  UNL1        0.1232
     11 C          -8.1226  -16.1822   23.8552 C.ar    1  UNL1        0.0056
     12 C          -6.6396  -16.1274   23.6364 C.ar    1  UNL1       -0.0017
     13 C          -5.7223  -15.8331   24.7861 C.ar    1  UNL1       -0.0002
     14 C          -6.2879  -15.5935   26.1546 C.ar    1  UNL1       -0.0000
     15 C          -7.7708  -15.6483   26.3733 C.ar    1  UNL1       -0.0002
     16 C          -8.6882  -15.9426   25.2236 C.ar    1  UNL1       -0.0017
     17 C          -9.4131  -17.7844   23.3381 C.ar    1  UNL1        0.0056
     18 C         -10.6710  -17.8940   24.1479 C.ar    1  UNL1       -0.0017
     19 C         -11.0442  -19.2018   24.7805 C.ar    1  UNL1       -0.0002
     20 C         -10.1595  -20.4001   24.6034 C.ar    1  UNL1       -0.0000
     21 C          -8.9016  -20.2906   23.7937 C.ar    1  UNL1       -0.0002
     22 C          -8.5284  -18.9827   23.1610 C.ar    1  UNL1       -0.0017
@<TRIPOS>BOND
     1     1     2    1
     2     2    11    1
     3    11    12   ar
     4    12    13   ar
     5    13    14   ar
     6    14    15   ar
     7    15    16   ar
     8     2    17    1
     9    17    18   ar
    10    18    19   ar
    11    19    20   ar
    12    20    21   ar
    13    21    22   ar
    14     2     4    1
    15     4     5    1
    16     5     6    1
    17     6     7    1
    18     7     8    1
    19     8     9    1
    20    16    11   ar
    21    22    17   ar
    22     9     4    1
    23     1     3    1
    24     7    10    1
@<TRIPOS>MOLECULE
*****
 22 24 0 0 0
SMALL
GASTEIGER

@<TRIPOS>ATOM
      1 O          -8.6954  -15.1607   22.1032 O.3     1  UNL1       -0.3786
      2 C          -9.0482  -16.4787   22.7264 C.3     1  UNL1        0.1256
      3 H          -8.0568  -14.6970   22.6671 H       1  UNL1        0.2111
      4 C          -9.9709  -16.7733   21.5812 C.3     1  UNL1        0.0353
      5 C         -11.0440  -15.7925   21.2112 C.3     1  UNL1        0.0201
      6 C         -11.9667  -16.0871   20.0659 C.3     1  UNL1        0.0687
      7 N         -11.8165  -17.3624   19.2906 N.3     1  UNL1       -0.2975
      8 C         -10.7436  -18.3431   19.6605 C.3     1  UNL1        0.0687
      9 C          -9.8207  -18.0485   20.8059 C.3     1  UNL1        0.0201
     10 H         -11.6522  -17.0987   18.3191 H       1  UNL1        0.1232
     11 C          -8.1254  -16.1841   23.8718 C.ar    1  UNL1        0.0056
     12 C          -8.6848  -15.9387   25.2417 C.ar    1  UNL1       -0.0017
     13 C          -7.7621  -15.6441   26.3869 C.ar    1  UNL1       -0.0002
     14 C          -6.2798  -15.5951   26.1623 C.ar    1  UNL1       -0.0000
     15 C          -5.7203  -15.8405   24.7924 C.ar    1  UNL1       -0.0002
     16 C          -6.6431  -16.1351   23.6471 C.ar    1  UNL1       -0.0017
     17 C          -9.4009  -17.7967   23.3497 C.ar    1  UNL1        0.0056
     18 C          -8.5133  -18.9874   23.1390 C.ar    1  UNL1       -0.0017
     19 C          -8.8661  -20.3054   23.7623 C.ar    1  UNL1       -0.0002
     20 C         -10.1064  -20.4327   24.5961 C.ar    1  UNL1       -0.0000
     21 C         -10.9940  -19.2420   24.8068 C.ar    1  UNL1       -0.0002
     22 C         -10.6413  -17.9239   24.1836 C.ar    1  UNL1       -0.0017
@<TRIPOS>BOND
     1     1     2    1
     2     2    11    1
     3    11    12   ar
     4    12    13   ar
     5    13    14   ar
     6    14    15   ar
     7    15    16   ar
     8     2    17    1
     9    17    18   ar
    10    18    19   ar
    11    19    20   ar
    12    20    21   ar
    13    21    22   ar
    14     2     4    1
    15     4     5    1
    16     5     6    1
    17     6     7    1
    18     7     8    1
    19     8     9    1
    20    16    11   ar
    21    22    17   ar
    22     9     4    1
    23     1     3    1
    24     7    10    1
@<TRIPOS>MOLECULE
*****
 22 24 0 0 0
SMALL
GASTEIGER

@<TRIPOS>ATOM
      1 O         -10.1019  -15.1562   24.3432 O.3     1  UNL1       -0.3786
      2 C          -9.3938  -16.3783   23.8382 C.3     1  UNL1        0.1256
      3 H         -10.9395  -15.0475   23.8661 H       1  UNL1        0.2111
      4 C          -8.2705  -16.1245   24.7992 C.3     1  UNL1        0.0353
      5 C          -8.4403  -16.4489   26.2539 C.3     1  UNL1        0.0201
      6 C          -7.3169  -16.1951   27.2150 C.3     1  UNL1        0.0687
      7 N          -6.0238  -15.6170   26.7214 N.3     1  UNL1       -0.2975
      8 C          -5.8540  -15.2927   25.2668 C.3     1  UNL1        0.0687
      9 C          -6.9774  -15.5464   24.3057 C.3     1  UNL1        0.0201
     10 H          -5.2918  -16.2856   26.9615 H       1  UNL1        0.1232
     11 C         -10.5172  -16.6321   22.8771 C.ar    1  UNL1        0.0056
     12 C         -11.7504  -17.3510   23.3378 C.ar    1  UNL1       -0.0017
     13 C         -12.8737  -17.6048   22.3767 C.ar    1  UNL1       -0.0002
     14 C         -12.7638  -17.1397   20.9549 C.ar    1  UNL1       -0.0000
     15 C         -11.5306  -16.4208   20.4941 C.ar    1  UNL1       -0.0002
     16 C         -10.4073  -16.1670   21.4552 C.ar    1  UNL1       -0.0017
     17 C          -8.6857  -17.6004   23.3332 C.ar    1  UNL1        0.0056
     18 C          -9.1949  -18.9647   23.6930 C.ar    1  UNL1       -0.0017
     19 C          -8.4868  -20.1868   23.1879 C.ar    1  UNL1       -0.0002
     20 C          -7.2695  -20.0446   22.3231 C.ar    1  UNL1       -0.0000
     21 C          -6.7603  -18.6803   21.9633 C.ar    1  UNL1       -0.0002
     22 C          -7.4684  -17.4582   22.4684 C.ar    1  UNL1       -0.0017
@<TRIPOS>BOND
     1     1     2    1
     2     2    11    1
     3    11    12   ar
     4    12    13   ar
     5    13    14   ar
     6    14    15   ar
     7    15    16   ar
     8     2    17    1
     9    17    18   ar
    10    18    19   ar
    11    19    20   ar
    12    20    21   ar
    13    21    22   ar
    14     2     4    1
    15     4     5    1
    16     5     6    1
    17     6     7    1
    18     7     8    1
    19     8     9    1
    20    16    11   ar
    21    22    17   ar
    22     9     4    1
    23     1     3    1
    24     7    10    1
@<TRIPOS>MOLECULE
*****
 22 24 0 0 0
SMALL
GASTEIGER

@<TRIPOS>ATOM
      1 O         -10.0942  -15.1967   24.3623 O.3     1  UNL1       -0.3786
      2 C          -9.3744  -16.4062   23.8440 C.3     1  UNL1        0.1256
      3 H         -10.9278  -15.0847   23.8792 H       1  UNL1        0.2111
      4 C          -8.2616  -16.1622   24.8197 C.3     1  UNL1        0.0353
      5 C          -6.9639  -15.5774   24.3464 C.3     1  UNL1        0.0201
      6 C          -5.8511  -15.3334   25.3222 C.3     1  UNL1        0.0687
      7 N          -6.0360  -15.6741   26.7712 N.3     1  UNL1       -0.2975
      8 C          -7.3337  -16.2589   27.2445 C.3     1  UNL1        0.0687
      9 C          -8.4465  -16.5029   26.2687 C.3     1  UNL1        0.0201
     10 H          -5.8924  -14.8120   27.2971 H       1  UNL1        0.1232
     11 C         -10.4872  -16.6503   22.8681 C.ar    1  UNL1        0.0056
     12 C         -10.3755  -16.1430   21.4610 C.ar    1  UNL1       -0.0017
     13 C         -11.4883  -16.3871   20.4852 C.ar    1  UNL1       -0.0002
     14 C         -12.7128  -17.1385   20.9167 C.ar    1  UNL1       -0.0000
     15 C         -12.8245  -17.6458   22.3238 C.ar    1  UNL1       -0.0002
     16 C         -11.7117  -17.4017   23.2995 C.ar    1  UNL1       -0.0017
     17 C          -8.6546  -17.6158   23.3256 C.ar    1  UNL1        0.0056
     18 C          -7.4223  -17.4527   22.4858 C.ar    1  UNL1       -0.0017
     19 C          -6.7025  -18.6623   21.9675 C.ar    1  UNL1       -0.0002
     20 C          -7.2149  -20.0349   22.2887 C.ar    1  UNL1       -0.0000
     21 C          -8.4471  -20.1981   23.1284 C.ar    1  UNL1       -0.0002
     22 C          -9.1670  -18.9885   23.6468 C.ar    1  UNL1       -0.0017
@<TRIPOS>BOND
     1     1     2    1
     2     2    11    1
     3    11    12   ar
     4    12    13   ar
     5    13    14   ar
     6    14    15   ar
     7    15    16   ar
     8     2    17    1
     9    17    18   ar
    10    18    19   ar
    11    19    20   ar
    12    20    21   ar
    13    21    22   ar
    14     2     4    1
    15     4     5    1
    16     5     6    1
    17     6     7    1
    18     7     8    1
    19     8     9    1
    20    16    11   ar
    21    22    17   ar
    22     9     4    1
    23     1     3    1
    24     7    10    1
@<TRIPOS>MOLECULE
*****
 22 24 0 0 0
SMALL
GASTEIGER

@<TRIPOS>ATOM
      1 O          -7.1099  -17.6669   22.1158 O.3     1  UNL1       -0.3786
      2 C          -8.5830  -17.5959   22.3893 C.3     1  UNL1        0.1256
      3 H          -6.9542  -18.1978   21.3190 H       1  UNL1        0.2111
      4 C          -8.3175  -16.7503   23.5994 C.3     1  UNL1        0.0353
      5 C          -7.4690  -15.5188   23.4824 C.3     1  UNL1        0.0201
      6 C          -7.2035  -14.6732   24.6925 C.3     1  UNL1        0.0687
      7 N          -7.7866  -15.0589   26.0197 N.3     1  UNL1       -0.2975
      8 C          -8.6351  -16.2903   26.1367 C.3     1  UNL1        0.0687
      9 C          -8.9006  -17.1360   24.9266 C.3     1  UNL1        0.0201
     10 H          -8.3616  -14.2748   26.3278 H       1  UNL1        0.1232
     11 C          -8.8485  -18.4416   21.1792 C.ar    1  UNL1        0.0056
     12 C         -10.1998  -18.4168   20.5286 C.ar    1  UNL1       -0.0017
     13 C         -10.4653  -19.2624   19.3186 C.ar    1  UNL1       -0.0002
     14 C          -9.3794  -20.1329   18.7590 C.ar    1  UNL1       -0.0000
     15 C          -8.0281  -20.1577   19.4095 C.ar    1  UNL1       -0.0002
     16 C          -7.7626  -19.3121   20.6196 C.ar    1  UNL1       -0.0017
     17 C         -10.0561  -17.5249   22.6629 C.ar    1  UNL1        0.0056
     18 C         -10.7547  -18.6820   23.3135 C.ar    1  UNL1       -0.0017
     19 C         -12.2279  -18.6110   23.5870 C.ar    1  UNL1       -0.0002
     20 C         -13.0024  -17.3830   23.2100 C.ar    1  UNL1       -0.0000
     21 C         -12.3038  -16.2260   22.5594 C.ar    1  UNL1       -0.0002
     22 C         -10.8306  -16.2970   22.2859 C.ar    1  UNL1       -0.0017
@<TRIPOS>BOND
     1     1     2    1
     2     2    11    1
     3    11    12   ar
     4    12    13   ar
     5    13    14   ar
     6    14    15   ar
     7    15    16   ar
     8     2    17    1
     9    17    18   ar
    10    18    19   ar
    11    19    20   ar
    12    20    21   ar
    13    21    22   ar
    14     2     4    1
    15     4     5    1
    16     5     6    1
    17     6     7    1
    18     7     8    1
    19     8     9    1
    20    16    11   ar
    21    22    17   ar
    22     9     4    1
    23     1     3    1
    24     7    10    1
@<TRIPOS>MOLECULE
*****
 22 24 0 0 0
SMALL
GASTEIGER

@<TRIPOS>ATOM
      1 O          -7.1039  -17.6682   22.1152 O.3     1  UNL1       -0.3786
      2 C          -8.5771  -17.6008   22.3890 C.3     1  UNL1        0.1256
      3 H          -6.9471  -18.1984   21.3182 H       1  UNL1        0.2111
      4 C          -8.3135  -16.7551   23.5994 C.3     1  UNL1        0.0353
      5 C          -8.8922  -17.1449   24.9273 C.3     1  UNL1        0.0201
      6 C          -8.6286  -16.2992   26.1377 C.3     1  UNL1        0.0687
      7 N          -7.7861  -15.0637   26.0204 N.3     1  UNL1       -0.2975
      8 C          -7.2074  -14.6738   24.6927 C.3     1  UNL1        0.0687
      9 C          -7.4710  -15.5196   23.4821 C.3     1  UNL1        0.0201
     10 H          -7.0010  -15.1807   26.6609 H       1  UNL1        0.1232
     11 C          -8.8409  -18.4465   21.1785 C.ar    1  UNL1        0.0056
     12 C          -7.7515  -19.3103   20.6152 C.ar    1  UNL1       -0.0017
     13 C          -8.0153  -20.1559   19.4048 C.ar    1  UNL1       -0.0002
     14 C          -9.3684  -20.1379   18.7576 C.ar    1  UNL1       -0.0000
     15 C         -10.4577  -19.2741   19.3208 C.ar    1  UNL1       -0.0002
     16 C         -10.1939  -18.4284   20.5313 C.ar    1  UNL1       -0.0017
     17 C         -10.0504  -17.5333   22.6627 C.ar    1  UNL1        0.0056
     18 C         -10.8235  -16.2979   22.3074 C.ar    1  UNL1       -0.0017
     19 C         -12.2967  -16.2304   22.5812 C.ar    1  UNL1       -0.0002
     20 C         -12.9969  -17.3983   23.2103 C.ar    1  UNL1       -0.0000
     21 C         -12.2239  -18.6337   23.5656 C.ar    1  UNL1       -0.0002
     22 C         -10.7506  -18.7012   23.2918 C.ar    1  UNL1       -0.0017
@<TRIPOS>BOND
     1     1     2    1
     2     2    11    1
     3    11    12   ar
     4    12    13   ar
     5    13    14   ar
     6    14    15   ar
     7    15    16   ar
     8     2    17    1
     9    17    18   ar
    10    18    19   ar
    11    19    20   ar
    12    20    21   ar
    13    21    22   ar
    14     2     4    1
    15     4     5    1
    16     5     6    1
    17     6     7    1
    18     7     8    1
    19     8     9    1
    20    16    11   ar
    21    22    17   ar
    22     9     4    1
    23     1     3    1
    24     7    10    1
@<TRIPOS>MOLECULE
*****
 22 24 0 0 0
SMALL
GASTEIGER

@<TRIPOS>ATOM
      1 O         -10.7299  -20.1167   21.7240 O.3     1  UNL1       -0.3786
      2 C         -10.0435  -18.9380   22.3479 C.3     1  UNL1        0.1256
      3 H         -10.0890  -20.6258   21.2034 H       1  UNL1        0.2111
      4 C         -11.3374  -18.5197   22.9811 C.3     1  UNL1        0.0353
      5 C         -11.7838  -19.1543   24.2649 C.3     1  UNL1        0.0201
      6 C         -13.0776  -18.7361   24.8981 C.3     1  UNL1        0.0687
      7 N         -13.9251  -17.6832   24.2475 N.3     1  UNL1       -0.2975
      8 C         -13.4788  -17.0486   22.9638 C.3     1  UNL1        0.0687
      9 C         -12.1849  -17.4668   22.3306 C.3     1  UNL1        0.0201
     10 H         -14.0319  -16.9299   24.9269 H       1  UNL1        0.1232
     11 C          -8.7496  -19.3562   21.7147 C.ar    1  UNL1        0.0056
     12 C          -8.5773  -19.2617   20.2277 C.ar    1  UNL1       -0.0017
     13 C          -7.2834  -19.6800   19.5946 C.ar    1  UNL1       -0.0002
     14 C          -6.1618  -20.1927   20.4485 C.ar    1  UNL1       -0.0000
     15 C          -6.3341  -20.2872   21.9355 C.ar    1  UNL1       -0.0002
     16 C          -7.6280  -19.8689   22.5686 C.ar    1  UNL1       -0.0017
     17 C          -9.3571  -17.7592   22.9719 C.ar    1  UNL1        0.0056
     18 C          -8.6974  -16.7293   22.1035 C.ar    1  UNL1       -0.0017
     19 C          -8.0110  -15.5505   22.7275 C.ar    1  UNL1       -0.0002
     20 C          -7.9842  -15.4017   24.2198 C.ar    1  UNL1       -0.0000
     21 C          -8.6439  -16.4316   25.0882 C.ar    1  UNL1       -0.0002
     22 C          -9.3303  -17.6104   24.4642 C.ar    1  UNL1       -0.0017
@<TRIPOS>BOND
     1     1     2    1
     2     2    11    1
     3    11    12   ar
     4    12    13   ar
     5    13    14   ar
     6    14    15   ar
     7    15    16   ar
     8     2    17    1
     9    17    18   ar
    10    18    19   ar
    11    19    20   ar
    12    20    21   ar
    13    21    22   ar
    14     2     4    1
    15     4     5    1
    16     5     6    1
    17     6     7    1
    18     7     8    1
    19     8     9    1
    20    16    11   ar
    21    22    17   ar
    22     9     4    1
    23     1     3    1
    24     7    10    1
