@<TRIPOS>MOLECULE
*****
 36 41 0 0 0
SMALL
GASTEIGER

@<TRIPOS>ATOM
      1 C           2.7596    1.3540   22.9817 C.3     1  UNL1        0.0745
      2 C           3.3757    1.1515   24.3343 C.3     1  UNL1        0.0356
      3 C           2.5025    1.0655   25.5509 C.3     1  UNL1        0.0594
      4 C           1.2965    1.0406   26.4424 C.3     1  UNL1        0.0174
      5 C           0.0809    1.2247   25.5829 C.3     1  UNL1        0.0174
      6 C           0.5358    1.3634   24.1603 C.3     1  UNL1        0.0594
      7 C           1.2704    1.4704   22.8457 C.3     1  UNL1        0.0356
      8 N           2.0324    1.2650   24.1405 N.3     1  UNL1       -0.2715
      9 O           3.6861    4.0281   21.9864 O.2     1  UNL1       -0.2701
     10 C           4.0961    2.7770   21.2674 C.2     1  UNL1        0.2458
     11 N           3.6329    1.4400   21.7651 N.am    1  UNL1       -0.3024
     12 H           3.9019    0.6189   21.2932 H       1  UNL1        0.1497
     13 C           4.9693    2.8631   20.0509 C.ar    1  UNL1        0.0534
     14 C           6.4583    2.7424   20.1863 C.ar    1  UNL1        0.0045
     15 C           7.3315    2.8285   18.9698 C.ar    1  UNL1        0.0001
     16 C           6.7157    3.0352   17.6177 C.ar    1  UNL1        0.0000
     17 C           5.2268    3.1560   17.4822 C.ar    1  UNL1        0.0002
     18 C           4.3535    3.0699   18.6989 C.ar    1  UNL1        0.0059
     19 C           2.8646    3.1906   18.5634 C.ar    1  UNL1        0.0193
     20 C           2.0271    1.9614   18.3689 C.ar    1  UNL1        0.0031
     21 C           0.5381    2.0821   18.2335 C.ar    1  UNL1        0.0207
     22 C          -0.1134    3.4320   18.2925 C.ar    1  UNL1        0.0989
     23 N           0.7241    4.6611   18.4869 N.ar    1  UNL1       -0.2423
     24 C           2.2131    4.5404   18.6224 C.ar    1  UNL1        0.0988
     25 C           2.9055    1.3510   22.9239 C.3     1  UNL1        0.0991
     26 C           3.0130    0.1793   21.9934 C.ar    1  UNL1       -0.0061
     27 C           1.9029   -0.1169   21.0292 C.ar    1  UNL1       -0.0029
     28 C           2.0104   -1.2886   20.0988 C.ar    1  UNL1       -0.0002
     29 C           3.2280   -2.1639   20.1327 C.ar    1  UNL1        0.0022
     30 C           3.3355   -3.3356   19.2022 C.ar    1  UNL1        0.0296
     31 C           4.5531   -4.2110   19.2361 C.ar    1  UNL1        0.1401
     32 F           4.6606   -5.3826   18.3057 F       1  UNL1       -0.2042
     33 C           5.6633   -3.9147   20.2004 C.ar    1  UNL1        0.0296
     34 C           5.5558   -2.7430   21.1308 C.ar    1  UNL1        0.0023
     35 C           4.3381   -1.8677   21.0969 C.ar    1  UNL1       -0.0001
     36 C           4.2306   -0.6960   22.0273 C.ar    1  UNL1       -0.0029
@<TRIPOS>BOND
     1     9    10    2
     2    10    11   am
     3     1    11    1
     4     1     2    1
     5     3     2    1
     6     3     4    1
     7     4     5    1
     8     6     5    1
     9     6     7    1
    10     6     8    1
    11     8    25    1
    12    25    26    1
    13    26    27   ar
    14    27    28   ar
    15    28    29   ar
    16    29    30   ar
    17    30    31   ar
    18    31    32    1
    19    31    33   ar
    20    33    34   ar
    21    34    35   ar
    22    35    36   ar
    23    10    13    1
    24    13    14   ar
    25    14    15   ar
    26    15    16   ar
    27    16    17   ar
    28    17    18   ar
    29    18    19    1
    30    19    20   ar
    31    20    21   ar
    32    21    22   ar
    33    22    23   ar
    34    23    24   ar
    35     7     1    1
    36    36    26   ar
    37    18    13   ar
    38    24    19   ar
    39     8     3    1
    40    35    29   ar
    41    11    12    1
@<TRIPOS>MOLECULE
*****
 36 41 0 0 0
SMALL
GASTEIGER

@<TRIPOS>ATOM
      1 C           0.9158    1.5420   23.2380 C.3     1  UNL1        0.0745
      2 C           0.2194    2.8425   22.9663 C.3     1  UNL1        0.0356
      3 C          -0.6976    3.4318   23.9967 C.3     1  UNL1        0.0594
      4 C          -1.4849    3.6333   25.2575 C.3     1  UNL1        0.0174
      5 C          -1.2102    2.4718   26.1661 C.3     1  UNL1        0.0174
      6 C          -0.2532    1.5525   25.4669 C.3     1  UNL1        0.0594
      7 C           0.6951    0.8308   24.5400 C.3     1  UNL1        0.0356
      8 N           0.0636    2.1458   24.1261 N.3     1  UNL1       -0.2715
      9 O          -0.2232    0.1819   20.8187 O.2     1  UNL1       -0.2701
     10 C           1.2634    0.2727   20.9979 C.2     1  UNL1        0.2458
     11 N           1.8328    0.9527   22.2075 N.am    1  UNL1       -0.3024
     12 H           2.8085    1.0123   22.3251 H       1  UNL1        0.1497
     13 C           2.1803   -0.3166   19.9674 C.ar    1  UNL1        0.0534
     14 C           2.7325   -1.6983   20.1571 C.ar    1  UNL1        0.0045
     15 C           3.6495   -2.2876   19.1267 C.ar    1  UNL1        0.0001
     16 C           4.0143   -1.4951   17.9064 C.ar    1  UNL1        0.0000
     17 C           3.4622   -0.1134   17.7167 C.ar    1  UNL1        0.0002
     18 C           2.5451    0.4758   18.7472 C.ar    1  UNL1        0.0059
     19 C           1.9930    1.8575   18.5575 C.ar    1  UNL1        0.0193
     20 C           2.8649    3.0536   18.8010 C.ar    1  UNL1        0.0031
     21 C           2.3127    4.4353   18.6113 C.ar    1  UNL1        0.0207
     22 C           0.8886    4.6210   18.1780 C.ar    1  UNL1        0.0989
     23 N           0.0168    3.4249   17.9345 N.ar    1  UNL1       -0.2423
     24 C           0.5690    2.0432   18.1243 C.ar    1  UNL1        0.0988
     25 C           0.9806    1.5565   23.0957 C.3     1  UNL1        0.0991
     26 C           2.3887    1.1937   23.4645 C.ar    1  UNL1       -0.0061
     27 C           3.4236    2.2682   23.6209 C.ar    1  UNL1       -0.0029
     28 C           4.8315    1.9054   23.9896 C.ar    1  UNL1       -0.0002
     29 C           5.2046    0.4681   24.2019 C.ar    1  UNL1        0.0022
     30 C           6.6126    0.1053   24.5706 C.ar    1  UNL1        0.0296
     31 C           6.9857   -1.3320   24.7829 C.ar    1  UNL1        0.1401
     32 F           8.3936   -1.6948   25.1517 F       1  UNL1       -0.2042
     33 C           5.9507   -2.4065   24.6265 C.ar    1  UNL1        0.0296
     34 C           4.5428   -2.0437   24.2578 C.ar    1  UNL1        0.0023
     35 C           4.1697   -0.6064   24.0455 C.ar    1  UNL1       -0.0001
     36 C           2.7618   -0.2436   23.6768 C.ar    1  UNL1       -0.0029
@<TRIPOS>BOND
     1     9    10    2
     2    10    11   am
     3     1    11    1
     4     1     2    1
     5     3     2    1
     6     3     4    1
     7     4     5    1
     8     6     5    1
     9     6     7    1
    10     6     8    1
    11     8    25    1
    12    25    26    1
    13    26    27   ar
    14    27    28   ar
    15    28    29   ar
    16    29    30   ar
    17    30    31   ar
    18    31    32    1
    19    31    33   ar
    20    33    34   ar
    21    34    35   ar
    22    35    36   ar
    23    10    13    1
    24    13    14   ar
    25    14    15   ar
    26    15    16   ar
    27    16    17   ar
    28    17    18   ar
    29    18    19    1
    30    19    20   ar
    31    20    21   ar
    32    21    22   ar
    33    22    23   ar
    34    23    24   ar
    35     7     1    1
    36    36    26   ar
    37    18    13   ar
    38    24    19   ar
    39     8     3    1
    40    35    29   ar
    41    11    12    1
@<TRIPOS>MOLECULE
*****
 36 41 0 0 0
SMALL
GASTEIGER

@<TRIPOS>ATOM
      1 C           2.8824    2.8149   37.1263 C.3     1  UNL1        0.0745
      2 C           3.1745    1.3786   37.4451 C.3     1  UNL1        0.0356
      3 C           2.3628    0.6604   38.4820 C.3     1  UNL1        0.0594
      4 C           1.3416    0.3617   39.5394 C.3     1  UNL1        0.0174
      5 C           0.5356    1.6056   39.7699 C.3     1  UNL1        0.0174
      6 C           1.0586    2.6730   38.8550 C.3     1  UNL1        0.0594
      7 C           1.7785    3.5330   37.8444 C.3     1  UNL1        0.0356
      8 N           2.1878    2.0889   38.0590 N.3     1  UNL1       -0.2715
      9 O           5.6436    3.7829   37.7888 O.2     1  UNL1       -0.2701
     10 C           5.0748    4.0171   36.4206 C.2     1  UNL1        0.2458
     11 N           3.6942    3.5331   36.0894 N.am    1  UNL1       -0.3024
     12 H           3.3209    3.6868   35.1915 H       1  UNL1        0.1497
     13 C           5.8867    4.7353   35.3838 C.ar    1  UNL1        0.0534
     14 C           5.9607    6.2335   35.3944 C.ar    1  UNL1        0.0045
     15 C           6.7725    6.9516   34.3576 C.ar    1  UNL1        0.0001
     16 C           7.5104    6.1717   33.3100 C.ar    1  UNL1        0.0000
     17 C           7.4364    4.6736   33.2994 C.ar    1  UNL1        0.0002
     18 C           6.6245    3.9554   34.3363 C.ar    1  UNL1        0.0059
     19 C           6.5505    2.4572   34.3257 C.ar    1  UNL1        0.0193
     20 C           5.7212    1.7546   33.2919 C.ar    1  UNL1        0.0031
     21 C           5.6472    0.2565   33.2812 C.ar    1  UNL1        0.0207
     22 C           6.4025   -0.5390   34.3044 C.ar    1  UNL1        0.0989
     23 N           7.2317    0.1636   35.3382 N.ar    1  UNL1       -0.2423
     24 C           7.3057    1.6617   35.3488 C.ar    1  UNL1        0.0988
     25 C           2.9996    2.8071   37.0222 C.3     1  UNL1        0.0991
     26 C           2.4110    3.0889   35.6715 C.ar    1  UNL1       -0.0061
     27 C           1.6767    4.3738   35.4267 C.ar    1  UNL1       -0.0029
     28 C           1.0881    4.6556   34.0761 C.ar    1  UNL1       -0.0002
     29 C           1.2338    3.6526   32.9704 C.ar    1  UNL1        0.0022
     30 C           0.6452    3.9344   31.6197 C.ar    1  UNL1        0.0296
     31 C           0.7909    2.9314   30.5140 C.ar    1  UNL1        0.1401
     32 F           0.2023    3.2132   29.1634 F       1  UNL1       -0.2042
     33 C           1.5253    1.6465   30.7588 C.ar    1  UNL1        0.0296
     34 C           2.1138    1.3647   32.1094 C.ar    1  UNL1        0.0023
     35 C           1.9681    2.3677   33.2152 C.ar    1  UNL1       -0.0001
     36 C           2.5567    2.0859   34.5657 C.ar    1  UNL1       -0.0029
@<TRIPOS>BOND
     1     9    10    2
     2    10    11   am
     3     1    11    1
     4     1     2    1
     5     3     2    1
     6     3     4    1
     7     4     5    1
     8     6     5    1
     9     6     7    1
    10     6     8    1
    11     8    25    1
    12    25    26    1
    13    26    27   ar
    14    27    28   ar
    15    28    29   ar
    16    29    30   ar
    17    30    31   ar
    18    31    32    1
    19    31    33   ar
    20    33    34   ar
    21    34    35   ar
    22    35    36   ar
    23    10    13    1
    24    13    14   ar
    25    14    15   ar
    26    15    16   ar
    27    16    17   ar
    28    17    18   ar
    29    18    19    1
    30    19    20   ar
    31    20    21   ar
    32    21    22   ar
    33    22    23   ar
    34    23    24   ar
    35     7     1    1
    36    36    26   ar
    37    18    13   ar
    38    24    19   ar
    39     8     3    1
    40    35    29   ar
    41    11    12    1
@<TRIPOS>MOLECULE
*****
 36 41 0 0 0
SMALL
GASTEIGER

@<TRIPOS>ATOM
      1 C           7.0310   -4.4794   24.1807 C.3     1  UNL1        0.0745
      2 C           7.8950   -4.8414   23.0091 C.3     1  UNL1        0.0356
      3 C           8.6959   -6.1094   23.0313 C.3     1  UNL1        0.0594
      4 C           9.2924   -7.4124   23.4744 C.3     1  UNL1        0.0174
      5 C           8.7572   -7.7265   24.8401 C.3     1  UNL1        0.0174
      6 C           7.8300   -6.6176   25.2409 C.3     1  UNL1        0.0594
      7 C           6.9680   -5.3854   25.3744 C.3     1  UNL1        0.0356
      8 N           7.7922   -5.6182   24.1231 N.3     1  UNL1       -0.2715
      9 O           4.5004   -4.3317   22.5762 O.2     1  UNL1       -0.2701
     10 C           4.9647   -3.1375   23.3562 C.2     1  UNL1        0.2458
     11 N           6.2300   -3.2113   24.1584 N.am    1  UNL1       -0.3024
     12 H           6.5347   -2.4275   24.6703 H       1  UNL1        0.1497
     13 C           4.1637   -1.8695   23.3339 C.ar    1  UNL1        0.0534
     14 C           3.6406   -1.2902   24.6149 C.ar    1  UNL1        0.0045
     15 C           2.8396   -0.0222   24.5926 C.ar    1  UNL1        0.0001
     16 C           2.5617    0.6666   23.2893 C.ar    1  UNL1        0.0000
     17 C           3.0847    0.0872   22.0084 C.ar    1  UNL1        0.0002
     18 C           3.8857   -1.1808   22.0307 C.ar    1  UNL1        0.0059
     19 C           4.4088   -1.7601   20.7498 C.ar    1  UNL1        0.0193
     20 C           3.5128   -2.5945   19.8830 C.ar    1  UNL1        0.0031
     21 C           4.0359   -3.1738   18.6021 C.ar    1  UNL1        0.0207
     22 C           5.4549   -2.9188   18.1879 C.ar    1  UNL1        0.0989
     23 N           6.3508   -2.0845   19.0546 N.ar    1  UNL1       -0.2423
     24 C           5.8277   -1.5052   20.3356 C.ar    1  UNL1        0.0988
     25 C           6.9912   -4.3502   24.1009 C.3     1  UNL1        0.0991
     26 C           7.2974   -3.2525   25.0763 C.ar    1  UNL1       -0.0061
     27 C           8.4089   -2.2859   24.7930 C.ar    1  UNL1       -0.0029
     28 C           8.7150   -1.1883   25.7684 C.ar    1  UNL1       -0.0002
     29 C           7.9096   -1.0572   27.0271 C.ar    1  UNL1        0.0022
     30 C           8.2157    0.0406   28.0025 C.ar    1  UNL1        0.0296
     31 C           7.4103    0.1716   29.2611 C.ar    1  UNL1        0.1401
     32 F           7.7164    1.2693   30.2365 F       1  UNL1       -0.2042
     33 C           6.2988   -0.7950   29.5443 C.ar    1  UNL1        0.0296
     34 C           5.9927   -1.8927   28.5690 C.ar    1  UNL1        0.0023
     35 C           6.7981   -2.0237   27.3103 C.ar    1  UNL1       -0.0001
     36 C           6.4920   -3.1214   26.3349 C.ar    1  UNL1       -0.0029
@<TRIPOS>BOND
     1     9    10    2
     2    10    11   am
     3     1    11    1
     4     1     2    1
     5     3     2    1
     6     3     4    1
     7     4     5    1
     8     6     5    1
     9     6     7    1
    10     6     8    1
    11     8    25    1
    12    25    26    1
    13    26    27   ar
    14    27    28   ar
    15    28    29   ar
    16    29    30   ar
    17    30    31   ar
    18    31    32    1
    19    31    33   ar
    20    33    34   ar
    21    34    35   ar
    22    35    36   ar
    23    10    13    1
    24    13    14   ar
    25    14    15   ar
    26    15    16   ar
    27    16    17   ar
    28    17    18   ar
    29    18    19    1
    30    19    20   ar
    31    20    21   ar
    32    21    22   ar
    33    22    23   ar
    34    23    24   ar
    35     7     1    1
    36    36    26   ar
    37    18    13   ar
    38    24    19   ar
    39     8     3    1
    40    35    29   ar
    41    11    12    1
@<TRIPOS>MOLECULE
*****
 36 41 0 0 0
SMALL
GASTEIGER

@<TRIPOS>ATOM
      1 C           6.7847    0.2263   17.8608 C.3     1  UNL1        0.0745
      2 C           7.8537    0.7938   18.7469 C.3     1  UNL1        0.0356
      3 C           8.7797    1.8509   18.2223 C.3     1  UNL1        0.0594
      4 C           9.4441    2.8422   17.3137 C.3     1  UNL1        0.0174
      5 C           8.7444    2.7972   15.9876 C.3     1  UNL1        0.0174
      6 C           7.6475    1.7779   16.0768 C.3     1  UNL1        0.0594
      7 C           6.6417    0.7158   16.4501 C.3     1  UNL1        0.0356
      8 N           7.6693    1.1931   17.4579 N.3     1  UNL1       -0.2715
      9 O           7.8799   -2.4231   18.7445 O.2     1  UNL1       -0.2701
     10 C           6.4063   -2.1555   18.8273 C.2     1  UNL1        0.2458
     11 N           5.8586   -0.8308   18.3854 N.am    1  UNL1       -0.3024
     12 H           4.8915   -0.6551   18.4397 H       1  UNL1        0.1497
     13 C           5.4803   -3.2125   19.3519 C.ar    1  UNL1        0.0534
     14 C           5.1009   -4.3753   18.4836 C.ar    1  UNL1        0.0045
     15 C           4.1750   -5.4324   19.0082 C.ar    1  UNL1        0.0001
     16 C           3.6284   -5.3266   20.4011 C.ar    1  UNL1        0.0000
     17 C           4.0078   -4.1638   21.2694 C.ar    1  UNL1        0.0002
     18 C           4.9338   -3.1067   20.7447 C.ar    1  UNL1        0.0059
     19 C           5.3132   -1.9439   21.6130 C.ar    1  UNL1        0.0193
     20 C           4.3298   -0.8378   21.8570 C.ar    1  UNL1        0.0031
     21 C           4.7093    0.3250   22.7253 C.ar    1  UNL1        0.0207
     22 C           6.0721    0.3817   23.3495 C.ar    1  UNL1        0.0989
     23 N           7.0554   -0.7243   23.1054 N.ar    1  UNL1       -0.2423
     24 C           6.6760   -1.8872   22.2371 C.ar    1  UNL1        0.0988
     25 C           6.7433    0.1361   17.9824 C.3     1  UNL1        0.0991
     26 C           5.2878    0.4430   18.1764 C.ar    1  UNL1       -0.0061
     27 C           4.2506   -0.3306   17.4177 C.ar    1  UNL1       -0.0029
     28 C           2.7952   -0.0236   17.6117 C.ar    1  UNL1       -0.0002
     29 C           2.3771    1.0570   18.5644 C.ar    1  UNL1        0.0022
     30 C           0.9217    1.3639   18.7583 C.ar    1  UNL1        0.0296
     31 C           0.5036    2.4445   19.7110 C.ar    1  UNL1        0.1401
     32 F          -0.9518    2.7515   19.9050 F       1  UNL1       -0.2042
     33 C           1.5409    3.2182   20.4696 C.ar    1  UNL1        0.0296
     34 C           2.9963    2.9112   20.2756 C.ar    1  UNL1        0.0023
     35 C           3.4144    1.8306   19.3230 C.ar    1  UNL1       -0.0001
     36 C           4.8697    1.5236   19.1290 C.ar    1  UNL1       -0.0029
@<TRIPOS>BOND
     1     9    10    2
     2    10    11   am
     3     1    11    1
     4     1     2    1
     5     3     2    1
     6     3     4    1
     7     4     5    1
     8     6     5    1
     9     6     7    1
    10     6     8    1
    11     8    25    1
    12    25    26    1
    13    26    27   ar
    14    27    28   ar
    15    28    29   ar
    16    29    30   ar
    17    30    31   ar
    18    31    32    1
    19    31    33   ar
    20    33    34   ar
    21    34    35   ar
    22    35    36   ar
    23    10    13    1
    24    13    14   ar
    25    14    15   ar
    26    15    16   ar
    27    16    17   ar
    28    17    18   ar
    29    18    19    1
    30    19    20   ar
    31    20    21   ar
    32    21    22   ar
    33    22    23   ar
    34    23    24   ar
    35     7     1    1
    36    36    26   ar
    37    18    13   ar
    38    24    19   ar
    39     8     3    1
    40    35    29   ar
    41    11    12    1
@<TRIPOS>MOLECULE
*****
 36 41 0 0 0
SMALL
GASTEIGER

@<TRIPOS>ATOM
      1 C           2.2998    1.4573   18.9093 C.3     1  UNL1        0.0745
      2 C           0.8224    1.4906   18.6523 C.3     1  UNL1        0.0356
      3 C           0.1758    2.7493   18.1545 C.3     1  UNL1        0.0594
      4 C          -0.0272    4.1590   17.6840 C.3     1  UNL1        0.0174
      5 C           1.3056    4.8472   17.6934 C.3     1  UNL1        0.0174
      6 C           2.3323    3.8629   18.1697 C.3     1  UNL1        0.0594
      7 C           3.1307    2.6827   18.6685 C.3     1  UNL1        0.0356
      8 N           1.6341    2.5662   18.4547 N.3     1  UNL1       -0.2715
      9 O           3.3032   -0.5871   16.9564 O.2     1  UNL1       -0.2701
     10 C           3.4480   -0.8236   18.4306 C.2     1  UNL1        0.2458
     11 N           2.9463    0.1986   19.4071 N.am    1  UNL1       -0.3024
     12 H           3.0413    0.0434   20.3746 H       1  UNL1        0.1497
     13 C           4.0945   -2.0823   18.9284 C.ar    1  UNL1        0.0534
     14 C           3.2608   -3.3024   19.1861 C.ar    1  UNL1        0.0045
     15 C           3.9073   -4.5610   19.6838 C.ar    1  UNL1        0.0001
     16 C           5.3875   -4.5997   19.9238 C.ar    1  UNL1        0.0000
     17 C           6.2212   -3.3796   19.6661 C.ar    1  UNL1        0.0002
     18 C           5.5746   -2.1209   19.1683 C.ar    1  UNL1        0.0059
     19 C           6.4083   -0.9008   18.9106 C.ar    1  UNL1        0.0193
     20 C           6.8842   -0.0613   20.0590 C.ar    1  UNL1        0.0031
     21 C           7.7179    1.1587   19.8013 C.ar    1  UNL1        0.0207
     22 C           8.0756    1.5393   18.3951 C.ar    1  UNL1        0.0989
     23 N           7.5997    0.6998   17.2468 N.ar    1  UNL1       -0.2423
     24 C           6.7660   -0.5203   17.5045 C.ar    1  UNL1        0.0988
     25 C           2.2806    1.3076   18.9524 C.3     1  UNL1        0.0991
     26 C           2.6515    1.1767   20.4000 C.ar    1  UNL1       -0.0061
     27 C           1.7215    0.4863   21.3530 C.ar    1  UNL1       -0.0029
     28 C           2.0924    0.3554   22.8005 C.ar    1  UNL1       -0.0002
     29 C           3.3933    0.9151   23.2950 C.ar    1  UNL1        0.0022
     30 C           3.7642    0.7842   24.7426 C.ar    1  UNL1        0.0296
     31 C           5.0651    1.3439   25.2370 C.ar    1  UNL1        0.1401
     32 F           5.4360    1.2130   26.6845 F       1  UNL1       -0.2042
     33 C           5.9951    2.0344   24.2839 C.ar    1  UNL1        0.0296
     34 C           5.6242    2.1652   22.8364 C.ar    1  UNL1        0.0023
     35 C           4.3233    1.6055   22.3419 C.ar    1  UNL1       -0.0001
     36 C           3.9524    1.7364   20.8945 C.ar    1  UNL1       -0.0029
@<TRIPOS>BOND
     1     9    10    2
     2    10    11   am
     3     1    11    1
     4     1     2    1
     5     3     2    1
     6     3     4    1
     7     4     5    1
     8     6     5    1
     9     6     7    1
    10     6     8    1
    11     8    25    1
    12    25    26    1
    13    26    27   ar
    14    27    28   ar
    15    28    29   ar
    16    29    30   ar
    17    30    31   ar
    18    31    32    1
    19    31    33   ar
    20    33    34   ar
    21    34    35   ar
    22    35    36   ar
    23    10    13    1
    24    13    14   ar
    25    14    15   ar
    26    15    16   ar
    27    16    17   ar
    28    17    18   ar
    29    18    19    1
    30    19    20   ar
    31    20    21   ar
    32    21    22   ar
    33    22    23   ar
    34    23    24   ar
    35     7     1    1
    36    36    26   ar
    37    18    13   ar
    38    24    19   ar
    39     8     3    1
    40    35    29   ar
    41    11    12    1
@<TRIPOS>MOLECULE
*****
 36 41 0 0 0
SMALL
GASTEIGER

@<TRIPOS>ATOM
      1 C           5.9432   -2.6397   21.6649 C.3     1  UNL1        0.0745
      2 C           7.1435   -2.8755   20.7968 C.3     1  UNL1        0.0356
      3 C           8.1502   -3.9206   21.1766 C.3     1  UNL1        0.0594
      4 C           8.8590   -5.0168   21.9154 C.3     1  UNL1        0.0174
      5 C           8.0541   -5.3479   23.1372 C.3     1  UNL1        0.0174
      6 C           6.8480   -4.4563   23.1535 C.3     1  UNL1        0.0594
      7 C           5.7496   -3.4490   22.9129 C.3     1  UNL1        0.0356
      8 N           6.9074   -3.5742   21.9418 N.3     1  UNL1       -0.2715
      9 O           3.9739   -3.1825   19.4678 O.2     1  UNL1       -0.2701
     10 C           3.9518   -1.8660   20.1864 C.2     1  UNL1        0.2458
     11 N           4.9365   -1.5946   21.2850 N.am    1  UNL1       -0.3024
     12 H           4.9220   -0.7305   21.7566 H       1  UNL1        0.1497
     13 C           2.9451   -0.8209   19.8065 C.ar    1  UNL1        0.0534
     14 C           1.5277   -0.9363   20.2835 C.ar    1  UNL1        0.0045
     15 C           0.5210    0.1087   19.9036 C.ar    1  UNL1        0.0001
     16 C           0.9317    1.2693   19.0465 C.ar    1  UNL1        0.0000
     17 C           2.3492    1.3847   18.5695 C.ar    1  UNL1        0.0002
     18 C           3.3559    0.3396   18.9495 C.ar    1  UNL1        0.0059
     19 C           4.7733    0.4550   18.4724 C.ar    1  UNL1        0.0193
     20 C           5.7579    1.2861   19.2406 C.ar    1  UNL1        0.0031
     21 C           7.1753    1.4015   18.7636 C.ar    1  UNL1        0.0207
     22 C           7.6081    0.6859   17.5183 C.ar    1  UNL1        0.0989
     23 N           6.6236   -0.1451   16.7502 N.ar    1  UNL1       -0.2423
     24 C           5.2062   -0.2606   17.2272 C.ar    1  UNL1        0.0988
     25 C           5.9007   -2.5291   21.5619 C.3     1  UNL1        0.0991
     26 C           5.6751   -1.3452   22.4551 C.ar    1  UNL1       -0.0061
     27 C           6.6544   -0.2091   22.4562 C.ar    1  UNL1       -0.0029
     28 C           6.4288    0.9746   23.3493 C.ar    1  UNL1       -0.0002
     29 C           5.2238    1.0223   24.2414 C.ar    1  UNL1        0.0022
     30 C           4.9982    2.2061   25.1346 C.ar    1  UNL1        0.0296
     31 C           3.7932    2.2537   26.0266 C.ar    1  UNL1        0.1401
     32 F           3.5675    3.4375   26.9198 F       1  UNL1       -0.2042
     33 C           2.8138    1.1175   26.0255 C.ar    1  UNL1        0.0296
     34 C           3.0394   -0.0662   25.1323 C.ar    1  UNL1        0.0023
     35 C           4.2444   -0.1139   24.2403 C.ar    1  UNL1       -0.0001
     36 C           4.4701   -1.2976   23.3471 C.ar    1  UNL1       -0.0029
@<TRIPOS>BOND
     1     9    10    2
     2    10    11   am
     3     1    11    1
     4     1     2    1
     5     3     2    1
     6     3     4    1
     7     4     5    1
     8     6     5    1
     9     6     7    1
    10     6     8    1
    11     8    25    1
    12    25    26    1
    13    26    27   ar
    14    27    28   ar
    15    28    29   ar
    16    29    30   ar
    17    30    31   ar
    18    31    32    1
    19    31    33   ar
    20    33    34   ar
    21    34    35   ar
    22    35    36   ar
    23    10    13    1
    24    13    14   ar
    25    14    15   ar
    26    15    16   ar
    27    16    17   ar
    28    17    18   ar
    29    18    19    1
    30    19    20   ar
    31    20    21   ar
    32    21    22   ar
    33    22    23   ar
    34    23    24   ar
    35     7     1    1
    36    36    26   ar
    37    18    13   ar
    38    24    19   ar
    39     8     3    1
    40    35    29   ar
    41    11    12    1
@<TRIPOS>MOLECULE
*****
 36 41 0 0 0
SMALL
GASTEIGER

@<TRIPOS>ATOM
      1 C           5.0349    2.5037   19.2086 C.3     1  UNL1        0.0745
      2 C           3.8682    3.3836   18.8700 C.3     1  UNL1        0.0356
      3 C           3.9631    4.3471   17.7244 C.3     1  UNL1        0.0594
      4 C           4.4866    5.1215   16.5512 C.3     1  UNL1        0.0174
      5 C           5.8886    4.6617   16.2808 C.3     1  UNL1        0.0174
      6 C           6.2315    3.6033   17.2868 C.3     1  UNL1        0.0594
      7 C           6.2965    2.5873   18.4016 C.3     1  UNL1        0.0356
      8 N           5.0415    3.4088   18.1790 N.3     1  UNL1       -0.2715
      9 O           4.8777    3.5305   22.0230 O.2     1  UNL1       -0.2701
     10 C           4.8613    2.0535   21.7615 C.2     1  UNL1        0.2458
     11 N           4.9399    1.5401   20.3543 N.am    1  UNL1       -0.3024
     12 H           4.9292    0.5707   20.1827 H       1  UNL1        0.1497
     13 C           4.7664    1.0900   22.9072 C.ar    1  UNL1        0.0534
     14 C           5.9138    0.9451   23.8624 C.ar    1  UNL1        0.0045
     15 C           5.8189   -0.0184   25.0081 C.ar    1  UNL1        0.0001
     16 C           4.5764   -0.8370   25.1986 C.ar    1  UNL1        0.0000
     17 C           3.4290   -0.6921   24.2434 C.ar    1  UNL1        0.0002
     18 C           3.5240    0.2714   23.0977 C.ar    1  UNL1        0.0059
     19 C           2.3765    0.4163   22.1425 C.ar    1  UNL1        0.0193
     20 C           2.0922   -0.6648   21.1423 C.ar    1  UNL1        0.0031
     21 C           0.9447   -0.5199   20.1871 C.ar    1  UNL1        0.0207
     22 C           0.0817    0.7062   20.2321 C.ar    1  UNL1        0.0989
     23 N           0.3660    1.7872   21.2323 N.ar    1  UNL1       -0.2423
     24 C           1.5135    1.6423   22.1875 C.ar    1  UNL1        0.0988
     25 C           4.9466    2.4453   19.3246 C.3     1  UNL1        0.0991
     26 C           4.7677    0.9798   19.0592 C.ar    1  UNL1       -0.0061
     27 C           3.7990    0.5203   18.0102 C.ar    1  UNL1       -0.0029
     28 C           3.6201   -0.9451   17.7449 C.ar    1  UNL1       -0.0002
     29 C           4.4099   -1.9511   18.5286 C.ar    1  UNL1        0.0022
     30 C           4.2310   -3.4166   18.2632 C.ar    1  UNL1        0.0296
     31 C           5.0208   -4.4226   19.0469 C.ar    1  UNL1        0.1401
     32 F           4.8419   -5.8880   18.7816 F       1  UNL1       -0.2042
     33 C           5.9895   -3.9631   20.0960 C.ar    1  UNL1        0.0296
     34 C           6.1684   -2.4977   20.3613 C.ar    1  UNL1        0.0023
     35 C           5.3786   -1.4917   19.5776 C.ar    1  UNL1       -0.0001
     36 C           5.5575   -0.0262   19.8429 C.ar    1  UNL1       -0.0029
@<TRIPOS>BOND
     1     9    10    2
     2    10    11   am
     3     1    11    1
     4     1     2    1
     5     3     2    1
     6     3     4    1
     7     4     5    1
     8     6     5    1
     9     6     7    1
    10     6     8    1
    11     8    25    1
    12    25    26    1
    13    26    27   ar
    14    27    28   ar
    15    28    29   ar
    16    29    30   ar
    17    30    31   ar
    18    31    32    1
    19    31    33   ar
    20    33    34   ar
    21    34    35   ar
    22    35    36   ar
    23    10    13    1
    24    13    14   ar
    25    14    15   ar
    26    15    16   ar
    27    16    17   ar
    28    17    18   ar
    29    18    19    1
    30    19    20   ar
    31    20    21   ar
    32    21    22   ar
    33    22    23   ar
    34    23    24   ar
    35     7     1    1
    36    36    26   ar
    37    18    13   ar
    38    24    19   ar
    39     8     3    1
    40    35    29   ar
    41    11    12    1
@<TRIPOS>MOLECULE
*****
 36 41 0 0 0
SMALL
GASTEIGER

@<TRIPOS>ATOM
      1 C           4.6050   -1.8770   19.1388 C.3     1  UNL1        0.0745
      2 C           5.7564   -2.8002   18.8707 C.3     1  UNL1        0.0356
      3 C           5.5495   -4.2855   18.9009 C.3     1  UNL1        0.0594
      4 C           4.9050   -5.6338   19.0307 C.3     1  UNL1        0.0174
      5 C           3.4560   -5.4253   19.3577 C.3     1  UNL1        0.0174
      6 C           3.2050   -3.9482   19.4301 C.3     1  UNL1        0.0594
      7 C           3.2467   -2.4391   19.4372 C.3     1  UNL1        0.0356
      8 N           4.4989   -3.2438   19.1477 N.3     1  UNL1       -0.2715
      9 O           4.4095   -0.3879   16.5418 O.2     1  UNL1       -0.2701
     10 C           4.7142    0.3530   17.8101 C.2     1  UNL1        0.2458
     11 N           4.8119   -0.3916   19.1086 N.am    1  UNL1       -0.3024
     12 H           5.0119    0.0946   19.9410 H       1  UNL1        0.1497
     13 C           4.9211    1.8383   17.7798 C.ar    1  UNL1        0.0534
     14 C           6.1199    2.4146   17.0865 C.ar    1  UNL1        0.0045
     15 C           6.3268    3.8999   17.0563 C.ar    1  UNL1        0.0001
     16 C           5.3349    4.8090   17.7193 C.ar    1  UNL1        0.0000
     17 C           4.1361    4.2328   18.4126 C.ar    1  UNL1        0.0002
     18 C           3.9292    2.7473   18.4429 C.ar    1  UNL1        0.0059
     19 C           2.7303    2.1711   19.1362 C.ar    1  UNL1        0.0193
     20 C           2.5538    2.3633   20.6134 C.ar    1  UNL1        0.0031
     21 C           1.3549    1.7870   21.3067 C.ar    1  UNL1        0.0207
     22 C           0.3326    1.0185   20.5228 C.ar    1  UNL1        0.0989
     23 N           0.5092    0.8263   19.0457 N.ar    1  UNL1       -0.2423
     24 C           1.7081    1.4026   18.3524 C.ar    1  UNL1        0.0988
     25 C           4.7057   -1.7585   19.1175 C.3     1  UNL1        0.0991
     26 C           4.8425   -0.9940   20.4009 C.ar    1  UNL1       -0.0061
     27 C           6.0436   -0.1259   20.6325 C.ar    1  UNL1       -0.0029
     28 C           6.1803    0.6385   21.9158 C.ar    1  UNL1       -0.0002
     29 C           5.1158    0.5349   22.9675 C.ar    1  UNL1        0.0022
     30 C           5.2525    1.2994   24.2509 C.ar    1  UNL1        0.0296
     31 C           4.1880    1.1958   25.3026 C.ar    1  UNL1        0.1401
     32 F           4.3247    1.9602   26.5859 F       1  UNL1       -0.2042
     33 C           2.9868    0.3277   25.0709 C.ar    1  UNL1        0.0296
     34 C           2.8501   -0.4368   23.7876 C.ar    1  UNL1        0.0023
     35 C           3.9146   -0.3332   22.7359 C.ar    1  UNL1       -0.0001
     36 C           3.7780   -1.0976   21.4526 C.ar    1  UNL1       -0.0029
@<TRIPOS>BOND
     1     9    10    2
     2    10    11   am
     3     1    11    1
     4     1     2    1
     5     3     2    1
     6     3     4    1
     7     4     5    1
     8     6     5    1
     9     6     7    1
    10     6     8    1
    11     8    25    1
    12    25    26    1
    13    26    27   ar
    14    27    28   ar
    15    28    29   ar
    16    29    30   ar
    17    30    31   ar
    18    31    32    1
    19    31    33   ar
    20    33    34   ar
    21    34    35   ar
    22    35    36   ar
    23    10    13    1
    24    13    14   ar
    25    14    15   ar
    26    15    16   ar
    27    16    17   ar
    28    17    18   ar
    29    18    19    1
    30    19    20   ar
    31    20    21   ar
    32    21    22   ar
    33    22    23   ar
    34    23    24   ar
    35     7     1    1
    36    36    26   ar
    37    18    13   ar
    38    24    19   ar
    39     8     3    1
    40    35    29   ar
    41    11    12    1
