@<TRIPOS>MOLECULE
*****
 29 32 0 0 0
SMALL
GASTEIGER

@<TRIPOS>ATOM
      1 C          -7.2340  -17.8865   22.0326 C.2     1  UNL1        0.3279
      2 N          -5.8775  -18.2718   21.5214 N.2     1  UNL1       -0.0020
      3 C          -4.6462  -17.8314   22.2562 C.2     1  UNL1        0.3351
      4 C          -4.7714  -17.0057   23.5022 C.2     1  UNL1        0.0880
      5 C          -6.1280  -16.6204   24.0134 C.2     1  UNL1        0.0161
      6 C          -6.5611  -15.8193   25.2053 C.2     1  UNL1       -0.0100
      7 C          -5.6545  -15.1844   26.2176 C.3     1  UNL1        0.0320
      8 C          -8.0602  -15.7646   25.2071 C.2     1  UNL1        0.0509
      9 C          -8.9157  -15.0654   26.2217 C.3     1  UNL1        0.0513
     10 N          -8.5534  -16.5319   24.0164 N.2     1  UNL1       -0.2602
     11 C          -7.3592  -17.0608   23.2786 C.3     1  UNL1        0.2298
     12 N          -3.2896  -18.2167   21.7450 N.am    1  UNL1       -0.1223
     13 C          -2.8168  -19.6123   21.4644 C.3     1  UNL1        0.2331
     14 C          -1.4027  -19.5321   20.9707 C.3     1  UNL1        0.1443
     15 N          -1.0014  -18.0870   20.9462 N.am    1  UNL1       -0.2643
     16 C          -2.1676  -17.2740   21.4247 C.2     1  UNL1        0.3956
     17 O          -2.2053  -15.7805   21.5594 O.2     1  UNL1       -0.2236
     18 H          -0.1263  -17.7340   20.6653 H       1  UNL1        0.1532
     19 N          -8.4653  -18.3269   21.2978 N.pl3   1  UNL1       -0.2166
     20 H          -8.6583  -17.9684   20.4014 H       1  UNL1        0.2923
     21 C          -9.4026  -19.3135   21.9288 C.3     1  UNL1        0.2258
     22 C         -11.3798  -17.9950   20.0978 C.3     1  UNL1        0.0308
     23 C         -11.7162  -18.1952   21.5457 C.ar    1  UNL1       -0.0223
     24 C         -13.0413  -17.7361   22.0783 C.ar    1  UNL1       -0.0045
     25 C         -13.3777  -17.9363   23.5263 C.ar    1  UNL1       -0.0007
     26 C         -12.3891  -18.5955   24.4418 C.ar    1  UNL1       -0.0045
     27 C         -11.0641  -19.0546   23.9093 C.ar    1  UNL1       -0.0223
     28 C         -10.0756  -19.7139   24.8248 C.3     1  UNL1        0.0308
     29 C         -10.7276  -18.8544   22.4612 C.ar    1  UNL1        0.0162
@<TRIPOS>BOND
     1    22    23    1
     2    23    24   ar
     3    24    25   ar
     4    25    26   ar
     5    26    27   ar
     6    27    28    1
     7    27    29   ar
     8    29    21    1
     9    21    19    1
    10    19     1    1
    11     1     2    2
    12     2     3    1
    13     3    12    1
    14    12    13    1
    15    13    14    1
    16    14    15    1
    17    15    16   am
    18    16    17    2
    19     3     4    2
    20     4     5    1
    21     5     6    2
    22     6     7    1
    23     6     8    1
    24     8     9    1
    25     8    10    2
    26    10    11    1
    27    29    23   ar
    28    11     1    1
    29    16    12   am
    30    11     5    1
    31    19    20    1
    32    15    18    1
@<TRIPOS>MOLECULE
*****
 29 32 0 0 0
SMALL
GASTEIGER

@<TRIPOS>ATOM
      1 C          -7.2362  -17.8853   22.0315 C.2     1  UNL1        0.3279
      2 N          -5.8794  -18.2714   21.5216 N.2     1  UNL1       -0.0020
      3 C          -4.6487  -17.8322   22.2581 C.2     1  UNL1        0.3351
      4 C          -4.7747  -17.0070   23.5043 C.2     1  UNL1        0.0880
      5 C          -6.1316  -16.6210   24.0141 C.2     1  UNL1        0.0161
      6 C          -6.5655  -15.8202   25.2059 C.2     1  UNL1       -0.0100
      7 C          -5.6596  -15.1864   26.2196 C.3     1  UNL1        0.0320
      8 C          -8.0645  -15.7644   25.2061 C.2     1  UNL1        0.0509
      9 C          -8.9207  -15.0651   26.2200 C.3     1  UNL1        0.0513
     10 N          -8.5570  -16.5307   24.0144 N.2     1  UNL1       -0.2602
     11 C          -7.3623  -17.0601   23.2777 C.3     1  UNL1        0.2298
     12 N          -3.2917  -18.2182   21.7483 N.am    1  UNL1       -0.1223
     13 C          -2.8188  -19.6142   21.4699 C.3     1  UNL1        0.2331
     14 C          -1.4043  -19.5348   20.9769 C.3     1  UNL1        0.1443
     15 N          -1.0031  -18.0896   20.9506 N.am    1  UNL1       -0.2643
     16 C          -2.1696  -17.2760   21.4274 C.2     1  UNL1        0.3956
     17 O          -2.2073  -15.7824   21.5599 O.2     1  UNL1       -0.2236
     18 H          -0.1278  -17.7371   20.6698 H       1  UNL1        0.1532
     19 N          -8.4670  -18.3245   21.2950 N.pl3   1  UNL1       -0.2166
     20 H          -8.6592  -17.9647   20.3990 H       1  UNL1        0.2923
     21 C          -9.4050  -19.3118   21.9238 C.3     1  UNL1        0.2258
     22 C         -10.0756  -19.7165   24.8198 C.3     1  UNL1        0.0308
     23 C         -11.0646  -19.0552   23.9062 C.ar    1  UNL1       -0.0223
     24 C         -12.3889  -18.5962   24.4406 C.ar    1  UNL1       -0.0045
     25 C         -13.3778  -17.9349   23.5271 C.ar    1  UNL1       -0.0007
     26 C         -13.0425  -17.7325   22.0791 C.ar    1  UNL1       -0.0045
     27 C         -11.7183  -18.1915   21.5447 C.ar    1  UNL1       -0.0223
     28 C         -11.3830  -17.9891   20.0967 C.3     1  UNL1        0.0308
     29 C         -10.7292  -18.8529   22.4583 C.ar    1  UNL1        0.0162
@<TRIPOS>BOND
     1    22    23    1
     2    23    24   ar
     3    24    25   ar
     4    25    26   ar
     5    26    27   ar
     6    27    28    1
     7    27    29   ar
     8    29    21    1
     9    21    19    1
    10    19     1    1
    11     1     2    2
    12     2     3    1
    13     3    12    1
    14    12    13    1
    15    13    14    1
    16    14    15    1
    17    15    16   am
    18    16    17    2
    19     3     4    2
    20     4     5    1
    21     5     6    2
    22     6     7    1
    23     6     8    1
    24     8     9    1
    25     8    10    2
    26    10    11    1
    27    29    23   ar
    28    11     1    1
    29    16    12   am
    30    11     5    1
    31    19    20    1
    32    15    18    1
@<TRIPOS>MOLECULE
*****
 29 32 0 0 0
SMALL
GASTEIGER

@<TRIPOS>ATOM
      1 C          -7.9124  -17.7553   21.7208 C.2     1  UNL1        0.3279
      2 N          -8.1453  -17.0332   23.0147 N.2     1  UNL1       -0.0020
      3 C          -7.0113  -16.8314   23.9755 C.2     1  UNL1        0.3351
      4 C          -5.6444  -17.3516   23.6425 C.2     1  UNL1        0.0880
      5 C          -5.4115  -18.0737   22.3485 C.2     1  UNL1        0.0161
      6 C          -4.1827  -18.6935   21.7520 C.2     1  UNL1       -0.0100
      7 C          -2.8188  -18.7232   22.3756 C.3     1  UNL1        0.0320
      8 C          -4.5572  -19.2784   20.4225 C.2     1  UNL1        0.0509
      9 C          -3.6335  -19.9957   19.4831 C.3     1  UNL1        0.0513
     10 N          -6.0175  -19.0201   20.1973 N.2     1  UNL1       -0.2602
     11 C          -6.5455  -18.2755   21.3877 C.3     1  UNL1        0.2298
     12 N          -7.2442  -16.1093   25.2696 N.am    1  UNL1       -0.1223
     13 C          -8.4716  -16.2083   26.1260 C.3     1  UNL1        0.2331
     14 C          -8.2765  -15.3216   27.3200 C.3     1  UNL1        0.1443
     15 N          -6.9284  -14.6745   27.2015 N.am    1  UNL1       -0.2643
     16 C          -6.2904  -15.1613   25.9343 C.2     1  UNL1        0.3956
     17 O          -4.9364  -14.7691   25.4217 O.2     1  UNL1       -0.2236
     18 H          -6.5320  -14.0415   27.8429 H       1  UNL1        0.1532
     19 N          -9.0464  -17.9571   20.7598 N.pl3   1  UNL1       -0.2166
     20 H          -9.0960  -17.4191   19.9369 H       1  UNL1        0.2923
     21 C         -10.1048  -18.9788   21.0528 C.3     1  UNL1        0.2258
     22 C          -9.5793  -20.3668   23.6600 C.3     1  UNL1        0.0308
     23 C         -10.7761  -19.4746   23.5132 C.ar    1  UNL1       -0.0223
     24 C         -11.7103  -19.2763   24.6700 C.ar    1  UNL1       -0.0045
     25 C         -12.9071  -18.3841   24.5232 C.ar    1  UNL1       -0.0007
     26 C         -13.1698  -17.6901   23.2196 C.ar    1  UNL1       -0.0045
     27 C         -12.2358  -17.8883   22.0628 C.ar    1  UNL1       -0.0223
     28 C         -12.4985  -17.1944   20.7592 C.3     1  UNL1        0.0308
     29 C         -11.0389  -18.7806   22.2096 C.ar    1  UNL1        0.0162
@<TRIPOS>BOND
     1    22    23    1
     2    23    24   ar
     3    24    25   ar
     4    25    26   ar
     5    26    27   ar
     6    27    28    1
     7    27    29   ar
     8    29    21    1
     9    21    19    1
    10    19     1    1
    11     1     2    2
    12     2     3    1
    13     3    12    1
    14    12    13    1
    15    13    14    1
    16    14    15    1
    17    15    16   am
    18    16    17    2
    19     3     4    2
    20     4     5    1
    21     5     6    2
    22     6     7    1
    23     6     8    1
    24     8     9    1
    25     8    10    2
    26    10    11    1
    27    29    23   ar
    28    11     1    1
    29    16    12   am
    30    11     5    1
    31    19    20    1
    32    15    18    1
@<TRIPOS>MOLECULE
*****
 29 32 0 0 0
SMALL
GASTEIGER

@<TRIPOS>ATOM
      1 C          -7.2756  -17.9956   21.7835 C.2     1  UNL1        0.3279
      2 N          -7.6095  -17.2401   23.0355 N.2     1  UNL1       -0.0020
      3 C          -6.5157  -16.8194   23.9718 C.2     1  UNL1        0.3351
      4 C          -5.0881  -17.1543   23.6561 C.2     1  UNL1        0.0880
      5 C          -4.7542  -17.9098   22.4040 C.2     1  UNL1        0.0161
      6 C          -3.4490  -18.3785   21.8324 C.2     1  UNL1       -0.0100
      7 C          -2.0945  -18.1729   22.4432 C.3     1  UNL1        0.0320
      8 C          -3.7361  -19.0888   20.5428 C.2     1  UNL1        0.0509
      9 C          -2.7191  -19.7184   19.6376 C.3     1  UNL1        0.0513
     10 N          -5.2188  -19.0591   20.3174 N.2     1  UNL1       -0.2602
     11 C          -5.8480  -18.3304   21.4677 C.3     1  UNL1        0.2298
     12 N          -6.8496  -16.0639   25.2240 N.am    1  UNL1       -0.1223
     13 C          -5.8848  -15.6827   26.3075 C.3     1  UNL1        0.2331
     14 C          -6.6458  -14.9401   27.3655 C.3     1  UNL1        0.1443
     15 N          -8.0809  -14.8624   26.9360 N.am    1  UNL1       -0.2643
     16 C          -8.2068  -15.5569   25.6124 C.2     1  UNL1        0.3956
     17 O          -9.4685  -15.7164   24.8170 O.2     1  UNL1       -0.2236
     18 H          -8.8118  -14.4312   27.4351 H       1  UNL1        0.1532
     19 N          -8.3694  -18.4162   20.8471 N.pl3   1  UNL1       -0.2166
     20 H          -8.4029  -18.0510   19.9335 H       1  UNL1        0.2923
     21 C          -9.4123  -19.3934   21.3028 C.3     1  UNL1        0.2258
     22 C         -11.4759  -17.7251   19.9034 C.3     1  UNL1        0.0308
     23 C         -11.6501  -18.0744   21.3517 C.ar    1  UNL1       -0.0223
     24 C         -12.8561  -17.5895   22.1004 C.ar    1  UNL1       -0.0045
     25 C         -13.0303  -17.9388   23.5487 C.ar    1  UNL1       -0.0007
     26 C         -11.9985  -18.7729   24.2484 C.ar    1  UNL1       -0.0045
     27 C         -10.7925  -19.2578   23.4998 C.ar    1  UNL1       -0.0223
     28 C          -9.7607  -20.0919   24.1995 C.3     1  UNL1        0.0308
     29 C         -10.6183  -18.9085   22.0514 C.ar    1  UNL1        0.0162
@<TRIPOS>BOND
     1    22    23    1
     2    23    24   ar
     3    24    25   ar
     4    25    26   ar
     5    26    27   ar
     6    27    28    1
     7    27    29   ar
     8    29    21    1
     9    21    19    1
    10    19     1    1
    11     1     2    2
    12     2     3    1
    13     3    12    1
    14    12    13    1
    15    13    14    1
    16    14    15    1
    17    15    16   am
    18    16    17    2
    19     3     4    2
    20     4     5    1
    21     5     6    2
    22     6     7    1
    23     6     8    1
    24     8     9    1
    25     8    10    2
    26    10    11    1
    27    29    23   ar
    28    11     1    1
    29    16    12   am
    30    11     5    1
    31    19    20    1
    32    15    18    1
@<TRIPOS>MOLECULE
*****
 29 32 0 0 0
SMALL
GASTEIGER

@<TRIPOS>ATOM
      1 C          -7.0416  -18.4264   22.0970 C.2     1  UNL1        0.3279
      2 N          -6.7462  -17.6863   23.3678 N.2     1  UNL1       -0.0020
      3 C          -7.8080  -16.8426   24.0085 C.2     1  UNL1        0.3351
      4 C          -9.1654  -16.7391   23.3785 C.2     1  UNL1        0.0880
      5 C          -9.4608  -17.4792   22.1077 C.2     1  UNL1        0.0161
      6 C         -10.6965  -17.5680   21.2620 C.2     1  UNL1       -0.0100
      7 C         -12.0013  -16.8793   21.5323 C.3     1  UNL1        0.0320
      8 C         -10.3983  -18.4666   20.0985 C.2     1  UNL1        0.0509
      9 C         -11.3526  -18.8341   19.0011 C.3     1  UNL1        0.0513
     10 N          -8.9783  -18.9331   20.2252 N.2     1  UNL1       -0.2602
     11 C          -8.3990  -18.3228   21.4670 C.3     1  UNL1        0.2298
     12 N          -7.5126  -16.1025   25.2794 N.am    1  UNL1       -0.1223
     13 C          -8.2923  -16.1985   26.5572 C.3     1  UNL1        0.2331
     14 C          -7.6472  -15.2917   27.5630 C.3     1  UNL1        0.1443
     15 N          -6.4688  -14.6353   26.9068 N.am    1  UNL1       -0.2643
     16 C          -6.3857  -15.1364   25.4954 C.2     1  UNL1        0.3956
     17 O          -5.3563  -14.7408   24.4786 O.2     1  UNL1       -0.2236
     18 H          -5.8573  -13.9891   27.3284 H       1  UNL1        0.1532
     19 N          -5.9797  -19.2701   21.4561 N.pl3   1  UNL1       -0.2166
     20 H          -6.1877  -19.7940   20.6490 H       1  UNL1        0.2923
     21 C          -4.6009  -19.3155   22.0451 C.3     1  UNL1        0.2258
     22 C          -3.3129  -16.9300   23.3298 C.3     1  UNL1        0.0308
     23 C          -2.8239  -17.4207   21.9994 C.ar    1  UNL1       -0.0223
     24 C          -1.6909  -16.7188   21.3113 C.ar    1  UNL1       -0.0045
     25 C          -1.2019  -17.2095   19.9809 C.ar    1  UNL1       -0.0007
     26 C          -1.8459  -18.4023   19.3386 C.ar    1  UNL1       -0.0045
     27 C          -2.9789  -19.1043   20.0266 C.ar    1  UNL1       -0.0223
     28 C          -3.6229  -20.2970   19.3843 C.3     1  UNL1        0.0308
     29 C          -3.4679  -18.6135   21.3571 C.ar    1  UNL1        0.0162
@<TRIPOS>BOND
     1    22    23    1
     2    23    24   ar
     3    24    25   ar
     4    25    26   ar
     5    26    27   ar
     6    27    28    1
     7    27    29   ar
     8    29    21    1
     9    21    19    1
    10    19     1    1
    11     1     2    2
    12     2     3    1
    13     3    12    1
    14    12    13    1
    15    13    14    1
    16    14    15    1
    17    15    16   am
    18    16    17    2
    19     3     4    2
    20     4     5    1
    21     5     6    2
    22     6     7    1
    23     6     8    1
    24     8     9    1
    25     8    10    2
    26    10    11    1
    27    29    23   ar
    28    11     1    1
    29    16    12   am
    30    11     5    1
    31    19    20    1
    32    15    18    1
@<TRIPOS>MOLECULE
*****
 29 32 0 0 0
SMALL
GASTEIGER

@<TRIPOS>ATOM
      1 C          -6.8742  -18.3128   22.2119 C.2     1  UNL1        0.3279
      2 N          -6.3806  -17.5412   23.3997 N.2     1  UNL1       -0.0020
      3 C          -7.2699  -16.5289   24.0587 C.2     1  UNL1        0.3351
      4 C          -8.6528  -16.2881   23.5299 C.2     1  UNL1        0.0880
      5 C          -9.1464  -17.0596   22.3420 C.2     1  UNL1        0.0161
      6 C         -10.4515  -17.0383   21.6030 C.2     1  UNL1       -0.0100
      7 C         -11.6320  -16.1702   21.9235 C.3     1  UNL1        0.0320
      8 C         -10.3689  -18.0374   20.4872 C.2     1  UNL1        0.0509
      9 C         -11.4523  -18.3439   19.4961 C.3     1  UNL1        0.0513
     10 N          -9.0126  -18.6763   20.5366 N.2     1  UNL1       -0.2602
     11 C          -8.2571  -18.0720   21.6830 C.3     1  UNL1        0.2298
     12 N          -6.7763  -15.7573   25.2466 N.am    1  UNL1       -0.1223
     13 C          -5.5360  -14.9153   25.2977 C.3     1  UNL1        0.2331
     14 C          -5.4296  -14.3299   26.6747 C.3     1  UNL1        0.1443
     15 N          -6.6042  -14.8101   27.4746 N.am    1  UNL1       -0.2643
     16 C          -7.4365  -15.6922   26.5920 C.2     1  UNL1        0.3956
     17 O          -8.7061  -16.3873   26.9857 O.2     1  UNL1       -0.2236
     18 H          -6.7952  -14.5856   28.4139 H       1  UNL1        0.1532
     19 N          -5.9849  -19.3252   21.5528 N.pl3   1  UNL1       -0.2166
     20 H          -6.3347  -19.8876   20.8244 H       1  UNL1        0.2923
     21 C          -4.5627  -19.4805   22.0035 C.3     1  UNL1        0.2258
     22 C          -3.6899  -20.3770   19.2769 C.3     1  UNL1        0.0308
     23 C          -3.0289  -19.1972   19.9258 C.ar    1  UNL1       -0.0223
     24 C          -1.9314  -18.4655   19.2114 C.ar    1  UNL1       -0.0045
     25 C          -1.2705  -17.2857   19.8602 C.ar    1  UNL1       -0.0007
     26 C          -1.7069  -16.8375   21.2235 C.ar    1  UNL1       -0.0045
     27 C          -2.8043  -17.5691   21.9380 C.ar    1  UNL1       -0.0223
     28 C          -3.2407  -17.1208   23.3013 C.3     1  UNL1        0.0308
     29 C          -3.4653  -18.7490   21.2891 C.ar    1  UNL1        0.0162
@<TRIPOS>BOND
     1    22    23    1
     2    23    24   ar
     3    24    25   ar
     4    25    26   ar
     5    26    27   ar
     6    27    28    1
     7    27    29   ar
     8    29    21    1
     9    21    19    1
    10    19     1    1
    11     1     2    2
    12     2     3    1
    13     3    12    1
    14    12    13    1
    15    13    14    1
    16    14    15    1
    17    15    16   am
    18    16    17    2
    19     3     4    2
    20     4     5    1
    21     5     6    2
    22     6     7    1
    23     6     8    1
    24     8     9    1
    25     8    10    2
    26    10    11    1
    27    29    23   ar
    28    11     1    1
    29    16    12   am
    30    11     5    1
    31    19    20    1
    32    15    18    1
@<TRIPOS>MOLECULE
*****
 29 32 0 0 0
SMALL
GASTEIGER

@<TRIPOS>ATOM
      1 C          -6.0338  -16.3786   23.6484 C.2     1  UNL1        0.3279
      2 N          -7.0474  -17.1520   22.8582 N.2     1  UNL1       -0.0020
      3 C          -8.4476  -17.2996   23.3753 C.2     1  UNL1        0.3351
      4 C          -8.8343  -16.6738   24.6825 C.2     1  UNL1        0.0880
      5 C          -7.8208  -15.9004   25.4726 C.2     1  UNL1        0.0161
      6 C          -7.9092  -15.1777   26.7841 C.2     1  UNL1       -0.0100
      7 C          -9.1291  -15.0684   27.6500 C.3     1  UNL1        0.0320
      8 C          -6.5636  -14.5834   27.0775 C.2     1  UNL1        0.0509
      9 C          -6.2017  -13.7754   28.2885 C.3     1  UNL1        0.0513
     10 N          -5.6435  -14.9388   25.9475 N.2     1  UNL1       -0.2602
     11 C          -6.4205  -15.7528   24.9556 C.3     1  UNL1        0.2298
     12 N          -9.4613  -18.0731   22.5851 N.am    1  UNL1       -0.1223
     13 C         -10.3926  -17.5087   21.5536 C.3     1  UNL1        0.2331
     14 C         -11.2285  -18.6336   21.0187 C.3     1  UNL1        0.1443
     15 N         -10.8137  -19.8932   21.7197 N.am    1  UNL1       -0.2643
     16 C          -9.7216  -19.5468   22.6878 C.2     1  UNL1        0.3956
     17 O          -9.0139  -20.5058   23.5986 O.2     1  UNL1       -0.2236
     18 H         -11.1920  -20.7899   21.5706 H       1  UNL1        0.1532
     19 N          -4.6334  -16.2309   23.1313 N.pl3   1  UNL1       -0.2166
     20 H          -4.3106  -15.3515   22.8287 H       1  UNL1        0.2923
     21 C          -3.7250  -17.4233   23.0754 C.3     1  UNL1        0.2258
     22 C          -5.2789  -19.8284   22.1806 C.3     1  UNL1        0.0308
     23 C          -4.1919  -19.2713   21.3100 C.ar    1  UNL1       -0.0223
     24 C          -3.8818  -19.9168   19.9919 C.ar    1  UNL1       -0.0045
     25 C          -2.7948  -19.3597   19.1213 C.ar    1  UNL1       -0.0007
     26 C          -2.0179  -18.1571   19.5687 C.ar    1  UNL1       -0.0045
     27 C          -2.3279  -17.5116   20.8867 C.ar    1  UNL1       -0.0223
     28 C          -1.5510  -16.3090   21.3340 C.3     1  UNL1        0.0308
     29 C          -3.4150  -18.0687   21.7574 C.ar    1  UNL1        0.0162
@<TRIPOS>BOND
     1    22    23    1
     2    23    24   ar
     3    24    25   ar
     4    25    26   ar
     5    26    27   ar
     6    27    28    1
     7    27    29   ar
     8    29    21    1
     9    21    19    1
    10    19     1    1
    11     1     2    2
    12     2     3    1
    13     3    12    1
    14    12    13    1
    15    13    14    1
    16    14    15    1
    17    15    16   am
    18    16    17    2
    19     3     4    2
    20     4     5    1
    21     5     6    2
    22     6     7    1
    23     6     8    1
    24     8     9    1
    25     8    10    2
    26    10    11    1
    27    29    23   ar
    28    11     1    1
    29    16    12   am
    30    11     5    1
    31    19    20    1
    32    15    18    1
@<TRIPOS>MOLECULE
*****
 29 32 0 0 0
SMALL
GASTEIGER

@<TRIPOS>ATOM
      1 C          -6.1003  -16.3879   23.6434 C.2     1  UNL1        0.3279
      2 N          -7.1375  -17.1341   22.8577 N.2     1  UNL1       -0.0020
      3 C          -8.5367  -17.2522   23.3852 C.2     1  UNL1        0.3351
      4 C          -8.8987  -16.6242   24.6984 C.2     1  UNL1        0.0880
      5 C          -7.8615  -15.8780   25.4841 C.2     1  UNL1        0.0161
      6 C          -7.9231  -15.1599   26.7996 C.2     1  UNL1       -0.0100
      7 C          -9.1333  -15.0270   27.6757 C.3     1  UNL1        0.0320
      8 C          -6.5619  -14.5979   27.0852 C.2     1  UNL1        0.0509
      9 C          -6.1721  -13.8045   28.2970 C.3     1  UNL1        0.0513
     10 N          -5.6591  -14.9687   25.9461 N.2     1  UNL1       -0.2602
     11 C          -6.4623  -15.7599   24.9566 C.3     1  UNL1        0.2298
     12 N          -9.5740  -17.9984   22.5995 N.am    1  UNL1       -0.1223
     13 C          -9.4731  -19.4208   22.1339 C.3     1  UNL1        0.2331
     14 C         -10.7310  -19.7547   21.3881 C.3     1  UNL1        0.1443
     15 N         -11.6093  -18.5387   21.3928 N.am    1  UNL1       -0.2643
     16 C         -10.8942  -17.4533   22.1415 C.2     1  UNL1        0.3956
     17 O         -11.4090  -16.0663   22.3887 O.2     1  UNL1       -0.2236
     18 H         -12.4989  -18.4658   20.9774 H       1  UNL1        0.1532
     19 N          -4.7010  -16.2698   23.1160 N.pl3   1  UNL1       -0.2166
     20 H          -4.3637  -15.3983   22.8061 H       1  UNL1        0.2923
     21 C          -3.8158  -17.4794   23.0606 C.3     1  UNL1        0.2258
     22 C          -1.6047  -16.3136   21.4017 C.3     1  UNL1        0.0308
     23 C          -2.3615  -17.5108   20.9079 C.ar    1  UNL1       -0.0223
     24 C          -2.0128  -18.1252   19.5846 C.ar    1  UNL1       -0.0045
     25 C          -2.7696  -19.3224   19.0909 C.ar    1  UNL1       -0.0007
     26 C          -3.8752  -19.9053   19.9203 C.ar    1  UNL1       -0.0045
     27 C          -4.2239  -19.2910   21.2435 C.ar    1  UNL1       -0.0223
     28 C          -5.3295  -19.8739   22.0730 C.3     1  UNL1        0.0308
     29 C          -3.4670  -18.0937   21.7374 C.ar    1  UNL1        0.0162
@<TRIPOS>BOND
     1    22    23    1
     2    23    24   ar
     3    24    25   ar
     4    25    26   ar
     5    26    27   ar
     6    27    28    1
     7    27    29   ar
     8    29    21    1
     9    21    19    1
    10    19     1    1
    11     1     2    2
    12     2     3    1
    13     3    12    1
    14    12    13    1
    15    13    14    1
    16    14    15    1
    17    15    16   am
    18    16    17    2
    19     3     4    2
    20     4     5    1
    21     5     6    2
    22     6     7    1
    23     6     8    1
    24     8     9    1
    25     8    10    2
    26    10    11    1
    27    29    23   ar
    28    11     1    1
    29    16    12   am
    30    11     5    1
    31    19    20    1
    32    15    18    1
@<TRIPOS>MOLECULE
*****
 29 32 0 0 0
SMALL
GASTEIGER

@<TRIPOS>ATOM
      1 C          -5.7292  -17.2213   22.4744 C.2     1  UNL1        0.3279
      2 N          -7.1541  -17.6855   22.4103 N.2     1  UNL1       -0.0020
      3 C          -7.5038  -18.9302   21.6499 C.2     1  UNL1        0.3351
      4 C          -6.4287  -19.7107   20.9535 C.2     1  UNL1        0.0880
      5 C          -5.0038  -19.2465   21.0176 C.2     1  UNL1        0.0161
      6 C          -3.7391  -19.8047   20.4355 C.2     1  UNL1       -0.0100
      7 C          -3.6257  -21.0449   19.5994 C.3     1  UNL1        0.0320
      8 C          -2.6077  -18.9050   20.8362 C.2     1  UNL1        0.0509
      9 C          -1.1643  -19.0876   20.4711 C.3     1  UNL1        0.0513
     10 N          -3.1732  -17.7907   21.6660 N.2     1  UNL1       -0.2602
     11 C          -4.6541  -18.0018   21.7781 C.3     1  UNL1        0.2298
     12 N          -8.9288  -19.3945   21.5857 N.am    1  UNL1       -0.1223
     13 C          -9.8091  -19.3736   20.3714 C.3     1  UNL1        0.2331
     14 C         -11.1479  -19.9274   20.7599 C.3     1  UNL1        0.1443
     15 N         -11.0950  -20.2906   22.2143 N.am    1  UNL1       -0.2643
     16 C          -9.7235  -19.9612   22.7247 C.2     1  UNL1        0.3956
     17 O          -9.2329  -20.1632   24.1277 O.2     1  UNL1       -0.2236
     18 H         -11.8312  -20.6772   22.7413 H       1  UNL1        0.1532
     19 N          -5.3794  -15.9765   23.2349 N.pl3   1  UNL1       -0.2166
     20 H          -4.4369  -15.7123   23.3399 H       1  UNL1        0.2923
     21 C          -6.4658  -15.1344   23.8356 C.3     1  UNL1        0.2258
     22 C          -9.2711  -16.1941   23.9210 C.3     1  UNL1        0.0308
     23 C          -8.4826  -16.0559   25.1895 C.ar    1  UNL1       -0.0223
     24 C          -9.0968  -16.4475   26.5008 C.ar    1  UNL1       -0.0045
     25 C          -8.3084  -16.3092   27.7693 C.ar    1  UNL1       -0.0007
     26 C          -6.9057  -15.7793   27.7266 C.ar    1  UNL1       -0.0045
     27 C          -6.2915  -15.3877   26.4154 C.ar    1  UNL1       -0.0223
     28 C          -4.8889  -14.8579   26.3727 C.3     1  UNL1        0.0308
     29 C          -7.0800  -15.5260   25.1468 C.ar    1  UNL1        0.0162
@<TRIPOS>BOND
     1    22    23    1
     2    23    24   ar
     3    24    25   ar
     4    25    26   ar
     5    26    27   ar
     6    27    28    1
     7    27    29   ar
     8    29    21    1
     9    21    19    1
    10    19     1    1
    11     1     2    2
    12     2     3    1
    13     3    12    1
    14    12    13    1
    15    13    14    1
    16    14    15    1
    17    15    16   am
    18    16    17    2
    19     3     4    2
    20     4     5    1
    21     5     6    2
    22     6     7    1
    23     6     8    1
    24     8     9    1
    25     8    10    2
    26    10    11    1
    27    29    23   ar
    28    11     1    1
    29    16    12   am
    30    11     5    1
    31    19    20    1
    32    15    18    1
