@<TRIPOS>MOLECULE
*****
 56 61 0 0 0
SMALL
GASTEIGER

@<TRIPOS>ATOM
      1 C           2.9817    1.0905   25.9862 C.3     1  UNL1        0.1269
      2 O           2.7689   -0.3818   25.7944 O.3     1  UNL1       -0.3830
      3 H           3.0208   -0.8531   26.6039 H       1  UNL1        0.2104
      4 C           2.6651    2.0454   24.8735 C.3     1  UNL1        0.0401
      5 C           3.1498    1.7631   23.4823 C.3     1  UNL1        0.0833
      6 O           5.4938    0.7280   23.0530 O.2     1  UNL1       -0.2751
      7 C           4.0119    0.5645   23.2171 C.2     1  UNL1        0.2226
      8 N           3.3918   -0.7976   23.1162 N.am    1  UNL1       -0.2999
      9 H           2.4192   -0.9049   23.2239 H       1  UNL1        0.1498
     10 C           4.2538   -1.9962   22.8510 C.3     1  UNL1        0.1278
     11 C           4.3839   -2.5327   21.4563 C.ar    1  UNL1        0.0320
     12 C           3.6520   -1.8706   20.3267 C.ar    1  UNL1        0.0004
     13 C           3.7821   -2.4071   18.9320 C.ar    1  UNL1       -0.0001
     14 C           4.6440   -3.6057   18.6668 C.ar    1  UNL1        0.0031
     15 C           5.3759   -4.2678   19.7964 C.ar    1  UNL1        0.0366
     16 C           5.2458   -3.7313   21.1911 C.ar    1  UNL1        0.1362
     17 O           5.9777   -4.3935   22.3207 O.3     1  UNL1       -0.4730
     18 C           5.8477   -3.8570   23.7154 C.3     1  UNL1        0.2364
     19 C           4.9857   -2.6583   23.9805 C.3     1  UNL1        0.1762
     20 O           4.8556   -2.1218   25.3753 O.3     1  UNL1       -0.3788
     21 H           5.3886   -2.6612   25.9802 H       1  UNL1        0.2106
     22 C           2.7725    2.6795   22.3563 C.3     1  UNL1        0.0355
     23 C           2.1541    2.1203   21.1094 C.ar    1  UNL1       -0.0217
     24 C           2.4543    2.7440   19.7786 C.ar    1  UNL1       -0.0043
     25 C           1.8358    2.1848   18.5317 C.ar    1  UNL1       -0.0003
     26 C           0.9171    1.0020   18.6155 C.ar    1  UNL1       -0.0000
     27 C           0.6170    0.3783   19.9463 C.ar    1  UNL1       -0.0003
     28 C           1.2354    0.9375   21.1932 C.ar    1  UNL1       -0.0043
     29 C           3.5112    1.6081   27.2907 C.3     1  UNL1        0.1021
     30 N           4.3242    0.7130   28.1783 N.3     1  UNL1       -0.2621
     31 C           5.8051    0.5951   27.9703 C.3     1  UNL1        0.0901
     32 C           6.6181   -0.3001   28.8579 C.3     1  UNL1        0.0900
     33 N           5.9503   -1.0773   29.9534 N.3     1  UNL1       -0.2635
     34 C           4.4695   -0.9593   30.1612 C.3     1  UNL1        0.0980
     35 C           3.6564   -0.0642   29.2737 C.3     1  UNL1        0.1510
     36 C           2.1756    0.0538   29.4816 C.2     1  UNL1        0.2386
     37 O           1.6420    0.7010   30.7251 O.2     1  UNL1       -0.2736
     38 N           1.2283   -0.4755   28.4459 N.am    1  UNL1       -0.2961
     39 H           1.5785   -0.9003   27.6297 H       1  UNL1        0.1497
     40 C          -0.2525   -0.3575   28.6538 C.3     1  UNL1        0.1939
     41 C          -1.0039    0.7963   28.0586 C.3     1  UNL1        0.4154
     42 F          -1.7553    1.9501   27.4635 F       1  UNL1       -0.1682
     43 F           0.0976    0.9989   27.0608 F       1  UNL1       -0.1682
     44 F          -2.1053    0.5937   29.0564 F       1  UNL1       -0.1682
     45 C           6.7633   -1.9724   30.8409 C.3     1  UNL1        0.1377
     46 C           6.9952   -3.4028   30.4533 C.ar    1  UNL1        0.1391
     47 C           6.9036   -4.5896   31.3662 C.ar    1  UNL1        0.0376
     48 C           7.2112   -5.8178   30.5620 C.ar    1  UNL1        0.0419
     49 C           7.4929   -5.3902   29.1520 C.ar    1  UNL1        0.1624
     50 O           7.3594   -3.8976   29.0849 O.2     1  UNL1       -0.4548
     51 C           7.8461   -6.2960   28.0098 C.ar    1  UNL1        0.1157
     52 C           8.6015   -7.5663   28.2659 C.ar    1  UNL1        0.0223
     53 C           8.9546   -8.4722   27.1236 C.ar    1  UNL1        0.0032
     54 C           8.5524   -8.1077   25.7253 C.ar    1  UNL1        0.0207
     55 C           7.7969   -6.8373   25.4692 C.ar    1  UNL1        0.0989
     56 N           7.4438   -5.9316   26.6114 N.ar    1  UNL1       -0.2408
@<TRIPOS>BOND
     1     6     7    2
     2     7     8   am
     3    10     8    1
     4    10    11    1
     5    11    12   ar
     6    12    13   ar
     7    13    14   ar
     8    14    15   ar
     9    15    16   ar
    10    16    17    1
    11    17    18    1
    12    18    19    1
    13    19    20    1
    14     7     5    1
    15     5    22    1
    16    22    23    1
    17    23    24   ar
    18    24    25   ar
    19    25    26   ar
    20    26    27   ar
    21    27    28   ar
    22     5     4    1
    23     4     1    1
    24     1     2    1
    25     1    29    1
    26    29    30    1
    27    30    31    1
    28    31    32    1
    29    32    33    1
    30    33    45    1
    31    45    46    1
    32    46    47   ar
    33    47    48   ar
    34    48    49   ar
    35    49    51    1
    36    51    52   ar
    37    52    53   ar
    38    53    54   ar
    39    54    55   ar
    40    55    56   ar
    41    49    50   ar
    42    33    34    1
    43    34    35    1
    44    35    36    1
    45    36    37    2
    46    36    38   am
    47    38    40    1
    48    40    41    1
    49    41    42    1
    50    41    43    1
    51    41    44    1
    52    19    10    1
    53    28    23   ar
    54    35    30    1
    55    16    11   ar
    56    50    46   ar
    57    56    51   ar
    58     8     9    1
    59    20    21    1
    60     2     3    1
    61    38    39    1
@<TRIPOS>MOLECULE
*****
 56 61 0 0 0
SMALL
GASTEIGER

@<TRIPOS>ATOM
      1 C           4.9420   -2.0262   27.5129 C.3     1  UNL1        0.1269
      2 O           3.5373   -2.0421   26.9869 O.3     1  UNL1       -0.3830
      3 H           3.0459   -1.2910   27.3546 H       1  UNL1        0.2104
      4 C           5.9123   -3.0901   27.0926 C.3     1  UNL1        0.0401
      5 C           6.6469   -2.9633   25.7910 C.3     1  UNL1        0.0833
      6 O           6.6542   -1.0818   23.9994 O.2     1  UNL1       -0.2751
      7 C           5.9973   -2.2753   24.6270 C.2     1  UNL1        0.2226
      8 N           4.6908   -2.7808   24.0908 N.am    1  UNL1       -0.2999
      9 H           4.2597   -3.5642   24.5027 H       1  UNL1        0.1498
     10 C           4.0412   -2.0929   22.9269 C.3     1  UNL1        0.1278
     11 C           4.3362   -2.5461   21.5278 C.ar    1  UNL1        0.0320
     12 C           5.2807   -3.6874   21.2925 C.ar    1  UNL1        0.0004
     13 C           5.5756   -4.1407   19.8934 C.ar    1  UNL1       -0.0001
     14 C           4.9260   -3.4527   18.7295 C.ar    1  UNL1        0.0031
     15 C           3.9815   -2.3114   18.9648 C.ar    1  UNL1        0.0366
     16 C           3.6866   -1.8582   20.3639 C.ar    1  UNL1        0.1362
     17 O           2.7420   -0.7169   20.5991 O.3     1  UNL1       -0.4730
     18 C           2.4471   -0.2636   21.9982 C.3     1  UNL1        0.2364
     19 C           3.0967   -0.9516   23.1621 C.3     1  UNL1        0.1762
     20 O           2.8018   -0.4984   24.5613 O.3     1  UNL1       -0.3788
     21 H           2.1771    0.2433   24.5360 H       1  UNL1        0.2106
     22 C           8.0311   -3.5246   25.6532 C.3     1  UNL1        0.0355
     23 C           8.2529   -4.7932   24.8843 C.ar    1  UNL1       -0.0217
     24 C           8.5638   -4.7369   23.4180 C.ar    1  UNL1       -0.0043
     25 C           8.7856   -6.0057   22.6490 C.ar    1  UNL1       -0.0003
     26 C           8.6966   -7.3306   23.3465 C.ar    1  UNL1       -0.0000
     27 C           8.3857   -7.3870   24.8128 C.ar    1  UNL1       -0.0003
     28 C           8.1639   -6.1183   25.5817 C.ar    1  UNL1       -0.0043
     29 C           5.3764   -0.9464   28.4591 C.3     1  UNL1        0.1021
     30 N           5.1156   -1.0881   29.9295 N.3     1  UNL1       -0.2621
     31 C           6.0557   -1.8851   30.7845 C.3     1  UNL1        0.0901
     32 C           5.7949   -2.0269   32.2549 C.3     1  UNL1        0.0900
     33 N           4.5940   -1.3716   32.8702 N.3     1  UNL1       -0.2635
     34 C           3.6539   -0.5746   32.0151 C.3     1  UNL1        0.0980
     35 C           3.9147   -0.4329   30.5448 C.3     1  UNL1        0.1510
     36 C           2.9747    0.3641   29.6897 C.2     1  UNL1        0.2386
     37 O           3.1908    1.8375   29.5097 O.2     1  UNL1       -0.2736
     38 N           1.8185   -0.3124   29.0147 N.am    1  UNL1       -0.2961
     39 H           1.6766   -1.2794   29.1328 H       1  UNL1        0.1497
     40 C           0.8784    0.4846   28.1596 C.3     1  UNL1        0.1939
     41 C          -0.5942    0.4651   28.4446 C.3     1  UNL1        0.4154
     42 F          -2.0667    0.4456   28.7296 F       1  UNL1       -0.1682
     43 F          -0.3992   -0.6971   29.3727 F       1  UNL1       -0.1682
     44 F          -0.7891    1.6272   27.5166 F       1  UNL1       -0.1682
     45 C           4.3332   -1.5133   34.3405 C.3     1  UNL1        0.1377
     46 C           4.7970   -0.4491   35.2905 C.ar    1  UNL1        0.1391
     47 C           6.1139   -0.4210   36.0082 C.ar    1  UNL1        0.0376
     48 C           6.1562    0.8193   36.8508 C.ar    1  UNL1        0.0419
     49 C           4.8654    1.5577   36.6538 C.ar    1  UNL1        0.1624
     50 O           4.0255    0.7738   35.6894 O.2     1  UNL1       -0.4548
     51 C           4.4820    2.8527   37.3065 C.ar    1  UNL1        0.1157
     52 C           4.2376    2.9036   38.7856 C.ar    1  UNL1        0.0223
     53 C           3.8542    4.1986   39.4383 C.ar    1  UNL1        0.0032
     54 C           3.7152    5.4426   38.6119 C.ar    1  UNL1        0.0207
     55 C           3.9597    5.3918   37.1328 C.ar    1  UNL1        0.0989
     56 N           4.3430    4.0968   36.4802 N.ar    1  UNL1       -0.2408
@<TRIPOS>BOND
     1     6     7    2
     2     7     8   am
     3    10     8    1
     4    10    11    1
     5    11    12   ar
     6    12    13   ar
     7    13    14   ar
     8    14    15   ar
     9    15    16   ar
    10    16    17    1
    11    17    18    1
    12    18    19    1
    13    19    20    1
    14     7     5    1
    15     5    22    1
    16    22    23    1
    17    23    24   ar
    18    24    25   ar
    19    25    26   ar
    20    26    27   ar
    21    27    28   ar
    22     5     4    1
    23     4     1    1
    24     1     2    1
    25     1    29    1
    26    29    30    1
    27    30    31    1
    28    31    32    1
    29    32    33    1
    30    33    45    1
    31    45    46    1
    32    46    47   ar
    33    47    48   ar
    34    48    49   ar
    35    49    51    1
    36    51    52   ar
    37    52    53   ar
    38    53    54   ar
    39    54    55   ar
    40    55    56   ar
    41    49    50   ar
    42    33    34    1
    43    34    35    1
    44    35    36    1
    45    36    37    2
    46    36    38   am
    47    38    40    1
    48    40    41    1
    49    41    42    1
    50    41    43    1
    51    41    44    1
    52    19    10    1
    53    28    23   ar
    54    35    30    1
    55    16    11   ar
    56    50    46   ar
    57    56    51   ar
    58     8     9    1
    59    20    21    1
    60     2     3    1
    61    38    39    1
@<TRIPOS>MOLECULE
*****
 56 61 0 0 0
SMALL
GASTEIGER

@<TRIPOS>ATOM
      1 C           5.9829   -1.3202   24.8801 C.3     1  UNL1        0.1269
      2 O           6.8451   -0.9638   26.0545 O.3     1  UNL1       -0.3830
      3 H           6.3354   -1.0678   26.8732 H       1  UNL1        0.2104
      4 C           6.5397   -1.2415   23.4895 C.3     1  UNL1        0.0401
      5 C           7.2458   -2.4245   22.8963 C.3     1  UNL1        0.0833
      6 O           9.2278   -3.3684   24.2858 O.2     1  UNL1       -0.2751
      7 C           7.8163   -3.4841   23.7918 C.2     1  UNL1        0.2226
      8 N           6.9751   -4.6594   24.1932 N.am    1  UNL1       -0.2999
      9 H           6.0487   -4.7353   23.8690 H       1  UNL1        0.1498
     10 C           7.5455   -5.7189   25.0887 C.3     1  UNL1        0.1278
     11 C           7.3971   -5.6029   26.5768 C.ar    1  UNL1        0.0320
     12 C           6.6783   -4.4274   27.1695 C.ar    1  UNL1        0.0004
     13 C           6.5298   -4.3114   28.6576 C.ar    1  UNL1       -0.0001
     14 C           7.1002   -5.3709   29.5531 C.ar    1  UNL1        0.0031
     15 C           7.8190   -6.5465   28.9604 C.ar    1  UNL1        0.0366
     16 C           7.9675   -6.6625   27.4723 C.ar    1  UNL1        0.1362
     17 O           8.6863   -7.8382   26.8797 O.3     1  UNL1       -0.4730
     18 C           8.8348   -7.9542   25.3915 C.3     1  UNL1        0.2364
     19 C           8.2643   -6.8945   24.4961 C.3     1  UNL1        0.1762
     20 O           8.4128   -7.0105   23.0079 O.3     1  UNL1       -0.3788
     21 H           8.8986   -7.8223   22.7938 H       1  UNL1        0.2106
     22 C           7.3815   -2.5479   21.4075 C.3     1  UNL1        0.0355
     23 C           6.2447   -3.0907   20.5932 C.ar    1  UNL1       -0.0217
     24 C           6.1732   -2.8066   19.1221 C.ar    1  UNL1       -0.0043
     25 C           5.0363   -3.3494   18.3078 C.ar    1  UNL1       -0.0003
     26 C           3.9710   -4.1762   18.9647 C.ar    1  UNL1       -0.0000
     27 C           4.0425   -4.4602   20.4358 C.ar    1  UNL1       -0.0003
     28 C           5.1793   -3.9175   21.2501 C.ar    1  UNL1       -0.0043
     29 C           4.5637   -1.7554   25.0961 C.3     1  UNL1        0.1021
     30 N           3.6613   -0.9552   25.9879 N.3     1  UNL1       -0.2621
     31 C           3.5434   -1.3031   27.4423 C.3     1  UNL1        0.0901
     32 C           2.6410   -0.5028   28.3341 C.3     1  UNL1        0.0900
     33 N           1.8566    0.6454   27.7715 N.3     1  UNL1       -0.2635
     34 C           1.9746    0.9933   26.3172 C.3     1  UNL1        0.0980
     35 C           2.8769    0.1930   25.4254 C.3     1  UNL1        0.1510
     36 C           2.9949    0.5408   23.9711 C.2     1  UNL1        0.2386
     37 O           4.0616    1.4898   23.5111 O.2     1  UNL1       -0.2736
     38 N           2.0461   -0.0603   22.9768 N.am    1  UNL1       -0.2961
     39 H           1.3461   -0.6831   23.2788 H       1  UNL1        0.1497
     40 C           2.1641    0.2875   21.5225 C.3     1  UNL1        0.1939
     41 C           2.1011   -0.7941   20.4851 C.3     1  UNL1        0.4154
     42 F           2.0380   -1.8757   19.4477 F       1  UNL1       -0.1682
     43 F           3.5704   -1.0432   20.6555 F       1  UNL1       -0.1682
     44 F           0.6318   -0.5450   20.3147 F       1  UNL1       -0.1682
     45 C           0.9543    1.4457   28.6633 C.3     1  UNL1        0.1377
     46 C           0.0376    2.4759   28.0729 C.ar    1  UNL1        0.1391
     47 C           0.1668    3.9624   28.2260 C.ar    1  UNL1        0.0376
     48 C          -0.9601    4.6056   27.4734 C.ar    1  UNL1        0.0419
     49 C          -1.7858    3.5165   26.8552 C.ar    1  UNL1        0.1624
     50 O          -1.1691    2.2003   27.2256 O.2     1  UNL1       -0.4548
     51 C          -3.0127    3.7098   26.0141 C.ar    1  UNL1        0.1157
     52 C          -4.2417    4.3282   26.6115 C.ar    1  UNL1        0.0223
     53 C          -5.4686    4.5215   25.7704 C.ar    1  UNL1        0.0032
     54 C          -5.4664    4.0963   24.3320 C.ar    1  UNL1        0.0207
     55 C          -4.2373    3.4779   23.7345 C.ar    1  UNL1        0.0989
     56 N          -3.0105    3.2846   24.5756 N.ar    1  UNL1       -0.2408
@<TRIPOS>BOND
     1     6     7    2
     2     7     8   am
     3    10     8    1
     4    10    11    1
     5    11    12   ar
     6    12    13   ar
     7    13    14   ar
     8    14    15   ar
     9    15    16   ar
    10    16    17    1
    11    17    18    1
    12    18    19    1
    13    19    20    1
    14     7     5    1
    15     5    22    1
    16    22    23    1
    17    23    24   ar
    18    24    25   ar
    19    25    26   ar
    20    26    27   ar
    21    27    28   ar
    22     5     4    1
    23     4     1    1
    24     1     2    1
    25     1    29    1
    26    29    30    1
    27    30    31    1
    28    31    32    1
    29    32    33    1
    30    33    45    1
    31    45    46    1
    32    46    47   ar
    33    47    48   ar
    34    48    49   ar
    35    49    51    1
    36    51    52   ar
    37    52    53   ar
    38    53    54   ar
    39    54    55   ar
    40    55    56   ar
    41    49    50   ar
    42    33    34    1
    43    34    35    1
    44    35    36    1
    45    36    37    2
    46    36    38   am
    47    38    40    1
    48    40    41    1
    49    41    42    1
    50    41    43    1
    51    41    44    1
    52    19    10    1
    53    28    23   ar
    54    35    30    1
    55    16    11   ar
    56    50    46   ar
    57    56    51   ar
    58     8     9    1
    59    20    21    1
    60     2     3    1
    61    38    39    1
@<TRIPOS>MOLECULE
*****
 56 61 0 0 0
SMALL
GASTEIGER

@<TRIPOS>ATOM
      1 C          -0.4684    1.3172   28.0196 C.3     1  UNL1        0.1269
      2 O          -0.7685   -0.1376   28.2276 O.3     1  UNL1       -0.3830
      3 H          -1.4779   -0.4108   27.6251 H       1  UNL1        0.2104
      4 C           0.5974    1.9873   28.8351 C.3     1  UNL1        0.0401
      5 C           2.0001    1.4563   28.8175 C.3     1  UNL1        0.0833
      6 O           1.5718   -0.6979   30.2054 O.2     1  UNL1       -0.2751
      7 C           2.4431    0.4733   29.8605 C.2     1  UNL1        0.2226
      8 N           3.7575    0.6617   30.5584 N.am    1  UNL1       -0.2999
      9 H           4.3293    1.4304   30.3319 H       1  UNL1        0.1498
     10 C           4.2005   -0.3212   31.6013 C.3     1  UNL1        0.1278
     11 C           5.1148   -1.4501   31.2276 C.ar    1  UNL1        0.0320
     12 C           5.5860   -1.5962   29.8111 C.ar    1  UNL1        0.0004
     13 C           6.5003   -2.7252   29.4375 C.ar    1  UNL1       -0.0001
     14 C           6.9433   -3.7080   30.4804 C.ar    1  UNL1        0.0031
     15 C           6.4721   -3.5620   31.8969 C.ar    1  UNL1        0.0366
     16 C           5.5578   -2.4330   32.2705 C.ar    1  UNL1        0.1362
     17 O           5.0865   -2.2870   33.6871 O.3     1  UNL1       -0.4730
     18 C           4.1722   -1.1580   34.0607 C.3     1  UNL1        0.2364
     19 C           3.7292   -0.1751   33.0178 C.3     1  UNL1        0.1762
     20 O           2.8149    0.9538   33.3914 O.3     1  UNL1       -0.3788
     21 H           2.6079    0.9026   34.3377 H       1  UNL1        0.2106
     22 C           2.9599    1.9082   27.7571 C.3     1  UNL1        0.0355
     23 C           3.9185    0.9292   27.1466 C.ar    1  UNL1       -0.0217
     24 C           5.3930    1.2024   27.1809 C.ar    1  UNL1       -0.0043
     25 C           6.3516    0.2233   26.5704 C.ar    1  UNL1       -0.0003
     26 C           5.8356   -1.0288   25.9256 C.ar    1  UNL1       -0.0000
     27 C           4.3611   -1.3020   25.8912 C.ar    1  UNL1       -0.0003
     28 C           3.4025   -0.3230   26.5017 C.ar    1  UNL1       -0.0043
     29 C          -1.2342    2.1022   26.9960 C.3     1  UNL1        0.1021
     30 N          -0.7296    2.1892   25.5861 N.3     1  UNL1       -0.2621
     31 C           0.4174    1.3287   25.1456 C.3     1  UNL1        0.0901
     32 C           0.9221    1.4158   23.7357 C.3     1  UNL1        0.0900
     33 N           0.2797    2.3634   22.7664 N.3     1  UNL1       -0.2635
     34 C          -0.8673    3.2238   23.2069 C.3     1  UNL1        0.0980
     35 C          -1.3719    3.1367   24.6168 C.3     1  UNL1        0.1510
     36 C          -2.5189    3.9971   25.0574 C.2     1  UNL1        0.2386
     37 O          -2.2556    5.3293   25.6946 O.2     1  UNL1       -0.2736
     38 N          -3.9292    3.5254   24.8607 N.am    1  UNL1       -0.2961
     39 H          -4.1020    2.6511   24.4424 H       1  UNL1        0.1497
     40 C          -5.0761    4.3858   25.3012 C.3     1  UNL1        0.1939
     41 C          -6.3357    4.4308   24.4879 C.3     1  UNL1        0.4154
     42 F          -7.5952    4.4757   23.6745 F       1  UNL1       -0.1682
     43 F          -6.9422    5.3788   25.4794 F       1  UNL1       -0.1682
     44 F          -5.7292    3.4827   23.4963 F       1  UNL1       -0.1682
     45 C           0.7843    2.4504   21.3565 C.3     1  UNL1        0.1377
     46 C           1.3383    1.2307   20.6815 C.ar    1  UNL1        0.1391
     47 C           0.5633    0.0029   20.3047 C.ar    1  UNL1        0.0376
     48 C           1.5105   -0.9619   19.6552 C.ar    1  UNL1        0.0419
     49 C           2.8710   -0.3304   19.6306 C.ar    1  UNL1        0.1624
     50 O           2.7645    1.0247   20.2650 O.2     1  UNL1       -0.4548
     51 C           4.1188   -0.9460   19.0702 C.ar    1  UNL1        0.1157
     52 C           4.2364   -2.4375   18.9629 C.ar    1  UNL1        0.0223
     53 C           5.4842   -3.0530   18.4025 C.ar    1  UNL1        0.0032
     54 C           6.6143   -2.1771   17.9493 C.ar    1  UNL1        0.0207
     55 C           6.4967   -0.6855   18.0565 C.ar    1  UNL1        0.0989
     56 N           5.2489   -0.0700   18.6169 N.ar    1  UNL1       -0.2408
@<TRIPOS>BOND
     1     6     7    2
     2     7     8   am
     3    10     8    1
     4    10    11    1
     5    11    12   ar
     6    12    13   ar
     7    13    14   ar
     8    14    15   ar
     9    15    16   ar
    10    16    17    1
    11    17    18    1
    12    18    19    1
    13    19    20    1
    14     7     5    1
    15     5    22    1
    16    22    23    1
    17    23    24   ar
    18    24    25   ar
    19    25    26   ar
    20    26    27   ar
    21    27    28   ar
    22     5     4    1
    23     4     1    1
    24     1     2    1
    25     1    29    1
    26    29    30    1
    27    30    31    1
    28    31    32    1
    29    32    33    1
    30    33    45    1
    31    45    46    1
    32    46    47   ar
    33    47    48   ar
    34    48    49   ar
    35    49    51    1
    36    51    52   ar
    37    52    53   ar
    38    53    54   ar
    39    54    55   ar
    40    55    56   ar
    41    49    50   ar
    42    33    34    1
    43    34    35    1
    44    35    36    1
    45    36    37    2
    46    36    38   am
    47    38    40    1
    48    40    41    1
    49    41    42    1
    50    41    43    1
    51    41    44    1
    52    19    10    1
    53    28    23   ar
    54    35    30    1
    55    16    11   ar
    56    50    46   ar
    57    56    51   ar
    58     8     9    1
    59    20    21    1
    60     2     3    1
    61    38    39    1
@<TRIPOS>MOLECULE
*****
 56 61 0 0 0
SMALL
GASTEIGER

@<TRIPOS>ATOM
      1 C           4.0799   -0.6164   26.8473 C.3     1  UNL1        0.1269
      2 O           2.8657   -0.3058   26.0232 O.3     1  UNL1       -0.3830
      3 H           2.0704   -0.5938   26.4980 H       1  UNL1        0.2104
      4 C           5.4450   -0.2677   26.3326 C.3     1  UNL1        0.0401
      5 C           6.1504   -1.1958   25.3888 C.3     1  UNL1        0.0833
      6 O           6.4700   -0.6561   22.8675 O.2     1  UNL1       -0.2751
      7 C           5.6883   -1.3128   23.9665 C.2     1  UNL1        0.2226
      8 N           4.4446   -2.0865   23.6432 N.am    1  UNL1       -0.2999
      9 H           3.9316   -2.5175   24.3645 H       1  UNL1        0.1498
     10 C           3.9825   -2.2035   22.2210 C.3     1  UNL1        0.1278
     11 C           2.9763   -1.2330   21.6771 C.ar    1  UNL1        0.0320
     12 C           2.4322   -0.1456   22.5554 C.ar    1  UNL1        0.0004
     13 C           1.4261    0.8249   22.0114 C.ar    1  UNL1       -0.0001
     14 C           0.9640    0.7079   20.5892 C.ar    1  UNL1        0.0031
     15 C           1.5081   -0.3795   19.7109 C.ar    1  UNL1        0.0366
     16 C           2.5142   -1.3500   20.2549 C.ar    1  UNL1        0.1362
     17 O           3.0583   -2.4375   19.3765 O.3     1  UNL1       -0.4730
     18 C           4.0645   -3.4079   19.9204 C.3     1  UNL1        0.2364
     19 C           4.5266   -3.2909   21.3427 C.3     1  UNL1        0.1762
     20 O           5.5327   -4.2613   21.8866 O.3     1  UNL1       -0.3788
     21 H           5.7785   -4.8945   21.1941 H       1  UNL1        0.2106
     22 C           7.3179   -2.0071   25.8672 C.3     1  UNL1        0.0355
     23 C           7.1480   -3.4698   26.1530 C.ar    1  UNL1       -0.0217
     24 C           6.5996   -3.9168   27.4756 C.ar    1  UNL1       -0.0043
     25 C           6.4297   -5.3795   27.7614 C.ar    1  UNL1       -0.0003
     26 C           6.8083   -6.3952   26.7246 C.ar    1  UNL1       -0.0000
     27 C           7.3568   -5.9482   25.4019 C.ar    1  UNL1       -0.0003
     28 C           7.5267   -4.4855   25.1161 C.ar    1  UNL1       -0.0043
     29 C           3.9291   -1.2758   28.1862 C.3     1  UNL1        0.1021
     30 N           4.4349   -0.5906   29.4209 N.3     1  UNL1       -0.2621
     31 C           5.8124   -0.8899   29.9338 C.3     1  UNL1        0.0901
     32 C           6.3183   -0.2046   31.1685 C.3     1  UNL1        0.0900
     33 N           5.4466    0.7799   31.8904 N.3     1  UNL1       -0.2635
     34 C           4.0692    1.0792   31.3775 C.3     1  UNL1        0.0980
     35 C           3.5634    0.3939   30.1427 C.3     1  UNL1        0.1510
     36 C           2.1859    0.6932   29.6298 C.2     1  UNL1        0.2386
     37 O           1.0079   -0.0744   30.1523 O.2     1  UNL1       -0.2736
     38 N           1.9865    1.7600   28.5944 N.am    1  UNL1       -0.2961
     39 H           2.7597    2.2638   28.2514 H       1  UNL1        0.1497
     40 C           0.6091    2.0593   28.0815 C.3     1  UNL1        0.1939
     41 C           0.2899    1.8605   26.6293 C.3     1  UNL1        0.4154
     42 F          -0.0294    1.6617   25.1773 F       1  UNL1       -0.1682
     43 F           1.6166    2.4528   26.2566 F       1  UNL1       -0.1682
     44 F          -1.0368    1.2682   27.0021 F       1  UNL1       -0.1682
     45 C           5.9525    1.4652   33.1251 C.3     1  UNL1        0.1377
     46 C           5.3477    1.1471   34.4605 C.ar    1  UNL1        0.1391
     47 C           5.8124    0.0805   35.4073 C.ar    1  UNL1        0.0376
     48 C           4.9241    0.1140   36.6155 C.ar    1  UNL1        0.0419
     49 C           3.9103    1.2014   36.4153 C.ar    1  UNL1        0.1624
     50 O           4.1721    1.8398   35.0835 O.2     1  UNL1       -0.4548
     51 C           2.8251    1.5832   37.3780 C.ar    1  UNL1        0.1157
     52 C           2.4858    0.6764   38.5237 C.ar    1  UNL1        0.0223
     53 C           1.4007    1.0582   39.4864 C.ar    1  UNL1        0.0032
     54 C           0.6550    2.3467   39.3034 C.ar    1  UNL1        0.0207
     55 C           0.9943    3.2535   38.1576 C.ar    1  UNL1        0.0989
     56 N           2.0794    2.8717   37.1950 N.ar    1  UNL1       -0.2408
@<TRIPOS>BOND
     1     6     7    2
     2     7     8   am
     3    10     8    1
     4    10    11    1
     5    11    12   ar
     6    12    13   ar
     7    13    14   ar
     8    14    15   ar
     9    15    16   ar
    10    16    17    1
    11    17    18    1
    12    18    19    1
    13    19    20    1
    14     7     5    1
    15     5    22    1
    16    22    23    1
    17    23    24   ar
    18    24    25   ar
    19    25    26   ar
    20    26    27   ar
    21    27    28   ar
    22     5     4    1
    23     4     1    1
    24     1     2    1
    25     1    29    1
    26    29    30    1
    27    30    31    1
    28    31    32    1
    29    32    33    1
    30    33    45    1
    31    45    46    1
    32    46    47   ar
    33    47    48   ar
    34    48    49   ar
    35    49    51    1
    36    51    52   ar
    37    52    53   ar
    38    53    54   ar
    39    54    55   ar
    40    55    56   ar
    41    49    50   ar
    42    33    34    1
    43    34    35    1
    44    35    36    1
    45    36    37    2
    46    36    38   am
    47    38    40    1
    48    40    41    1
    49    41    42    1
    50    41    43    1
    51    41    44    1
    52    19    10    1
    53    28    23   ar
    54    35    30    1
    55    16    11   ar
    56    50    46   ar
    57    56    51   ar
    58     8     9    1
    59    20    21    1
    60     2     3    1
    61    38    39    1
@<TRIPOS>MOLECULE
*****
 56 61 0 0 0
SMALL
GASTEIGER

@<TRIPOS>ATOM
      1 C           6.6619   -1.8873   26.0733 C.3     1  UNL1        0.1269
      2 O           6.7238   -0.3922   25.9700 O.3     1  UNL1       -0.3830
      3 H           7.3067   -0.0441   26.6628 H       1  UNL1        0.2104
      4 C           5.8219   -2.6715   25.1092 C.3     1  UNL1        0.0401
      5 C           5.6827   -2.2106   23.6886 C.3     1  UNL1        0.0833
      6 O           5.2818    0.3265   23.2980 O.2     1  UNL1       -0.2751
      7 C           4.7578   -1.0778   23.3548 C.2     1  UNL1        0.2226
      8 N           3.3088   -1.3495   23.0779 N.am    1  UNL1       -0.2999
      9 H           2.9649   -2.2712   23.1152 H       1  UNL1        0.1498
     10 C           2.3838   -0.2168   22.7441 C.3     1  UNL1        0.1278
     11 C           2.1043    0.1258   21.3108 C.ar    1  UNL1        0.0320
     12 C           2.7496   -0.6644   20.2112 C.ar    1  UNL1        0.0004
     13 C           2.4701   -0.3218   18.7778 C.ar    1  UNL1       -0.0001
     14 C           1.5451    0.8109   18.4441 C.ar    1  UNL1        0.0031
     15 C           0.8997    1.6010   19.5437 C.ar    1  UNL1        0.0366
     16 C           1.1793    1.2584   20.9770 C.ar    1  UNL1        0.1362
     17 O           0.5339    2.0486   22.0766 O.3     1  UNL1       -0.4730
     18 C           0.8134    1.7061   23.5100 C.3     1  UNL1        0.2364
     19 C           1.7384    0.5733   23.8437 C.3     1  UNL1        0.1762
     20 O           2.0180    0.2308   25.2771 O.3     1  UNL1       -0.3788
     21 H           1.5255    0.8338   25.8556 H       1  UNL1        0.2106
     22 C           6.4685   -2.8824   22.6017 C.3     1  UNL1        0.0355
     23 C           5.8129   -3.2041   21.2915 C.ar    1  UNL1       -0.0217
     24 C           6.3750   -2.6507   20.0157 C.ar    1  UNL1       -0.0043
     25 C           5.7193   -2.9724   18.7055 C.ar    1  UNL1       -0.0003
     26 C           4.5016   -3.8475   18.6711 C.ar    1  UNL1       -0.0000
     27 C           3.9394   -4.4010   19.9469 C.ar    1  UNL1       -0.0003
     28 C           4.5951   -4.0793   21.2571 C.ar    1  UNL1       -0.0043
     29 C           7.4398   -2.5982   27.1407 C.3     1  UNL1        0.1021
     30 N           6.9124   -2.6510   28.5440 N.3     1  UNL1       -0.2621
     31 C           6.1368   -1.4925   29.0977 C.3     1  UNL1        0.0901
     32 C           5.6094   -1.5452   30.5009 C.3     1  UNL1        0.0900
     33 N           5.8575   -2.7564   31.3504 N.3     1  UNL1       -0.2635
     34 C           6.6330   -3.9148   30.7966 C.3     1  UNL1        0.0980
     35 C           7.1604   -3.8621   29.3934 C.3     1  UNL1        0.1510
     36 C           7.9359   -5.0205   28.8396 C.2     1  UNL1        0.2386
     37 O           9.4344   -5.0209   28.9076 O.2     1  UNL1       -0.2736
     38 N           7.2130   -6.1784   28.2179 N.am    1  UNL1       -0.2961
     39 H           6.2295   -6.1781   28.1733 H       1  UNL1        0.1497
     40 C           7.9885   -7.3368   27.6641 C.3     1  UNL1        0.1939
     41 C           7.9172   -7.6559   26.2001 C.3     1  UNL1        0.4154
     42 F           7.8459   -7.9750   24.7362 F       1  UNL1       -0.1682
     43 F           6.9096   -6.5610   26.0105 F       1  UNL1       -0.1682
     44 F           8.9247   -8.7508   26.3897 F       1  UNL1       -0.1682
     45 C           5.3300   -2.8092   32.7536 C.3     1  UNL1        0.1377
     46 C           5.4562   -1.6114   33.6478 C.ar    1  UNL1        0.1391
     47 C           6.6794   -0.7590   33.8124 C.ar    1  UNL1        0.0376
     48 C           6.3606    0.3234   34.8006 C.ar    1  UNL1        0.0419
     49 C           4.9402    0.1400   35.2468 C.ar    1  UNL1        0.1624
     50 O           4.3813   -1.0558   34.5343 O.2     1  UNL1       -0.4548
     51 C           4.2075    1.0012   36.2324 C.ar    1  UNL1        0.1157
     52 C           3.2471    2.0461   35.7469 C.ar    1  UNL1        0.0223
     53 C           2.5143    2.9073   36.7325 C.ar    1  UNL1        0.0032
     54 C           2.7420    2.7235   38.2036 C.ar    1  UNL1        0.0207
     55 C           3.7025    1.6786   38.6892 C.ar    1  UNL1        0.0989
     56 N           4.4351    0.8175   37.7036 N.ar    1  UNL1       -0.2408
@<TRIPOS>BOND
     1     6     7    2
     2     7     8   am
     3    10     8    1
     4    10    11    1
     5    11    12   ar
     6    12    13   ar
     7    13    14   ar
     8    14    15   ar
     9    15    16   ar
    10    16    17    1
    11    17    18    1
    12    18    19    1
    13    19    20    1
    14     7     5    1
    15     5    22    1
    16    22    23    1
    17    23    24   ar
    18    24    25   ar
    19    25    26   ar
    20    26    27   ar
    21    27    28   ar
    22     5     4    1
    23     4     1    1
    24     1     2    1
    25     1    29    1
    26    29    30    1
    27    30    31    1
    28    31    32    1
    29    32    33    1
    30    33    45    1
    31    45    46    1
    32    46    47   ar
    33    47    48   ar
    34    48    49   ar
    35    49    51    1
    36    51    52   ar
    37    52    53   ar
    38    53    54   ar
    39    54    55   ar
    40    55    56   ar
    41    49    50   ar
    42    33    34    1
    43    34    35    1
    44    35    36    1
    45    36    37    2
    46    36    38   am
    47    38    40    1
    48    40    41    1
    49    41    42    1
    50    41    43    1
    51    41    44    1
    52    19    10    1
    53    28    23   ar
    54    35    30    1
    55    16    11   ar
    56    50    46   ar
    57    56    51   ar
    58     8     9    1
    59    20    21    1
    60     2     3    1
    61    38    39    1
@<TRIPOS>MOLECULE
*****
 56 61 0 0 0
SMALL
GASTEIGER

@<TRIPOS>ATOM
      1 C           4.1320    0.0160   25.7951 C.3     1  UNL1        0.1269
      2 O           3.8976    1.4861   25.9784 O.3     1  UNL1       -0.3830
      3 H           3.3456    1.6302   26.7629 H       1  UNL1        0.2104
      4 C           4.9616   -0.4736   24.6453 C.3     1  UNL1        0.0401
      5 C           4.3663   -1.4102   23.6362 C.3     1  UNL1        0.0833
      6 O           4.3336   -3.8091   22.6390 O.2     1  UNL1       -0.2751
      7 C           5.0849   -2.6756   23.2719 C.2     1  UNL1        0.2226
      8 N           6.5548   -2.8073   23.5405 N.am    1  UNL1       -0.2999
      9 H           7.0479   -2.0633   23.9558 H       1  UNL1        0.1498
     10 C           7.2733   -4.0725   23.1762 C.3     1  UNL1        0.1278
     11 C           7.3964   -5.1807   24.1796 C.ar    1  UNL1        0.0320
     12 C           6.8009   -5.0236   25.5473 C.ar    1  UNL1        0.0004
     13 C           6.9239   -6.1318   26.5507 C.ar    1  UNL1       -0.0001
     14 C           7.6425   -7.3970   26.1864 C.ar    1  UNL1        0.0031
     15 C           8.2380   -7.5541   24.8187 C.ar    1  UNL1        0.0366
     16 C           8.1149   -6.4460   23.8153 C.ar    1  UNL1        0.1362
     17 O           8.7105   -6.6031   22.4475 O.3     1  UNL1       -0.4730
     18 C           8.5874   -5.4949   21.4441 C.3     1  UNL1        0.2364
     19 C           7.8688   -4.2296   21.8085 C.3     1  UNL1        0.1762
     20 O           7.7458   -3.1215   20.8051 O.3     1  UNL1       -0.3788
     21 H           8.1818   -3.3833   19.9791 H       1  UNL1        0.2106
     22 C           3.0525   -1.0816   22.9913 C.3     1  UNL1        0.0355
     23 C           3.0095   -0.6448   21.5570 C.ar    1  UNL1       -0.0217
     24 C           1.6902   -0.4781   20.8630 C.ar    1  UNL1       -0.0043
     25 C           1.6472   -0.0413   19.4286 C.ar    1  UNL1       -0.0003
     26 C           2.9235    0.2288   18.6883 C.ar    1  UNL1       -0.0000
     27 C           4.2428    0.0621   19.3823 C.ar    1  UNL1       -0.0003
     28 C           4.2858   -0.3747   20.8166 C.ar    1  UNL1       -0.0043
     29 C           3.5367   -0.9647   26.7616 C.3     1  UNL1        0.1021
     30 N           4.0296   -1.0157   28.1774 N.3     1  UNL1       -0.2621
     31 C           5.3371   -1.6797   28.4929 C.3     1  UNL1        0.0901
     32 C           5.8300   -1.7307   29.9087 C.3     1  UNL1        0.0900
     33 N           5.0153   -1.1177   31.0090 N.3     1  UNL1       -0.2635
     34 C           3.7078   -0.4538   30.6935 C.3     1  UNL1        0.0980
     35 C           3.2149   -0.4028   29.2777 C.3     1  UNL1        0.1510
     36 C           1.9075    0.2612   28.9621 C.2     1  UNL1        0.2386
     37 O           0.6171   -0.4235   29.3030 O.2     1  UNL1       -0.2736
     38 N           1.8903    1.6099   28.3058 N.am    1  UNL1       -0.2961
     39 H           2.7372    2.0593   28.0821 H       1  UNL1        0.1497
     40 C           0.5828    2.2738   27.9902 C.3     1  UNL1        0.1939
     41 C          -0.1712    1.8942   26.7502 C.3     1  UNL1        0.4154
     42 F          -0.9252    1.5146   25.5104 F       1  UNL1       -0.1682
     43 F           0.9786    2.3616   25.9080 F       1  UNL1       -0.1682
     44 F          -1.3210    1.4269   27.5925 F       1  UNL1       -0.1682
     45 C           5.5082   -1.1688   32.4248 C.3     1  UNL1        0.1377
     46 C           5.2088   -0.0384   33.3643 C.ar    1  UNL1        0.1391
     47 C           5.8072    1.3360   33.3091 C.ar    1  UNL1        0.0376
     48 C           5.2268    2.1399   34.4347 C.ar    1  UNL1        0.0419
     49 C           4.2696    1.2623   35.1855 C.ar    1  UNL1        0.1624
     50 O           4.2585   -0.0839   34.5240 O.2     1  UNL1       -0.4548
     51 C           3.4648    1.6610   36.3869 C.ar    1  UNL1        0.1157
     52 C           3.6006    0.8940   37.6688 C.ar    1  UNL1        0.0223
     53 C           2.7958    1.2927   38.8702 C.ar    1  UNL1        0.0032
     54 C           1.8552    2.4583   38.7897 C.ar    1  UNL1        0.0207
     55 C           1.7194    3.2254   37.5077 C.ar    1  UNL1        0.0989
     56 N           2.5242    2.8267   36.3064 N.ar    1  UNL1       -0.2408
@<TRIPOS>BOND
     1     6     7    2
     2     7     8   am
     3    10     8    1
     4    10    11    1
     5    11    12   ar
     6    12    13   ar
     7    13    14   ar
     8    14    15   ar
     9    15    16   ar
    10    16    17    1
    11    17    18    1
    12    18    19    1
    13    19    20    1
    14     7     5    1
    15     5    22    1
    16    22    23    1
    17    23    24   ar
    18    24    25   ar
    19    25    26   ar
    20    26    27   ar
    21    27    28   ar
    22     5     4    1
    23     4     1    1
    24     1     2    1
    25     1    29    1
    26    29    30    1
    27    30    31    1
    28    31    32    1
    29    32    33    1
    30    33    45    1
    31    45    46    1
    32    46    47   ar
    33    47    48   ar
    34    48    49   ar
    35    49    51    1
    36    51    52   ar
    37    52    53   ar
    38    53    54   ar
    39    54    55   ar
    40    55    56   ar
    41    49    50   ar
    42    33    34    1
    43    34    35    1
    44    35    36    1
    45    36    37    2
    46    36    38   am
    47    38    40    1
    48    40    41    1
    49    41    42    1
    50    41    43    1
    51    41    44    1
    52    19    10    1
    53    28    23   ar
    54    35    30    1
    55    16    11   ar
    56    50    46   ar
    57    56    51   ar
    58     8     9    1
    59    20    21    1
    60     2     3    1
    61    38    39    1
@<TRIPOS>MOLECULE
*****
 56 61 0 0 0
SMALL
GASTEIGER

@<TRIPOS>ATOM
      1 C           3.8662   -0.4691   27.3339 C.3     1  UNL1        0.1269
      2 O           2.7563   -0.3461   26.3324 O.3     1  UNL1       -0.3830
      3 H           1.9131   -0.5728   26.7549 H       1  UNL1        0.2104
      4 C           5.2792   -0.1711   26.9279 C.3     1  UNL1        0.0401
      5 C           5.8743   -0.8496   25.7299 C.3     1  UNL1        0.0833
      6 O           5.7162    0.4394   23.4797 O.2     1  UNL1       -0.2751
      7 C           5.2504   -0.6679   24.3779 C.2     1  UNL1        0.2226
      8 N           4.1608   -1.5936   23.9242 N.am    1  UNL1       -0.2999
      9 H           3.8551   -2.3203   24.5138 H       1  UNL1        0.1498
     10 C           3.5369   -1.4119   22.5723 C.3     1  UNL1        0.1278
     11 C           4.0051   -2.2402   21.4128 C.ar    1  UNL1        0.0320
     12 C           5.0972   -3.2503   21.6051 C.ar    1  UNL1        0.0004
     13 C           5.5654   -4.0787   20.4455 C.ar    1  UNL1       -0.0001
     14 C           4.9415   -3.8970   19.0936 C.ar    1  UNL1        0.0031
     15 C           3.8494   -2.8869   18.9013 C.ar    1  UNL1        0.0366
     16 C           3.3812   -2.0586   20.0609 C.ar    1  UNL1        0.1362
     17 O           2.2890   -1.0485   19.8685 O.3     1  UNL1       -0.4730
     18 C           1.8208   -0.2201   21.0280 C.3     1  UNL1        0.2364
     19 C           2.4448   -0.4018   22.3800 C.3     1  UNL1        0.1762
     20 O           1.9766    0.4265   23.5395 O.3     1  UNL1       -0.3788
     21 H           1.2716    1.0246   23.2459 H       1  UNL1        0.2106
     22 C           7.0934   -1.7099   25.8838 C.3     1  UNL1        0.0355
     23 C           6.9485   -3.1579   26.2474 C.ar    1  UNL1       -0.0217
     24 C           6.5255   -3.5444   27.6337 C.ar    1  UNL1       -0.0043
     25 C           6.3805   -4.9925   27.9973 C.ar    1  UNL1       -0.0003
     26 C           6.6586   -6.0540   26.9747 C.ar    1  UNL1       -0.0000
     27 C           7.0816   -5.6675   25.5884 C.ar    1  UNL1       -0.0003
     28 C           7.2266   -4.2195   25.2248 C.ar    1  UNL1       -0.0043
     29 C           3.5633   -0.8902   28.7413 C.3     1  UNL1        0.1021
     30 N           4.0063   -0.0356   29.8917 N.3     1  UNL1       -0.2621
     31 C           5.3422   -0.2728   30.5314 C.3     1  UNL1        0.0901
     32 C           5.7852    0.5819   31.6818 C.3     1  UNL1        0.0900
     33 N           4.8923    1.6737   32.1924 N.3     1  UNL1       -0.2635
     34 C           3.5564    1.9108   31.5527 C.3     1  UNL1        0.0980
     35 C           3.1134    1.0562   30.4024 C.3     1  UNL1        0.1510
     36 C           1.7776    1.2933   29.7627 C.2     1  UNL1        0.2386
     37 O           0.5588    0.5966   30.2909 O.2     1  UNL1       -0.2736
     38 N           1.6605    2.2272   28.5946 N.am    1  UNL1       -0.2961
     39 H           2.4605    2.6845   28.2479 H       1  UNL1        0.1497
     40 C           0.3247    2.4643   27.9549 C.3     1  UNL1        0.1939
     41 C          -0.0577    1.7108   26.7155 C.3     1  UNL1        0.4154
     42 F          -0.4402    0.9573   25.4762 F       1  UNL1       -0.1682
     43 F           0.7753    2.6459   25.8899 F       1  UNL1       -0.1682
     44 F          -0.8908    0.7758   27.5411 F       1  UNL1       -0.1682
     45 C           5.3353    2.5283   33.3428 C.3     1  UNL1        0.1377
     46 C           4.3604    2.8987   34.4210 C.ar    1  UNL1        0.1391
     47 C           3.7118    4.2393   34.6007 C.ar    1  UNL1        0.0376
     48 C           2.8135    4.1627   35.7995 C.ar    1  UNL1        0.0419
     49 C           2.9069    2.7748   36.3607 C.ar    1  UNL1        0.1624
     50 O           3.8629    1.9936   35.5088 O.2     1  UNL1       -0.4548
     51 C           2.1731    2.2586   37.5629 C.ar    1  UNL1        0.1157
     52 C           2.6097    0.9812   38.2168 C.ar    1  UNL1        0.0223
     53 C           1.8759    0.4651   39.4189 C.ar    1  UNL1        0.0032
     54 C           0.7055    1.2264   39.9671 C.ar    1  UNL1        0.0207
     55 C           0.2689    2.5039   39.3132 C.ar    1  UNL1        0.0989
     56 N           1.0027    3.0199   38.1111 N.ar    1  UNL1       -0.2408
@<TRIPOS>BOND
     1     6     7    2
     2     7     8   am
     3    10     8    1
     4    10    11    1
     5    11    12   ar
     6    12    13   ar
     7    13    14   ar
     8    14    15   ar
     9    15    16   ar
    10    16    17    1
    11    17    18    1
    12    18    19    1
    13    19    20    1
    14     7     5    1
    15     5    22    1
    16    22    23    1
    17    23    24   ar
    18    24    25   ar
    19    25    26   ar
    20    26    27   ar
    21    27    28   ar
    22     5     4    1
    23     4     1    1
    24     1     2    1
    25     1    29    1
    26    29    30    1
    27    30    31    1
    28    31    32    1
    29    32    33    1
    30    33    45    1
    31    45    46    1
    32    46    47   ar
    33    47    48   ar
    34    48    49   ar
    35    49    51    1
    36    51    52   ar
    37    52    53   ar
    38    53    54   ar
    39    54    55   ar
    40    55    56   ar
    41    49    50   ar
    42    33    34    1
    43    34    35    1
    44    35    36    1
    45    36    37    2
    46    36    38   am
    47    38    40    1
    48    40    41    1
    49    41    42    1
    50    41    43    1
    51    41    44    1
    52    19    10    1
    53    28    23   ar
    54    35    30    1
    55    16    11   ar
    56    50    46   ar
    57    56    51   ar
    58     8     9    1
    59    20    21    1
    60     2     3    1
    61    38    39    1
@<TRIPOS>MOLECULE
*****
 56 61 0 0 0
SMALL
GASTEIGER

@<TRIPOS>ATOM
      1 C           3.7395   -0.9319   27.3753 C.3     1  UNL1        0.1269
      2 O           2.4258   -1.2603   28.0206 O.3     1  UNL1       -0.3830
      3 H           2.3892   -0.8577   28.9023 H       1  UNL1        0.2104
      4 C           4.0462   -1.4400   25.9977 C.3     1  UNL1        0.0401
      5 C           3.7881   -0.5707   24.8029 C.3     1  UNL1        0.0833
      6 O           5.6019   -0.2830   22.9651 O.2     1  UNL1       -0.2751
      7 C           4.3533   -0.9470   23.4654 C.2     1  UNL1        0.2226
      8 N           3.6701   -1.9873   22.6282 N.am    1  UNL1       -0.2999
      9 H           2.8506   -2.4231   22.9565 H       1  UNL1        0.1498
     10 C           4.2353   -2.3636   21.2907 C.3     1  UNL1        0.1278
     11 C           3.8270   -1.6041   20.0633 C.ar    1  UNL1        0.0320
     12 C           2.8535   -0.4682   20.1734 C.ar    1  UNL1        0.0004
     13 C           2.4452    0.2913   18.9460 C.ar    1  UNL1       -0.0001
     14 C           3.0105   -0.0850   17.6086 C.ar    1  UNL1        0.0031
     15 C           3.9839   -1.2209   17.4985 C.ar    1  UNL1        0.0366
     16 C           4.3922   -1.9804   18.7258 C.ar    1  UNL1        0.1362
     17 O           5.3658   -3.1163   18.6157 O.3     1  UNL1       -0.4730
     18 C           5.7740   -3.8758   19.8431 C.3     1  UNL1        0.2364
     19 C           5.2088   -3.4994   21.1806 C.3     1  UNL1        0.1762
     20 O           5.6170   -4.2589   22.4080 O.3     1  UNL1       -0.3788
     21 H           6.2467   -4.9549   22.1630 H       1  UNL1        0.2106
     22 C           2.9647    0.6750   24.9456 C.3     1  UNL1        0.0355
     23 C           2.3793    1.3304   23.7300 C.ar    1  UNL1       -0.0217
     24 C           0.9991    0.9633   23.2712 C.ar    1  UNL1       -0.0043
     25 C           0.4137    1.6187   22.0556 C.ar    1  UNL1       -0.0003
     26 C           1.2085    2.6412   21.2987 C.ar    1  UNL1       -0.0000
     27 C           2.5886    3.0083   21.7574 C.ar    1  UNL1       -0.0003
     28 C           3.1740    2.3529   22.9730 C.ar    1  UNL1       -0.0043
     29 C           4.7465   -0.0953   28.1075 C.3     1  UNL1        0.1021
     30 N           4.9813   -0.3156   29.5726 N.3     1  UNL1       -0.2621
     31 C           4.1697    0.4386   30.5839 C.3     1  UNL1        0.0901
     32 C           4.4044    0.2184   32.0489 C.3     1  UNL1        0.0900
     33 N           5.4508   -0.7560   32.5027 N.3     1  UNL1       -0.2635
     34 C           6.2623   -1.5101   31.4914 C.3     1  UNL1        0.0980
     35 C           6.0275   -1.2899   30.0264 C.3     1  UNL1        0.1510
     36 C           6.8391   -2.0440   29.0151 C.2     1  UNL1        0.2386
     37 O           8.1594   -1.4996   28.5562 O.2     1  UNL1       -0.2736
     38 N           6.3303   -3.3425   28.4626 N.am    1  UNL1       -0.2961
     39 H           5.4638   -3.6997   28.7638 H       1  UNL1        0.1497
     40 C           7.1419   -4.0966   27.4514 C.3     1  UNL1        0.1939
     41 C           6.7474   -5.4904   27.0617 C.3     1  UNL1        0.4154
     42 F           6.3530   -6.8841   26.6721 F       1  UNL1       -0.1682
     43 F           7.8405   -5.5127   26.0348 F       1  UNL1       -0.1682
     44 F           5.6543   -5.4681   28.0886 F       1  UNL1       -0.1682
     45 C           5.6855   -0.9762   33.9678 C.3     1  UNL1        0.1377
     46 C           5.2111    0.0396   34.9644 C.ar    1  UNL1        0.1391
     47 C           5.9377    1.2900   35.3627 C.ar    1  UNL1        0.0376
     48 C           5.1026    2.0066   36.3821 C.ar    1  UNL1        0.0419
     49 C           3.8599    1.1990   36.6137 C.ar    1  UNL1        0.1624
     50 O           3.9270   -0.0166   35.7375 O.2     1  UNL1       -0.4548
     51 C           2.7457    1.5462   37.5561 C.ar    1  UNL1        0.1157
     52 C           2.3359    0.5750   38.6232 C.ar    1  UNL1        0.0223
     53 C           1.2217    0.9221   39.5656 C.ar    1  UNL1        0.0032
     54 C           0.5174    2.2405   39.4408 C.ar    1  UNL1        0.0207
     55 C           0.9271    3.2118   38.3736 C.ar    1  UNL1        0.0989
     56 N           2.0412    2.8646   37.4314 N.ar    1  UNL1       -0.2408
@<TRIPOS>BOND
     1     6     7    2
     2     7     8   am
     3    10     8    1
     4    10    11    1
     5    11    12   ar
     6    12    13   ar
     7    13    14   ar
     8    14    15   ar
     9    15    16   ar
    10    16    17    1
    11    17    18    1
    12    18    19    1
    13    19    20    1
    14     7     5    1
    15     5    22    1
    16    22    23    1
    17    23    24   ar
    18    24    25   ar
    19    25    26   ar
    20    26    27   ar
    21    27    28   ar
    22     5     4    1
    23     4     1    1
    24     1     2    1
    25     1    29    1
    26    29    30    1
    27    30    31    1
    28    31    32    1
    29    32    33    1
    30    33    45    1
    31    45    46    1
    32    46    47   ar
    33    47    48   ar
    34    48    49   ar
    35    49    51    1
    36    51    52   ar
    37    52    53   ar
    38    53    54   ar
    39    54    55   ar
    40    55    56   ar
    41    49    50   ar
    42    33    34    1
    43    34    35    1
    44    35    36    1
    45    36    37    2
    46    36    38   am
    47    38    40    1
    48    40    41    1
    49    41    42    1
    50    41    43    1
    51    41    44    1
    52    19    10    1
    53    28    23   ar
    54    35    30    1
    55    16    11   ar
    56    50    46   ar
    57    56    51   ar
    58     8     9    1
    59    20    21    1
    60     2     3    1
    61    38    39    1
