@<TRIPOS>MOLECULE
*****
 32 35 0 0 0
SMALL
GASTEIGER

@<TRIPOS>ATOM
      1 C           6.1365   -2.8487   30.6703 C.ar    1  UNL1        0.1219
      2 C           6.6761   -4.2467   30.6056 C.ar    1  UNL1        0.0240
      3 C           6.9406   -4.8877   29.2755 C.ar    1  UNL1        0.0235
      4 C           6.6656   -4.1305   28.0101 C.ar    1  UNL1        0.1166
      5 N           6.1260   -2.7325   28.0749 N.ar    1  UNL1       -0.2887
      6 C           5.8615   -2.0915   29.4050 C.ar    1  UNL1        0.2772
      7 O           5.3219   -0.6934   29.4697 O.2     1  UNL1       -0.2654
      8 C           5.8510   -1.9753   26.8095 C.3     1  UNL1        0.1307
      9 C           6.1155   -2.6163   25.4794 C.3     1  UNL1        0.1184
     10 N           6.6551   -4.0144   25.4146 N.am    1  UNL1       -0.2691
     11 C           6.9302   -4.7716   26.6800 C.2     1  UNL1        0.2652
     12 O           7.4697   -6.1696   26.6153 O.2     1  UNL1       -0.2683
     13 C           6.6856    0.0698   35.0363 C.3     1  UNL1        0.0538
     14 C           6.1244   -0.8662   34.0073 C.ar    1  UNL1        0.0786
     15 C           6.7835   -1.2564   32.7176 C.ar    1  UNL1        0.0963
     16 N           5.8720   -2.2077   32.0004 N.ar    1  UNL1       -0.2825
     17 C           4.6496   -2.4054   32.8469 C.ar    1  UNL1        0.1826
     18 N           4.8055   -1.5763   34.0872 N.ar    1  UNL1       -0.2280
     19 C           6.9197   -4.6554   24.0846 C.3     1  UNL1        0.1410
     20 C           6.6889   -3.8820   22.8202 C.3     1  UNL1        0.2268
     21 O           5.6110   -4.3066   21.8674 O.3     1  UNL1       -0.4737
     22 C           4.6077   -3.3058   21.3756 C.ar    1  UNL1        0.1426
     23 C           4.1945   -2.1636   22.2557 C.ar    1  UNL1        0.0392
     24 C           3.1912   -1.1628   21.7639 C.ar    1  UNL1        0.0327
     25 C           2.6013   -1.3041   20.3921 C.ar    1  UNL1        0.1403
     26 F           1.5980   -0.3033   19.9003 F       1  UNL1       -0.2042
     27 C           3.0145   -2.4464   19.5120 C.ar    1  UNL1        0.0366
     28 C           4.0178   -3.4472   20.0037 C.ar    1  UNL1        0.1075
     29 C           4.4310   -4.5894   19.1237 C.3     1  UNL1        0.4214
     30 F           4.8444   -5.7316   18.2436 F       1  UNL1       -0.1657
     31 F           5.3757   -3.6833   18.3912 F       1  UNL1       -0.1657
     32 F           3.4864   -5.4955   19.8561 F       1  UNL1       -0.1657
@<TRIPOS>BOND
     1    13    14    1
     2    14    15   ar
     3    15    16   ar
     4    16     1    1
     5     1     2   ar
     6     2     3   ar
     7     3     4   ar
     8     4     5   ar
     9     5     6   ar
    10     6     7    2
    11     5     8    1
    12     8     9    1
    13     9    10    1
    14    10    19    1
    15    19    20    1
    16    20    21    1
    17    21    22    1
    18    22    23   ar
    19    23    24   ar
    20    24    25   ar
    21    25    26    1
    22    25    27   ar
    23    27    28   ar
    24    28    29    1
    25    29    30    1
    26    29    31    1
    27    29    32    1
    28    10    11   am
    29    11    12    2
    30    16    17   ar
    31    17    18   ar
    32    18    14   ar
    33     6     1   ar
    34    28    22   ar
    35    11     4    1
@<TRIPOS>MOLECULE
*****
 32 35 0 0 0
SMALL
GASTEIGER

@<TRIPOS>ATOM
      1 C           7.6521   -5.2353   26.3385 C.ar    1  UNL1        0.1219
      2 C           7.9217   -6.3388   25.3590 C.ar    1  UNL1        0.0240
      3 C           7.9454   -6.0467   23.8879 C.ar    1  UNL1        0.0235
      4 C           7.6996   -4.6509   23.3964 C.ar    1  UNL1        0.1166
      5 N           7.4300   -3.5474   24.3760 N.ar    1  UNL1       -0.2887
      6 C           7.4063   -3.8396   25.8470 C.ar    1  UNL1        0.2772
      7 O           7.1367   -2.7361   26.8267 O.2     1  UNL1       -0.2654
      8 C           7.1841   -2.1517   23.8845 C.3     1  UNL1        0.1307
      9 C           7.2079   -1.8595   22.4134 C.3     1  UNL1        0.1184
     10 N           7.4775   -2.9631   21.4338 N.am    1  UNL1       -0.2691
     11 C           7.7233   -4.3588   21.9253 C.2     1  UNL1        0.2652
     12 O           7.9929   -5.4623   20.9458 O.2     1  UNL1       -0.2683
     13 C           9.1397   -6.6639   31.1993 C.3     1  UNL1        0.0538
     14 C           8.3121   -6.1842   30.0439 C.ar    1  UNL1        0.0786
     15 C           8.7798   -6.0342   28.6266 C.ar    1  UNL1        0.0963
     16 N           7.6283   -5.5275   27.8097 N.ar    1  UNL1       -0.2825
     17 C           6.4490   -5.3642   28.7221 C.ar    1  UNL1        0.1826
     18 N           6.8716   -5.7700   30.1029 N.ar    1  UNL1       -0.2280
     19 C           7.5012   -2.6709   19.9628 C.3     1  UNL1        0.1410
     20 C           6.7337   -1.5031   19.4176 C.3     1  UNL1        0.2268
     21 O           5.5958   -1.7313   18.4672 O.3     1  UNL1       -0.4737
     22 C           4.2472   -1.1419   18.7566 C.ar    1  UNL1        0.1426
     23 C           3.8070    0.1063   18.0509 C.ar    1  UNL1        0.0392
     24 C           2.4584    0.6957   18.3404 C.ar    1  UNL1        0.0327
     25 C           1.5499    0.0368   19.3355 C.ar    1  UNL1        0.1403
     26 F           0.2012    0.6262   19.6250 F       1  UNL1       -0.2042
     27 C           1.9900   -1.2115   20.0413 C.ar    1  UNL1        0.0366
     28 C           3.3386   -1.8009   19.7519 C.ar    1  UNL1        0.1075
     29 C           3.7788   -3.0492   20.4576 C.3     1  UNL1        0.4214
     30 F           4.2189   -4.2975   21.1633 F       1  UNL1       -0.1657
     31 F           3.5377   -3.8413   19.2068 F       1  UNL1       -0.1657
     32 F           4.0198   -2.2571   21.7083 F       1  UNL1       -0.1657
@<TRIPOS>BOND
     1    13    14    1
     2    14    15   ar
     3    15    16   ar
     4    16     1    1
     5     1     2   ar
     6     2     3   ar
     7     3     4   ar
     8     4     5   ar
     9     5     6   ar
    10     6     7    2
    11     5     8    1
    12     8     9    1
    13     9    10    1
    14    10    19    1
    15    19    20    1
    16    20    21    1
    17    21    22    1
    18    22    23   ar
    19    23    24   ar
    20    24    25   ar
    21    25    26    1
    22    25    27   ar
    23    27    28   ar
    24    28    29    1
    25    29    30    1
    26    29    31    1
    27    29    32    1
    28    10    11   am
    29    11    12    2
    30    16    17   ar
    31    17    18   ar
    32    18    14   ar
    33     6     1   ar
    34    28    22   ar
    35    11     4    1
@<TRIPOS>MOLECULE
*****
 32 35 0 0 0
SMALL
GASTEIGER

@<TRIPOS>ATOM
      1 C           7.2848   -3.8190   25.7760 C.ar    1  UNL1        0.1219
      2 C           7.0419   -2.3400   25.8337 C.ar    1  UNL1        0.0240
      3 C           6.9566   -1.5440   24.5652 C.ar    1  UNL1        0.0235
      4 C           7.1143   -2.2270   23.2391 C.ar    1  UNL1        0.1166
      5 N           7.3572   -3.7061   23.1814 N.ar    1  UNL1       -0.2887
      6 C           7.4424   -4.5020   24.4499 C.ar    1  UNL1        0.2772
      7 O           7.6854   -5.9812   24.3923 O.2     1  UNL1       -0.2654
      8 C           7.5148   -4.3891   21.8553 C.3     1  UNL1        0.1307
      9 C           7.4296   -3.5931   20.5868 C.3     1  UNL1        0.1184
     10 N           7.1867   -2.1140   20.6444 N.am    1  UNL1       -0.2691
     11 C           7.0290   -1.4309   21.9706 C.2     1  UNL1        0.2652
     12 O           6.7861    0.0481   22.0282 O.2     1  UNL1       -0.2683
     13 C           9.1147   -6.8771   29.6723 C.3     1  UNL1        0.0538
     14 C           8.2112   -6.0207   28.8354 C.ar    1  UNL1        0.0786
     15 C           8.5688   -5.3753   27.5295 C.ar    1  UNL1        0.0963
     16 N           7.3701   -4.6151   27.0445 N.ar    1  UNL1       -0.2825
     17 C           6.2716   -4.7907   28.0508 C.ar    1  UNL1        0.1826
     18 N           6.7914   -5.6595   29.1576 N.ar    1  UNL1       -0.2280
     19 C           7.1014   -1.3180   19.3760 C.3     1  UNL1        0.1410
     20 C           6.7852   -2.0038   18.0799 C.3     1  UNL1        0.2268
     21 O           5.3818   -2.4461   17.7884 O.3     1  UNL1       -0.4737
     22 C           4.2215   -1.6361   18.2860 C.ar    1  UNL1        0.1426
     23 C           3.9079   -0.3105   17.6580 C.ar    1  UNL1        0.0392
     24 C           2.7476    0.4995   18.1556 C.ar    1  UNL1        0.0327
     25 C           1.9009   -0.0161   19.2813 C.ar    1  UNL1        0.1403
     26 F           0.7407    0.7939   19.7790 F       1  UNL1       -0.2042
     27 C           2.2145   -1.3417   19.9095 C.ar    1  UNL1        0.0366
     28 C           3.3748   -2.1517   19.4118 C.ar    1  UNL1        0.1075
     29 C           3.6884   -3.4773   20.0399 C.3     1  UNL1        0.4214
     30 F           4.0020   -4.8029   20.6680 F       1  UNL1       -0.1657
     31 F           4.1892   -2.7769   21.2681 F       1  UNL1       -0.1657
     32 F           3.1876   -4.1777   18.8116 F       1  UNL1       -0.1657
@<TRIPOS>BOND
     1    13    14    1
     2    14    15   ar
     3    15    16   ar
     4    16     1    1
     5     1     2   ar
     6     2     3   ar
     7     3     4   ar
     8     4     5   ar
     9     5     6   ar
    10     6     7    2
    11     5     8    1
    12     8     9    1
    13     9    10    1
    14    10    19    1
    15    19    20    1
    16    20    21    1
    17    21    22    1
    18    22    23   ar
    19    23    24   ar
    20    24    25   ar
    21    25    26    1
    22    25    27   ar
    23    27    28   ar
    24    28    29    1
    25    29    30    1
    26    29    31    1
    27    29    32    1
    28    10    11   am
    29    11    12    2
    30    16    17   ar
    31    17    18   ar
    32    18    14   ar
    33     6     1   ar
    34    28    22   ar
    35    11     4    1
@<TRIPOS>MOLECULE
*****
 32 35 0 0 0
SMALL
GASTEIGER

@<TRIPOS>ATOM
      1 C          -5.0895  -18.9451   21.8888 C.ar    1  UNL1        0.1219
      2 C          -5.8209  -20.2396   21.6905 C.ar    1  UNL1        0.0240
      3 C          -7.2016  -20.4141   22.2499 C.ar    1  UNL1        0.0235
      4 C          -7.8510  -19.2942   23.0075 C.ar    1  UNL1        0.1166
      5 N          -7.1196  -17.9997   23.2058 N.ar    1  UNL1       -0.2887
      6 C          -5.7388  -17.8252   22.6464 C.ar    1  UNL1        0.2772
      7 O          -5.0074  -16.5307   22.8447 O.2     1  UNL1       -0.2654
      8 C          -7.7690  -16.8798   23.9634 C.3     1  UNL1        0.1307
      9 C          -9.1498  -17.0543   24.5228 C.3     1  UNL1        0.1184
     10 N          -9.8812  -18.3488   24.3246 N.am    1  UNL1       -0.2691
     11 C          -9.2319  -19.4688   23.5669 C.2     1  UNL1        0.2652
     12 O          -9.9633  -20.7632   23.3687 O.2     1  UNL1       -0.2683
     13 C          -1.1041  -17.8889   18.5899 C.3     1  UNL1        0.0538
     14 C          -1.8768  -18.2850   19.8130 C.ar    1  UNL1        0.0786
     15 C          -3.3710  -18.3171   19.9400 C.ar    1  UNL1        0.0963
     16 N          -3.7086  -18.7706   21.3294 N.ar    1  UNL1       -0.2825
     17 C          -2.4230  -19.0188   22.0611 C.ar    1  UNL1        0.1826
     18 N          -1.2908  -18.7188   21.1240 N.ar    1  UNL1       -0.2280
     19 C         -11.2620  -18.5234   24.8840 C.3     1  UNL1        0.1410
     20 C         -12.4534  -18.4571   23.9750 C.3     1  UNL1        0.2268
     21 O         -12.3241  -18.8672   22.5379 O.3     1  UNL1       -0.4737
     22 C         -12.0550  -17.8339   21.4844 C.ar    1  UNL1        0.1426
     23 C         -12.7277  -16.4953   21.5577 C.ar    1  UNL1        0.0392
     24 C         -12.4586  -15.4620   20.5042 C.ar    1  UNL1        0.0327
     25 C         -11.5168  -15.7673   19.3774 C.ar    1  UNL1        0.1403
     26 F         -11.2477  -14.7340   18.3239 F       1  UNL1       -0.2042
     27 C         -10.8440  -17.1060   19.3040 C.ar    1  UNL1        0.0366
     28 C         -11.1131  -18.1393   20.3575 C.ar    1  UNL1        0.1075
     29 C         -10.4404  -19.4780   20.2842 C.3     1  UNL1        0.4214
     30 F          -9.7677  -20.8168   20.2110 F       1  UNL1       -0.1657
     31 F         -11.7453  -20.1506   20.5923 F       1  UNL1       -0.1657
     32 F          -9.1356  -18.8054   19.9762 F       1  UNL1       -0.1657
@<TRIPOS>BOND
     1    13    14    1
     2    14    15   ar
     3    15    16   ar
     4    16     1    1
     5     1     2   ar
     6     2     3   ar
     7     3     4   ar
     8     4     5   ar
     9     5     6   ar
    10     6     7    2
    11     5     8    1
    12     8     9    1
    13     9    10    1
    14    10    19    1
    15    19    20    1
    16    20    21    1
    17    21    22    1
    18    22    23   ar
    19    23    24   ar
    20    24    25   ar
    21    25    26    1
    22    25    27   ar
    23    27    28   ar
    24    28    29    1
    25    29    30    1
    26    29    31    1
    27    29    32    1
    28    10    11   am
    29    11    12    2
    30    16    17   ar
    31    17    18   ar
    32    18    14   ar
    33     6     1   ar
    34    28    22   ar
    35    11     4    1
@<TRIPOS>MOLECULE
*****
 32 35 0 0 0
SMALL
GASTEIGER

@<TRIPOS>ATOM
      1 C           3.3189   -1.2125   19.7446 C.ar    1  UNL1        0.1219
      2 C           3.0812   -0.5995   18.3964 C.ar    1  UNL1        0.0240
      3 C           2.1499    0.5681   18.2570 C.ar    1  UNL1        0.0235
      4 C           1.4563    1.1227   19.4659 C.ar    1  UNL1        0.1166
      5 N           1.6940    0.5097   20.8141 N.ar    1  UNL1       -0.2887
      6 C           2.6253   -0.6578   20.9535 C.ar    1  UNL1        0.2772
      7 O           2.8631   -1.2709   22.3017 O.2     1  UNL1       -0.2654
      8 C           1.0005    1.0643   22.0230 C.3     1  UNL1        0.1307
      9 C           0.0692    2.2319   21.8837 C.3     1  UNL1        0.1184
     10 N          -0.1686    2.8449   20.5354 N.am    1  UNL1       -0.2691
     11 C           0.5250    2.2903   19.3265 C.2     1  UNL1        0.2652
     12 O           0.2873    2.9033   17.9783 O.2     1  UNL1       -0.2683
     13 C           7.5873   -4.1320   20.8112 C.3     1  UNL1        0.0538
     14 C           6.2122   -3.7220   20.3742 C.ar    1  UNL1        0.0786
     15 C           5.6533   -2.3306   20.4121 C.ar    1  UNL1        0.0963
     16 N           4.2502   -2.3801   19.8840 N.ar    1  UNL1       -0.2825
     17 C           3.9419   -3.8022   19.5198 C.ar    1  UNL1        0.1826
     18 N           5.1545   -4.6315   19.8227 N.ar    1  UNL1       -0.2280
     19 C          -1.0998    4.0125   20.3961 C.3     1  UNL1        0.1410
     20 C          -2.4818    3.8085   19.8496 C.3     1  UNL1        0.2268
     21 O          -3.4217    2.8538   20.5243 O.3     1  UNL1       -0.4737
     22 C          -4.5802    3.3781   21.3199 C.ar    1  UNL1        0.1426
     23 C          -4.5655    3.2846   22.8169 C.ar    1  UNL1        0.0392
     24 C          -5.7240    3.8089   23.6125 C.ar    1  UNL1        0.0327
     25 C          -6.8971    4.4268   22.9111 C.ar    1  UNL1        0.1403
     26 F          -8.0556    4.9512   23.7067 F       1  UNL1       -0.2042
     27 C          -6.9118    4.5204   21.4141 C.ar    1  UNL1        0.0366
     28 C          -5.7534    3.9960   20.6184 C.ar    1  UNL1        0.1075
     29 C          -5.7680    4.0896   19.1215 C.3     1  UNL1        0.4214
     30 F          -5.7827    4.1831   17.6244 F       1  UNL1       -0.1657
     31 F          -6.2169    2.6609   19.0366 F       1  UNL1       -0.1657
     32 F          -5.3191    5.5183   19.2063 F       1  UNL1       -0.1657
@<TRIPOS>BOND
     1    13    14    1
     2    14    15   ar
     3    15    16   ar
     4    16     1    1
     5     1     2   ar
     6     2     3   ar
     7     3     4   ar
     8     4     5   ar
     9     5     6   ar
    10     6     7    2
    11     5     8    1
    12     8     9    1
    13     9    10    1
    14    10    19    1
    15    19    20    1
    16    20    21    1
    17    21    22    1
    18    22    23   ar
    19    23    24   ar
    20    24    25   ar
    21    25    26    1
    22    25    27   ar
    23    27    28   ar
    24    28    29    1
    25    29    30    1
    26    29    31    1
    27    29    32    1
    28    10    11   am
    29    11    12    2
    30    16    17   ar
    31    17    18   ar
    32    18    14   ar
    33     6     1   ar
    34    28    22   ar
    35    11     4    1
@<TRIPOS>MOLECULE
*****
 32 35 0 0 0
SMALL
GASTEIGER

@<TRIPOS>ATOM
      1 C          -0.2178    3.0780   22.7301 C.ar    1  UNL1        0.1219
      2 C           1.1396    3.1197   23.3672 C.ar    1  UNL1        0.0240
      3 C           2.3278    2.5670   22.6374 C.ar    1  UNL1        0.0235
      4 C           2.1587    1.9725   21.2706 C.ar    1  UNL1        0.1166
      5 N           0.8013    1.9309   20.6336 N.ar    1  UNL1       -0.2887
      6 C          -0.3869    2.4836   21.3634 C.ar    1  UNL1        0.2772
      7 O          -1.7443    2.4419   20.7263 O.2     1  UNL1       -0.2654
      8 C           0.6322    1.3365   19.2668 C.3     1  UNL1        0.1307
      9 C           1.8204    0.7837   18.5371 C.3     1  UNL1        0.1184
     10 N           3.1779    0.8254   19.1741 N.am    1  UNL1       -0.2691
     11 C           3.3470    1.4198   20.5409 C.2     1  UNL1        0.2652
     12 O           4.7043    1.4615   21.1779 O.2     1  UNL1       -0.2683
     13 C          -3.9539    3.8564   26.3793 C.3     1  UNL1        0.0538
     14 C          -3.1234    3.9885   25.1373 C.ar    1  UNL1        0.0786
     15 C          -1.9245    3.1583   24.7858 C.ar    1  UNL1        0.0963
     16 N          -1.4061    3.6308   23.4599 N.ar    1  UNL1       -0.2825
     17 C          -2.2845    4.7529   22.9918 C.ar    1  UNL1        0.1826
     18 N          -3.3459    4.9740   24.0285 N.ar    1  UNL1       -0.2280
     19 C           4.3661    0.2727   18.4443 C.3     1  UNL1        0.1410
     20 C           4.1686   -0.5664   17.2167 C.3     1  UNL1        0.2268
     21 O           4.7785   -1.9346   17.1373 O.3     1  UNL1       -0.4737
     22 C           5.7271   -2.3959   18.2038 C.ar    1  UNL1        0.1426
     23 C           7.0924   -1.7836   18.3091 C.ar    1  UNL1        0.0392
     24 C           8.0410   -2.2449   19.3756 C.ar    1  UNL1        0.0327
     25 C           7.6243   -3.3184   20.3367 C.ar    1  UNL1        0.1403
     26 F           8.5729   -3.7797   21.4032 F       1  UNL1       -0.2042
     27 C           6.2590   -3.9308   20.2314 C.ar    1  UNL1        0.0366
     28 C           5.3104   -3.4695   19.1650 C.ar    1  UNL1        0.1075
     29 C           3.9451   -4.0818   19.0596 C.3     1  UNL1        0.4214
     30 F           2.5798   -4.6940   18.9543 F       1  UNL1       -0.1657
     31 F           3.3660   -2.9197   19.8107 F       1  UNL1       -0.1657
     32 F           4.5242   -5.2439   18.3086 F       1  UNL1       -0.1657
@<TRIPOS>BOND
     1    13    14    1
     2    14    15   ar
     3    15    16   ar
     4    16     1    1
     5     1     2   ar
     6     2     3   ar
     7     3     4   ar
     8     4     5   ar
     9     5     6   ar
    10     6     7    2
    11     5     8    1
    12     8     9    1
    13     9    10    1
    14    10    19    1
    15    19    20    1
    16    20    21    1
    17    21    22    1
    18    22    23   ar
    19    23    24   ar
    20    24    25   ar
    21    25    26    1
    22    25    27   ar
    23    27    28   ar
    24    28    29    1
    25    29    30    1
    26    29    31    1
    27    29    32    1
    28    10    11   am
    29    11    12    2
    30    16    17   ar
    31    17    18   ar
    32    18    14   ar
    33     6     1   ar
    34    28    22   ar
    35    11     4    1
@<TRIPOS>MOLECULE
*****
 32 35 0 0 0
SMALL
GASTEIGER

@<TRIPOS>ATOM
      1 C          -4.7474  -19.1081   20.4806 C.ar    1  UNL1        0.1219
      2 C          -5.6328  -19.0105   19.2738 C.ar    1  UNL1        0.0240
      3 C          -7.1187  -19.1535   19.4202 C.ar    1  UNL1        0.0235
      4 C          -7.7193  -19.3940   20.7736 C.ar    1  UNL1        0.1166
      5 N          -6.8339  -19.4916   21.9804 N.ar    1  UNL1       -0.2887
      6 C          -5.3480  -19.3486   21.8340 C.ar    1  UNL1        0.2772
      7 O          -4.4625  -19.4462   23.0408 O.2     1  UNL1       -0.2654
      8 C          -7.4345  -19.7322   23.3337 C.3     1  UNL1        0.1307
      9 C          -8.9204  -19.8752   23.4802 C.3     1  UNL1        0.1184
     10 N          -9.8059  -19.7776   22.2733 N.am    1  UNL1       -0.2691
     11 C          -9.2053  -19.5370   20.9200 C.2     1  UNL1        0.2652
     12 O         -10.0907  -19.4394   19.7131 O.2     1  UNL1       -0.2683
     13 C           0.0626  -17.0085   19.9000 C.3     1  UNL1        0.0538
     14 C          -1.0505  -18.0000   20.0673 C.ar    1  UNL1        0.0786
     15 C          -2.5106  -17.6756   20.1808 C.ar    1  UNL1        0.0963
     16 N          -3.2614  -18.9651   20.3342 N.ar    1  UNL1       -0.2825
     17 C          -2.2653  -20.0865   20.3155 C.ar    1  UNL1        0.1826
     18 N          -0.8989  -19.4900   20.1505 N.ar    1  UNL1       -0.2280
     19 C         -11.2918  -19.9206   22.4197 C.3     1  UNL1        0.1410
     20 C         -12.0237  -19.1210   23.4566 C.3     1  UNL1        0.2268
     21 O         -11.9286  -17.6239   23.4542 O.3     1  UNL1       -0.4737
     22 C         -11.6042  -16.8951   22.1839 C.ar    1  UNL1        0.1426
     23 C         -12.6041  -16.8536   21.0667 C.ar    1  UNL1        0.0392
     24 C         -12.2797  -16.1248   19.7964 C.ar    1  UNL1        0.0327
     25 C         -10.9553  -15.4373   19.6435 C.ar    1  UNL1        0.1403
     26 F         -10.6309  -14.7085   18.3732 F       1  UNL1       -0.2042
     27 C          -9.9553  -15.4788   20.7608 C.ar    1  UNL1        0.0366
     28 C         -10.2797  -16.2076   22.0310 C.ar    1  UNL1        0.1075
     29 C          -9.2798  -16.2491   23.1483 C.3     1  UNL1        0.4214
     30 F          -8.2798  -16.2905   24.2656 F       1  UNL1       -0.1657
     31 F          -8.2190  -16.6876   22.1827 F       1  UNL1       -0.1657
     32 F         -10.3405  -15.8105   24.1139 F       1  UNL1       -0.1657
@<TRIPOS>BOND
     1    13    14    1
     2    14    15   ar
     3    15    16   ar
     4    16     1    1
     5     1     2   ar
     6     2     3   ar
     7     3     4   ar
     8     4     5   ar
     9     5     6   ar
    10     6     7    2
    11     5     8    1
    12     8     9    1
    13     9    10    1
    14    10    19    1
    15    19    20    1
    16    20    21    1
    17    21    22    1
    18    22    23   ar
    19    23    24   ar
    20    24    25   ar
    21    25    26    1
    22    25    27   ar
    23    27    28   ar
    24    28    29    1
    25    29    30    1
    26    29    31    1
    27    29    32    1
    28    10    11   am
    29    11    12    2
    30    16    17   ar
    31    17    18   ar
    32    18    14   ar
    33     6     1   ar
    34    28    22   ar
    35    11     4    1
@<TRIPOS>MOLECULE
*****
 32 35 0 0 0
SMALL
GASTEIGER

@<TRIPOS>ATOM
      1 C           6.3153   -2.4107   25.7262 C.ar    1  UNL1        0.1219
      2 C           6.5484   -3.8188   25.2648 C.ar    1  UNL1        0.0240
      3 C           6.7956   -4.1009   23.8124 C.ar    1  UNL1        0.0235
      4 C           6.8097   -2.9749   22.8215 C.ar    1  UNL1        0.1166
      5 N           6.5766   -1.5668   23.2829 N.ar    1  UNL1       -0.2887
      6 C           6.3294   -1.2847   24.7352 C.ar    1  UNL1        0.2772
      7 O           6.0962    0.1234   25.1967 O.2     1  UNL1       -0.2654
      8 C           6.5907   -0.4408   22.2920 C.3     1  UNL1        0.1307
      9 C           6.8379   -0.7229   20.8397 C.3     1  UNL1        0.1184
     10 N           7.0710   -2.1311   20.3782 N.am    1  UNL1       -0.2691
     11 C           7.0569   -3.2571   21.3691 C.2     1  UNL1        0.2652
     12 O           7.2900   -4.6651   20.9077 O.2     1  UNL1       -0.2683
     13 C           7.0318   -1.8688   30.9294 C.3     1  UNL1        0.0538
     14 C           6.3975   -1.8795   29.5702 C.ar    1  UNL1        0.0786
     15 C           7.0711   -2.2622   28.2858 C.ar    1  UNL1        0.0963
     16 N           6.0681   -2.1286   27.1785 N.ar    1  UNL1       -0.2825
     17 C           4.7745   -1.6633   27.7786 C.ar    1  UNL1        0.1826
     18 N           4.9780   -1.5094   29.2567 N.ar    1  UNL1       -0.2280
     19 C           7.3182   -2.4131   18.9259 C.3     1  UNL1        0.1410
     20 C           6.4678   -1.7567   17.8790 C.3     1  UNL1        0.2268
     21 O           5.0648   -2.2331   17.6453 O.3     1  UNL1       -0.4737
     22 C           3.9090   -1.4799   18.2342 C.ar    1  UNL1        0.1426
     23 C           3.4909   -0.1660   17.6436 C.ar    1  UNL1        0.0392
     24 C           2.3352    0.5872   18.2325 C.ar    1  UNL1        0.0327
     25 C           1.5975    0.0266   19.4121 C.ar    1  UNL1        0.1403
     26 F           0.4418    0.7799   20.0011 F       1  UNL1       -0.2042
     27 C           2.0156   -1.2873   20.0029 C.ar    1  UNL1        0.0366
     28 C           3.1714   -2.0405   19.4139 C.ar    1  UNL1        0.1075
     29 C           3.5895   -3.3544   20.0046 C.3     1  UNL1        0.4214
     30 F           4.0076   -4.6683   20.5953 F       1  UNL1       -0.1657
     31 F           3.2074   -4.0486   18.7311 F       1  UNL1       -0.1657
     32 F           3.9716   -2.6602   21.2782 F       1  UNL1       -0.1657
@<TRIPOS>BOND
     1    13    14    1
     2    14    15   ar
     3    15    16   ar
     4    16     1    1
     5     1     2   ar
     6     2     3   ar
     7     3     4   ar
     8     4     5   ar
     9     5     6   ar
    10     6     7    2
    11     5     8    1
    12     8     9    1
    13     9    10    1
    14    10    19    1
    15    19    20    1
    16    20    21    1
    17    21    22    1
    18    22    23   ar
    19    23    24   ar
    20    24    25   ar
    21    25    26    1
    22    25    27   ar
    23    27    28   ar
    24    28    29    1
    25    29    30    1
    26    29    31    1
    27    29    32    1
    28    10    11   am
    29    11    12    2
    30    16    17   ar
    31    17    18   ar
    32    18    14   ar
    33     6     1   ar
    34    28    22   ar
    35    11     4    1
@<TRIPOS>MOLECULE
*****
 32 35 0 0 0
SMALL
GASTEIGER

@<TRIPOS>ATOM
      1 C           1.6596    1.2414   24.4803 C.ar    1  UNL1        0.1219
      2 C           2.9951    0.5706   24.6079 C.ar    1  UNL1        0.0240
      3 C           3.7906    0.2436   23.3790 C.ar    1  UNL1        0.0235
      4 C           3.2505    0.5874   22.0225 C.ar    1  UNL1        0.1166
      5 N           1.9150    1.2583   21.8949 N.ar    1  UNL1       -0.2887
      6 C           1.1196    1.5853   23.1238 C.ar    1  UNL1        0.2772
      7 O          -0.2160    2.2561   22.9962 O.2     1  UNL1       -0.2654
      8 C           1.3750    1.6021   20.5384 C.3     1  UNL1        0.1307
      9 C           2.1705    1.2751   19.3095 C.3     1  UNL1        0.1184
     10 N           3.5061    0.6042   19.4370 N.am    1  UNL1       -0.2691
     11 C           4.0461    0.2604   20.7935 C.2     1  UNL1        0.2652
     12 O           5.3816   -0.4104   20.9211 O.2     1  UNL1       -0.2683
     13 C          -1.3697    0.7566   28.7779 C.3     1  UNL1        0.0538
     14 C          -0.5284    1.3456   27.6846 C.ar    1  UNL1        0.0786
     15 C           0.1243    0.5859   26.5680 C.ar    1  UNL1        0.0963
     16 N           0.8641    1.5685   25.7092 N.ar    1  UNL1       -0.2825
     17 C           0.6686    2.9354   26.2952 C.ar    1  UNL1        0.1826
     18 N          -0.1919    2.7977   27.5160 N.ar    1  UNL1       -0.2280
     19 C           4.3015    0.2772   18.2081 C.3     1  UNL1        0.1410
     20 C           3.9111   -0.8898   17.3505 C.3     1  UNL1        0.2268
     21 O           4.8878   -2.0022   17.1078 O.3     1  UNL1       -0.4737
     22 C           5.8116   -2.4417   18.2048 C.ar    1  UNL1        0.1426
     23 C           7.1846   -1.8474   18.3122 C.ar    1  UNL1        0.0392
     24 C           8.1085   -2.2869   19.4091 C.ar    1  UNL1        0.0327
     25 C           7.6593   -3.3207   20.3988 C.ar    1  UNL1        0.1403
     26 F           8.5831   -3.7603   21.4957 F       1  UNL1       -0.2042
     27 C           6.2862   -3.9151   20.2914 C.ar    1  UNL1        0.0366
     28 C           5.3624   -3.4756   19.1945 C.ar    1  UNL1        0.1075
     29 C           3.9893   -4.0699   19.0871 C.3     1  UNL1        0.4214
     30 F           2.6162   -4.6642   18.9798 F       1  UNL1       -0.1657
     31 F           3.4406   -2.9535   19.9253 F       1  UNL1       -0.1657
     32 F           4.5381   -5.1863   18.2490 F       1  UNL1       -0.1657
@<TRIPOS>BOND
     1    13    14    1
     2    14    15   ar
     3    15    16   ar
     4    16     1    1
     5     1     2   ar
     6     2     3   ar
     7     3     4   ar
     8     4     5   ar
     9     5     6   ar
    10     6     7    2
    11     5     8    1
    12     8     9    1
    13     9    10    1
    14    10    19    1
    15    19    20    1
    16    20    21    1
    17    21    22    1
    18    22    23   ar
    19    23    24   ar
    20    24    25   ar
    21    25    26    1
    22    25    27   ar
    23    27    28   ar
    24    28    29    1
    25    29    30    1
    26    29    31    1
    27    29    32    1
    28    10    11   am
    29    11    12    2
    30    16    17   ar
    31    17    18   ar
    32    18    14   ar
    33     6     1   ar
    34    28    22   ar
    35    11     4    1
