@<TRIPOS>MOLECULE
*****
 23 24 0 0 0
SMALL
GASTEIGER

@<TRIPOS>ATOM
      1 C          -3.4328  -19.7957   21.2655 C.ar    1  UNL1        0.1385
      2 C          -4.0806  -19.0121   22.3683 C.ar    1  UNL1        0.0366
      3 C          -5.5723  -18.8582   22.4029 C.ar    1  UNL1       -0.0008
      4 C          -6.4162  -19.4879   21.3346 C.ar    1  UNL1       -0.0179
      5 C          -5.7684  -20.2716   20.2318 C.ar    1  UNL1       -0.0008
      6 C          -4.2767  -20.4255   20.1973 C.ar    1  UNL1        0.0366
      7 O          -1.9411  -19.9496   21.2310 O.3     1  UNL1       -0.4755
      8 C          -1.1255  -19.1380   20.2688 C.3     1  UNL1        0.2053
      9 C          -1.5639  -17.7526   19.8966 C.3     1  UNL1        0.0438
     10 C          -2.3553  -17.5280   18.6422 C.3     1  UNL1        0.0038
     11 C          -2.1707  -16.1350   21.8369 C.3     1  UNL1        0.0001
     12 C          -1.2109  -16.5919   20.7786 C.3     1  UNL1        0.0037
     13 C          -7.9079  -19.3340   21.3691 C.3     1  UNL1        0.0501
     14 C          -8.6101  -19.1242   22.6778 C.ar    1  UNL1       -0.0181
     15 C          -8.7658  -17.7390   23.2318 C.ar    1  UNL1       -0.0039
     16 C          -9.4681  -17.5292   24.5406 C.ar    1  UNL1       -0.0003
     17 C         -10.0146  -18.7046   25.2954 C.ar    1  UNL1       -0.0000
     18 C          -9.8589  -20.0898   24.7414 C.ar    1  UNL1       -0.0003
     19 C          -9.1567  -20.2996   23.4326 C.ar    1  UNL1       -0.0039
     20 C          -8.6973  -19.3899   20.0949 C.3     1  UNL1        0.0504
     21 C         -10.1162  -18.9040   20.0698 C.2     1  UNL1        0.0510
     22 O         -10.4254  -17.5165   19.5912 O.co2   1  UNL1       -0.5491
     23 O         -11.2259  -19.8057   20.5233 O.co2   1  UNL1       -0.5491
@<TRIPOS>UNITY_ATOM_ATTR
22 1
charge -1
@<TRIPOS>BOND
     1    11    12    1
     2    12     9    1
     3     9    10    1
     4     9     8    1
     5     8     7    1
     6     7     1    1
     7     1     2   ar
     8     2     3   ar
     9     3     4   ar
    10     4    13    1
    11    13    20    1
    12    20    21    1
    13    21    22   ar
    14    21    23   ar
    15    13    14    1
    16    14    15   ar
    17    15    16   ar
    18    16    17   ar
    19    17    18   ar
    20    18    19   ar
    21     4     5   ar
    22     5     6   ar
    23     6     1   ar
    24    19    14   ar
@<TRIPOS>MOLECULE
*****
 23 24 0 0 0
SMALL
GASTEIGER

@<TRIPOS>ATOM
      1 C          -6.4086  -19.3950   21.1218 C.ar    1  UNL1        0.1385
      2 C          -6.4602  -18.3502   22.1967 C.ar    1  UNL1        0.0366
      3 C          -7.7292  -17.5891   22.4426 C.ar    1  UNL1       -0.0008
      4 C          -8.9466  -17.8729   21.6136 C.ar    1  UNL1       -0.0179
      5 C          -8.8950  -18.9177   20.5386 C.ar    1  UNL1       -0.0008
      6 C          -7.6260  -19.6788   20.2927 C.ar    1  UNL1        0.0366
      7 O          -5.1397  -20.1561   20.8759 O.3     1  UNL1       -0.4755
      8 C          -4.1204  -19.6238   19.9128 C.3     1  UNL1        0.2053
      9 C          -2.9943  -18.7668   20.4101 C.3     1  UNL1        0.0438
     10 C          -2.7266  -18.6602   21.8822 C.3     1  UNL1        0.0038
     11 C          -0.6452  -18.0062   19.6019 C.3     1  UNL1        0.0001
     12 C          -2.1359  -18.0164   19.4355 C.3     1  UNL1        0.0037
     13 C         -10.2155  -17.1118   21.8595 C.3     1  UNL1        0.0501
     14 C         -11.2224  -17.6301   22.8431 C.ar    1  UNL1       -0.0181
     15 C         -10.7951  -18.5769   23.9252 C.ar    1  UNL1       -0.0039
     16 C         -11.8020  -19.0952   24.9089 C.ar    1  UNL1       -0.0003
     17 C         -13.2361  -18.6667   24.8104 C.ar    1  UNL1       -0.0000
     18 C         -13.6634  -17.7200   23.7282 C.ar    1  UNL1       -0.0003
     19 C         -12.6565  -17.2016   22.7446 C.ar    1  UNL1       -0.0039
     20 C         -10.4777  -15.8323   21.1217 C.3     1  UNL1        0.0504
     21 C         -11.0832  -15.8681   19.7499 C.2     1  UNL1        0.0510
     22 O         -10.6858  -14.8448   18.7277 O.co2   1  UNL1       -0.5491
     23 O         -12.0863  -16.9273   19.4002 O.co2   1  UNL1       -0.5491
@<TRIPOS>UNITY_ATOM_ATTR
22 1
charge -1
@<TRIPOS>BOND
     1    11    12    1
     2    12     9    1
     3     9    10    1
     4     9     8    1
     5     8     7    1
     6     7     1    1
     7     1     2   ar
     8     2     3   ar
     9     3     4   ar
    10     4    13    1
    11    13    20    1
    12    20    21    1
    13    21    22   ar
    14    21    23   ar
    15    13    14    1
    16    14    15   ar
    17    15    16   ar
    18    16    17   ar
    19    17    18   ar
    20    18    19   ar
    21     4     5   ar
    22     5     6   ar
    23     6     1   ar
    24    19    14   ar
@<TRIPOS>MOLECULE
*****
 23 24 0 0 0
SMALL
GASTEIGER

@<TRIPOS>ATOM
      1 C          -4.4710  -19.6358   21.3221 C.ar    1  UNL1        0.1385
      2 C          -5.4914  -20.4990   20.6412 C.ar    1  UNL1        0.0366
      3 C          -6.9467  -20.3391   20.9673 C.ar    1  UNL1       -0.0008
      4 C          -7.3817  -19.3160   21.9742 C.ar    1  UNL1       -0.0179
      5 C          -6.3613  -18.4528   22.6551 C.ar    1  UNL1       -0.0008
      6 C          -4.9060  -18.6126   22.3290 C.ar    1  UNL1        0.0366
      7 O          -3.0156  -19.7957   20.9960 O.3     1  UNL1       -0.4755
      8 C          -2.0018  -18.8867   21.6251 C.3     1  UNL1        0.2053
      9 C          -1.6861  -17.5636   20.9930 C.3     1  UNL1        0.0438
     10 C          -2.0179  -16.2901   21.7130 C.3     1  UNL1        0.0038
     11 C          -1.8656  -17.7134   18.4055 C.3     1  UNL1        0.0001
     12 C          -1.0386  -17.5138   19.6409 C.3     1  UNL1        0.0037
     13 C          -8.8371  -19.1561   22.3003 C.3     1  UNL1        0.0501
     14 C          -9.6856  -18.2125   21.5007 C.ar    1  UNL1       -0.0181
     15 C         -10.5105  -18.7292   20.3594 C.ar    1  UNL1       -0.0039
     16 C         -11.3590  -17.7854   19.5597 C.ar    1  UNL1       -0.0003
     17 C         -11.3826  -16.3250   19.9013 C.ar    1  UNL1       -0.0000
     18 C         -10.5577  -15.8083   21.0426 C.ar    1  UNL1       -0.0003
     19 C          -9.7092  -16.7520   21.8423 C.ar    1  UNL1       -0.0039
     20 C          -9.4440  -19.9399   23.4261 C.3     1  UNL1        0.0504
     21 C         -10.2163  -19.2337   24.5007 C.2     1  UNL1        0.0510
     22 O          -9.5115  -18.7382   25.7285 O.co2   1  UNL1       -0.5491
     23 O         -11.6936  -19.0231   24.3475 O.co2   1  UNL1       -0.5491
@<TRIPOS>UNITY_ATOM_ATTR
22 1
charge -1
@<TRIPOS>BOND
     1    11    12    1
     2    12     9    1
     3     9    10    1
     4     9     8    1
     5     8     7    1
     6     7     1    1
     7     1     2   ar
     8     2     3   ar
     9     3     4   ar
    10     4    13    1
    11    13    20    1
    12    20    21    1
    13    21    22   ar
    14    21    23   ar
    15    13    14    1
    16    14    15   ar
    17    15    16   ar
    18    16    17   ar
    19    17    18   ar
    20    18    19   ar
    21     4     5   ar
    22     5     6   ar
    23     6     1   ar
    24    19    14   ar
@<TRIPOS>MOLECULE
*****
 23 24 0 0 0
SMALL
GASTEIGER

@<TRIPOS>ATOM
      1 C          -5.1540  -19.4065   21.2375 C.ar    1  UNL1        0.1385
      2 C          -4.7701  -18.5586   22.4137 C.ar    1  UNL1        0.0366
      3 C          -5.7909  -17.6734   23.0652 C.ar    1  UNL1       -0.0008
      4 C          -7.1956  -17.6362   22.5405 C.ar    1  UNL1       -0.0179
      5 C          -7.5795  -18.4842   21.3643 C.ar    1  UNL1       -0.0008
      6 C          -6.5587  -19.3694   20.7128 C.ar    1  UNL1        0.0366
      7 O          -4.1331  -20.2917   20.5861 O.3     1  UNL1       -0.4755
      8 C          -3.3738  -19.8049   19.3876 C.3     1  UNL1        0.2053
      9 C          -2.5427  -18.5597   19.4814 C.3     1  UNL1        0.0438
     10 C          -2.9023  -17.3546   18.6637 C.3     1  UNL1        0.0038
     11 C          -0.1035  -17.8068   19.9645 C.3     1  UNL1        0.0001
     12 C          -1.3519  -18.5196   20.3926 C.3     1  UNL1        0.0037
     13 C          -8.2165  -16.7511   23.1919 C.3     1  UNL1        0.0501
     14 C          -9.6240  -17.2368   23.3732 C.ar    1  UNL1       -0.0181
     15 C         -10.7438  -16.5924   22.6112 C.ar    1  UNL1       -0.0039
     16 C         -12.1514  -17.0782   22.7925 C.ar    1  UNL1       -0.0003
     17 C         -12.4391  -18.2084   23.7359 C.ar    1  UNL1       -0.0000
     18 C         -11.3193  -18.8528   24.4979 C.ar    1  UNL1       -0.0003
     19 C          -9.9118  -18.3670   24.3166 C.ar    1  UNL1       -0.0039
     20 C          -7.8298  -15.3802   23.6621 C.3     1  UNL1        0.0504
     21 C          -7.3487  -15.1776   25.0683 C.2     1  UNL1        0.0510
     22 O          -5.9241  -14.7839   25.3242 O.co2   1  UNL1       -0.5491
     23 O          -8.2922  -15.3687   26.2187 O.co2   1  UNL1       -0.5491
@<TRIPOS>UNITY_ATOM_ATTR
22 1
charge -1
@<TRIPOS>BOND
     1    11    12    1
     2    12     9    1
     3     9    10    1
     4     9     8    1
     5     8     7    1
     6     7     1    1
     7     1     2   ar
     8     2     3   ar
     9     3     4   ar
    10     4    13    1
    11    13    20    1
    12    20    21    1
    13    21    22   ar
    14    21    23   ar
    15    13    14    1
    16    14    15   ar
    17    15    16   ar
    18    16    17   ar
    19    17    18   ar
    20    18    19   ar
    21     4     5   ar
    22     5     6   ar
    23     6     1   ar
    24    19    14   ar
@<TRIPOS>MOLECULE
*****
 23 24 0 0 0
SMALL
GASTEIGER

@<TRIPOS>ATOM
      1 C          -5.4346  -18.8287   21.9290 C.ar    1  UNL1        0.1385
      2 C          -6.8488  -19.2616   21.6794 C.ar    1  UNL1        0.0366
      3 C          -7.9816  -18.5525   22.3606 C.ar    1  UNL1       -0.0008
      4 C          -7.7000  -17.4105   23.2915 C.ar    1  UNL1       -0.0179
      5 C          -6.2857  -16.9776   23.5411 C.ar    1  UNL1       -0.0008
      6 C          -5.1530  -17.6868   22.8598 C.ar    1  UNL1        0.0366
      7 O          -4.3018  -19.5379   21.2478 O.3     1  UNL1       -0.4755
      8 C          -3.7746  -19.0260   19.9401 C.3     1  UNL1        0.2053
      9 C          -2.5259  -18.1955   19.9083 C.3     1  UNL1        0.0438
     10 C          -1.9123  -17.8139   18.5938 C.3     1  UNL1        0.0038
     11 C          -1.9591  -16.3042   21.5969 C.3     1  UNL1        0.0001
     12 C          -1.8909  -17.7466   21.1909 C.3     1  UNL1        0.0037
     13 C          -8.8327  -16.7014   23.9727 C.3     1  UNL1        0.0501
     14 C         -10.2505  -17.0352   23.6143 C.ar    1  UNL1       -0.0181
     15 C         -10.9490  -18.1729   24.2982 C.ar    1  UNL1       -0.0039
     16 C         -12.3668  -18.5068   23.9397 C.ar    1  UNL1       -0.0003
     17 C         -13.0860  -17.7029   22.8974 C.ar    1  UNL1       -0.0000
     18 C         -12.3875  -16.5652   22.2135 C.ar    1  UNL1       -0.0003
     19 C         -10.9698  -16.2314   22.5719 C.ar    1  UNL1       -0.0039
     20 C          -8.5477  -15.6584   25.0123 C.3     1  UNL1        0.0504
     21 C          -8.4065  -16.0538   26.4524 C.2     1  UNL1        0.0510
     22 O          -8.7345  -17.4531   26.8816 O.co2   1  UNL1       -0.5491
     23 O          -7.9373  -15.0497   27.4633 O.co2   1  UNL1       -0.5491
@<TRIPOS>UNITY_ATOM_ATTR
22 1
charge -1
@<TRIPOS>BOND
     1    11    12    1
     2    12     9    1
     3     9    10    1
     4     9     8    1
     5     8     7    1
     6     7     1    1
     7     1     2   ar
     8     2     3   ar
     9     3     4   ar
    10     4    13    1
    11    13    20    1
    12    20    21    1
    13    21    22   ar
    14    21    23   ar
    15    13    14    1
    16    14    15   ar
    17    15    16   ar
    18    16    17   ar
    19    17    18   ar
    20    18    19   ar
    21     4     5   ar
    22     5     6   ar
    23     6     1   ar
    24    19    14   ar
@<TRIPOS>MOLECULE
*****
 23 24 0 0 0
SMALL
GASTEIGER

@<TRIPOS>ATOM
      1 C          -9.7642  -18.4980   23.9381 C.ar    1  UNL1        0.1385
      2 C          -9.2011  -17.3352   23.1760 C.ar    1  UNL1        0.0366
      3 C          -8.1508  -17.5622   22.1294 C.ar    1  UNL1       -0.0008
      4 C          -7.6636  -18.9520   21.8449 C.ar    1  UNL1       -0.0179
      5 C          -8.2267  -20.1148   22.6070 C.ar    1  UNL1       -0.0008
      6 C          -9.2770  -19.8878   23.6536 C.ar    1  UNL1        0.0366
      7 O         -10.8145  -18.2709   24.9847 O.3     1  UNL1       -0.4755
      8 C         -12.1729  -18.8881   24.8303 C.3     1  UNL1        0.2053
      9 C         -13.2533  -18.1496   24.0974 C.3     1  UNL1        0.0438
     10 C         -14.6840  -18.2964   24.5237 C.3     1  UNL1        0.0038
     11 C         -12.5694  -17.8691   21.6068 C.3     1  UNL1        0.0001
     12 C         -12.9032  -17.2644   22.9383 C.3     1  UNL1        0.0037
     13 C          -6.6133  -19.1791   20.7983 C.3     1  UNL1        0.0501
     14 C          -5.1622  -19.1711   21.1779 C.ar    1  UNL1       -0.0181
     15 C          -4.7253  -18.5217   22.4575 C.ar    1  UNL1       -0.0039
     16 C          -3.2740  -18.5137   22.8371 C.ar    1  UNL1       -0.0003
     17 C          -2.2599  -19.1551   21.9371 C.ar    1  UNL1       -0.0000
     18 C          -2.6968  -19.8045   20.6575 C.ar    1  UNL1       -0.0003
     19 C          -4.1480  -19.8125   20.2779 C.ar    1  UNL1       -0.0039
     20 C          -7.0142  -19.4141   19.3721 C.3     1  UNL1        0.0504
     21 C          -8.4483  -19.6932   19.0324 C.2     1  UNL1        0.0510
     22 O          -9.4982  -18.6561   19.3010 O.co2   1  UNL1       -0.5491
     23 O          -8.8325  -21.0094   18.4239 O.co2   1  UNL1       -0.5491
@<TRIPOS>UNITY_ATOM_ATTR
22 1
charge -1
@<TRIPOS>BOND
     1    11    12    1
     2    12     9    1
     3     9    10    1
     4     9     8    1
     5     8     7    1
     6     7     1    1
     7     1     2   ar
     8     2     3   ar
     9     3     4   ar
    10     4    13    1
    11    13    20    1
    12    20    21    1
    13    21    22   ar
    14    21    23   ar
    15    13    14    1
    16    14    15   ar
    17    15    16   ar
    18    16    17   ar
    19    17    18   ar
    20    18    19   ar
    21     4     5   ar
    22     5     6   ar
    23     6     1   ar
    24    19    14   ar
@<TRIPOS>MOLECULE
*****
 23 24 0 0 0
SMALL
GASTEIGER

@<TRIPOS>ATOM
      1 C          -8.4646  -16.0240   26.2241 C.ar    1  UNL1        0.1385
      2 C          -8.8457  -17.4453   26.5150 C.ar    1  UNL1        0.0366
      3 C          -9.5513  -18.2611   25.4726 C.ar    1  UNL1       -0.0008
      4 C          -9.8759  -17.6556   24.1392 C.ar    1  UNL1       -0.0179
      5 C          -9.4948  -16.2343   23.8483 C.ar    1  UNL1       -0.0008
      6 C          -8.7892  -15.4185   24.8907 C.ar    1  UNL1        0.0366
      7 O          -7.7590  -15.2082   27.2665 O.3     1  UNL1       -0.4755
      8 C          -6.3142  -14.8481   27.0858 C.3     1  UNL1        0.2053
      9 C          -5.4477  -15.6601   26.1694 C.3     1  UNL1        0.0438
     10 C          -4.7307  -16.8698   26.6916 C.3     1  UNL1        0.0038
     11 C          -5.3625  -16.3048   23.6540 C.3     1  UNL1        0.0001
     12 C          -5.2983  -15.2625   24.7308 C.3     1  UNL1        0.0037
     13 C         -10.5815  -18.4713   23.0968 C.3     1  UNL1        0.0501
     14 C          -9.8572  -18.8830   21.8495 C.ar    1  UNL1       -0.0181
     15 C          -8.3597  -18.9692   21.8455 C.ar    1  UNL1       -0.0039
     16 C          -7.6355  -19.3809   20.5981 C.ar    1  UNL1       -0.0003
     17 C          -8.4087  -19.7063   19.3547 C.ar    1  UNL1       -0.0000
     18 C          -9.9062  -19.6200   19.3586 C.ar    1  UNL1       -0.0003
     19 C         -10.6305  -19.2084   20.6060 C.ar    1  UNL1       -0.0039
     20 C         -12.0114  -18.8755   23.3018 C.3     1  UNL1        0.0504
     21 C         -13.0781  -17.8271   23.4158 C.2     1  UNL1        0.0510
     22 O         -14.3196  -18.1037   24.2109 O.co2   1  UNL1       -0.5491
     23 O         -12.9034  -16.5021   22.7346 O.co2   1  UNL1       -0.5491
@<TRIPOS>UNITY_ATOM_ATTR
22 1
charge -1
@<TRIPOS>BOND
     1    11    12    1
     2    12     9    1
     3     9    10    1
     4     9     8    1
     5     8     7    1
     6     7     1    1
     7     1     2   ar
     8     2     3   ar
     9     3     4   ar
    10     4    13    1
    11    13    20    1
    12    20    21    1
    13    21    22   ar
    14    21    23   ar
    15    13    14    1
    16    14    15   ar
    17    15    16   ar
    18    16    17   ar
    19    17    18   ar
    20    18    19   ar
    21     4     5   ar
    22     5     6   ar
    23     6     1   ar
    24    19    14   ar
@<TRIPOS>MOLECULE
*****
 23 24 0 0 0
SMALL
GASTEIGER

@<TRIPOS>ATOM
      1 C          -8.7596  -16.0708   24.5028 C.ar    1  UNL1        0.1385
      2 C          -7.9628  -15.5518   23.3428 C.ar    1  UNL1        0.0366
      3 C          -7.5107  -16.4905   22.2636 C.ar    1  UNL1       -0.0008
      4 C          -7.8555  -17.9480   22.3445 C.ar    1  UNL1       -0.0179
      5 C          -8.6524  -18.4670   23.5045 C.ar    1  UNL1       -0.0008
      6 C          -9.1044  -17.5283   24.5837 C.ar    1  UNL1        0.0366
      7 O          -9.2117  -15.1321   25.5820 O.3     1  UNL1       -0.4755
      8 C          -8.5090  -15.1188   26.9072 C.3     1  UNL1        0.2053
      9 C          -7.1145  -15.6593   27.0222 C.3     1  UNL1        0.0438
     10 C          -6.8536  -16.8955   27.8308 C.3     1  UNL1        0.0038
     11 C          -5.0795  -15.7324   25.4087 C.3     1  UNL1        0.0001
     12 C          -5.9810  -14.9636   26.3286 C.3     1  UNL1        0.0037
     13 C          -7.4035  -18.8867   21.2653 C.3     1  UNL1        0.0501
     14 C          -5.9503  -19.2345   21.1341 C.ar    1  UNL1       -0.0181
     15 C          -5.0479  -19.1496   22.3293 C.ar    1  UNL1       -0.0039
     16 C          -3.5947  -19.4975   22.1980 C.ar    1  UNL1       -0.0003
     17 C          -3.0440  -19.9304   20.8717 C.ar    1  UNL1       -0.0000
     18 C          -3.9464  -20.0153   19.6765 C.ar    1  UNL1       -0.0003
     19 C          -5.3995  -19.6674   19.8077 C.ar    1  UNL1       -0.0039
     20 C          -8.4046  -19.4774   20.3173 C.3     1  UNL1        0.0504
     21 C          -9.8185  -18.9765   20.3116 C.2     1  UNL1        0.0510
     22 O         -10.9046  -19.7891   20.9520 O.co2   1  UNL1       -0.5491
     23 O         -10.1463  -17.6631   19.6655 O.co2   1  UNL1       -0.5491
@<TRIPOS>UNITY_ATOM_ATTR
22 1
charge -1
@<TRIPOS>BOND
     1    11    12    1
     2    12     9    1
     3     9    10    1
     4     9     8    1
     5     8     7    1
     6     7     1    1
     7     1     2   ar
     8     2     3   ar
     9     3     4   ar
    10     4    13    1
    11    13    20    1
    12    20    21    1
    13    21    22   ar
    14    21    23   ar
    15    13    14    1
    16    14    15   ar
    17    15    16   ar
    18    16    17   ar
    19    17    18   ar
    20    18    19   ar
    21     4     5   ar
    22     5     6   ar
    23     6     1   ar
    24    19    14   ar
@<TRIPOS>MOLECULE
*****
 23 24 0 0 0
SMALL
GASTEIGER

@<TRIPOS>ATOM
      1 C          -8.7870  -17.6831   24.2308 C.ar    1  UNL1        0.1385
      2 C          -7.7623  -16.8932   23.4720 C.ar    1  UNL1        0.0366
      3 C          -7.0030  -17.5337   22.3481 C.ar    1  UNL1       -0.0008
      4 C          -7.2685  -18.9641   21.9830 C.ar    1  UNL1       -0.0179
      5 C          -8.2933  -19.7540   22.7418 C.ar    1  UNL1       -0.0008
      6 C          -9.0525  -19.1135   23.8657 C.ar    1  UNL1        0.0366
      7 O          -9.5463  -17.0425   25.3548 O.3     1  UNL1       -0.4755
      8 C          -8.9984  -17.0856   26.7504 C.3     1  UNL1        0.2053
      9 C          -8.1419  -15.9622   27.2549 C.3     1  UNL1        0.0438
     10 C          -8.7801  -14.7291   27.8226 C.3     1  UNL1        0.0038
     11 C          -5.8813  -15.2977   26.1604 C.3     1  UNL1        0.0001
     12 C          -6.6473  -16.0720   27.1918 C.3     1  UNL1        0.0037
     13 C          -6.5092  -19.6046   20.8590 C.3     1  UNL1        0.0501
     14 C          -5.0267  -19.4064   20.7467 C.ar    1  UNL1       -0.0181
     15 C          -4.4307  -18.9180   19.4597 C.ar    1  UNL1       -0.0039
     16 C          -2.9480  -18.7198   19.3473 C.ar    1  UNL1       -0.0003
     17 C          -2.0614  -19.0099   20.5220 C.ar    1  UNL1       -0.0000
     18 C          -2.6574  -19.4983   21.8089 C.ar    1  UNL1       -0.0003
     19 C          -4.1400  -19.6965   21.9213 C.ar    1  UNL1       -0.0039
     20 C          -7.2325  -20.4434   19.8475 C.3     1  UNL1        0.0504
     21 C          -8.4602  -19.9098   19.1707 C.2     1  UNL1        0.0510
     22 O          -9.1164  -20.6988   18.0768 O.co2   1  UNL1       -0.5491
     23 O          -9.0317  -18.5871   19.5880 O.co2   1  UNL1       -0.5491
@<TRIPOS>UNITY_ATOM_ATTR
22 1
charge -1
@<TRIPOS>BOND
     1    11    12    1
     2    12     9    1
     3     9    10    1
     4     9     8    1
     5     8     7    1
     6     7     1    1
     7     1     2   ar
     8     2     3   ar
     9     3     4   ar
    10     4    13    1
    11    13    20    1
    12    20    21    1
    13    21    22   ar
    14    21    23   ar
    15    13    14    1
    16    14    15   ar
    17    15    16   ar
    18    16    17   ar
    19    17    18   ar
    20    18    19   ar
    21     4     5   ar
    22     5     6   ar
    23     6     1   ar
    24    19    14   ar
