@<TRIPOS>MOLECULE
*****
 19 20 0 0 0
SMALL
GASTEIGER

@<TRIPOS>ATOM
      1 C          -9.0694  -18.0646   21.4999 C.2     1  UNL1        0.1740
      2 O          -8.9741  -18.5690   20.0905 O.2     1  UNL1       -0.2913
      3 C         -13.0188  -18.1431   23.6554 C.ar    1  UNL1       -0.0222
      4 C         -12.9462  -17.6500   22.2407 C.ar    1  UNL1       -0.0042
      5 C         -11.6297  -17.6238   21.5222 C.ar    1  UNL1        0.0025
      6 C         -10.3859  -18.0908   22.2184 C.ar    1  UNL1        0.0347
      7 C         -10.4585  -18.5839   23.6332 C.ar    1  UNL1        0.0025
      8 C         -11.7750  -18.6101   24.3516 C.ar    1  UNL1       -0.0042
      9 C         -14.3870  -18.5158   25.8324 C.3     1  UNL1        0.0050
     10 C         -14.3353  -18.1693   24.3739 C.3     1  UNL1        0.0264
     11 C          -7.8484  -17.5340   22.1908 C.3     1  UNL1        0.0779
     12 C          -6.6278  -18.3958   22.3238 C.3     1  UNL1        0.0096
     13 C          -7.8477  -16.1416   22.7488 C.3     1  UNL1        0.0798
     14 N          -7.4499  -15.9055   24.1756 N.3     1  UNL1       -0.2723
     15 C          -6.0345  -15.5367   24.5084 C.3     1  UNL1        0.0721
     16 C          -5.6366  -15.3007   25.9353 C.3     1  UNL1        0.0174
     17 C          -6.6541  -15.4334   27.0294 C.3     1  UNL1        0.0029
     18 C          -8.0695  -15.8022   26.6967 C.3     1  UNL1        0.0174
     19 C          -8.4674  -16.0383   25.2698 C.3     1  UNL1        0.0721
@<TRIPOS>BOND
     1     9    10    1
     2    10     3    1
     3     3     4   ar
     4     4     5   ar
     5     5     6   ar
     6     6     1    1
     7     1     2    2
     8     1    11    1
     9    11    12    1
    10    11    13    1
    11    13    14    1
    12    14    15    1
    13    15    16    1
    14    16    17    1
    15    17    18    1
    16    18    19    1
    17     6     7   ar
    18     7     8   ar
    19     8     3   ar
    20    19    14    1
@<TRIPOS>MOLECULE
*****
 19 20 0 0 0
SMALL
GASTEIGER

@<TRIPOS>ATOM
      1 C          -8.0074  -17.8660   22.0841 C.2     1  UNL1        0.1740
      2 O          -7.1659  -16.6489   22.3300 O.2     1  UNL1       -0.2913
      3 C         -12.3097  -17.9304   23.4017 C.ar    1  UNL1       -0.0222
      4 C         -11.3187  -18.8643   24.0307 C.ar    1  UNL1       -0.0042
      5 C          -9.8846  -18.8428   23.5915 C.ar    1  UNL1        0.0025
      6 C          -9.4415  -17.8875   22.5233 C.ar    1  UNL1        0.0347
      7 C         -10.4326  -16.9536   21.8944 C.ar    1  UNL1        0.0025
      8 C         -11.8667  -16.9751   22.3336 C.ar    1  UNL1       -0.0042
      9 C         -14.1043  -18.4746   25.1999 C.3     1  UNL1        0.0050
     10 C         -13.7438  -17.9519   23.8409 C.3     1  UNL1        0.0264
     11 C          -7.4149  -19.0616   21.3990 C.3     1  UNL1        0.0779
     12 C          -7.9240  -19.4833   20.0526 C.3     1  UNL1        0.0096
     13 C          -6.3131  -19.8355   22.0603 C.3     1  UNL1        0.0798
     14 N          -4.8870  -19.4012   21.8938 N.3     1  UNL1       -0.2723
     15 C          -4.0761  -19.9155   20.7414 C.3     1  UNL1        0.0721
     16 C          -2.6500  -19.4813   20.5749 C.3     1  UNL1        0.0174
     17 C          -2.0349  -18.5327   21.5607 C.3     1  UNL1        0.0029
     18 C          -2.8458  -18.0184   22.7131 C.3     1  UNL1        0.0174
     19 C          -4.2719  -18.4527   22.8796 C.3     1  UNL1        0.0721
@<TRIPOS>BOND
     1     9    10    1
     2    10     3    1
     3     3     4   ar
     4     4     5   ar
     5     5     6   ar
     6     6     1    1
     7     1     2    2
     8     1    11    1
     9    11    12    1
    10    11    13    1
    11    13    14    1
    12    14    15    1
    13    15    16    1
    14    16    17    1
    15    17    18    1
    16    18    19    1
    17     6     7   ar
    18     7     8   ar
    19     8     3   ar
    20    19    14    1
@<TRIPOS>MOLECULE
*****
 19 20 0 0 0
SMALL
GASTEIGER

@<TRIPOS>ATOM
      1 C          -7.0819  -18.1693   22.2745 C.2     1  UNL1        0.1740
      2 O          -6.2196  -17.0905   22.8598 O.2     1  UNL1       -0.2913
      3 C         -11.5620  -17.8865   22.5873 C.ar    1  UNL1       -0.0222
      4 C         -10.7003  -17.4289   23.7266 C.ar    1  UNL1       -0.0042
      5 C          -9.2069  -17.5232   23.6223 C.ar    1  UNL1        0.0025
      6 C          -8.5753  -18.0750   22.3788 C.ar    1  UNL1        0.0347
      7 C          -9.4370  -18.5326   21.2395 C.ar    1  UNL1        0.0025
      8 C         -10.9304  -18.4383   21.3438 C.ar    1  UNL1       -0.0042
      9 C         -13.7298  -18.0046   24.0144 C.3     1  UNL1        0.0050
     10 C         -13.0554  -17.7922   22.6916 C.3     1  UNL1        0.0264
     11 C          -6.4507  -19.3424   21.5850 C.3     1  UNL1        0.0779
     12 C          -6.6068  -20.7208   22.1556 C.3     1  UNL1        0.0096
     13 C          -5.6635  -19.1371   20.3247 C.3     1  UNL1        0.0798
     14 N          -4.1977  -18.8271   20.3982 N.3     1  UNL1       -0.2723
     15 C          -3.4771  -18.9163   21.7107 C.3     1  UNL1        0.0721
     16 C          -2.0113  -18.6063   21.7842 C.3     1  UNL1        0.0174
     17 C          -1.2662  -18.2070   20.5451 C.3     1  UNL1        0.0029
     18 C          -1.9867  -18.1178   19.2326 C.3     1  UNL1        0.0174
     19 C          -3.4525  -18.4278   19.1591 C.3     1  UNL1        0.0721
@<TRIPOS>BOND
     1     9    10    1
     2    10     3    1
     3     3     4   ar
     4     4     5   ar
     5     5     6   ar
     6     6     1    1
     7     1     2    2
     8     1    11    1
     9    11    12    1
    10    11    13    1
    11    13    14    1
    12    14    15    1
    13    15    16    1
    14    16    17    1
    15    17    18    1
    16    18    19    1
    17     6     7   ar
    18     7     8   ar
    19     8     3   ar
    20    19    14    1
@<TRIPOS>MOLECULE
*****
 19 20 0 0 0
SMALL
GASTEIGER

@<TRIPOS>ATOM
      1 C          -9.7806  -17.8974   22.2387 C.2     1  UNL1        0.1740
      2 O         -10.9151  -17.5427   21.3240 O.2     1  UNL1       -0.2913
      3 C          -6.1658  -20.0315   20.6174 C.ar    1  UNL1       -0.0222
      4 C          -7.4317  -19.9842   19.8143 C.ar    1  UNL1       -0.0042
      5 C          -8.6367  -19.2729   20.3547 C.ar    1  UNL1        0.0025
      6 C          -8.5756  -18.6088   21.6983 C.ar    1  UNL1        0.0347
      7 C          -7.3097  -18.6561   22.5014 C.ar    1  UNL1        0.0025
      8 C          -6.1047  -19.3674   21.9609 C.ar    1  UNL1       -0.0042
      9 C          -3.6844  -19.9888   19.8485 C.3     1  UNL1        0.0050
     10 C          -4.9608  -20.7429   20.0769 C.3     1  UNL1        0.0264
     11 C          -9.8510  -17.5408   23.6940 C.3     1  UNL1        0.0779
     12 C         -10.2417  -18.5799   24.7028 C.3     1  UNL1        0.0096
     13 C          -9.5306  -16.1451   24.1405 C.3     1  UNL1        0.0798
     14 N          -8.2414  -15.8630   24.8535 N.3     1  UNL1       -0.2723
     15 C          -8.2018  -15.8453   26.3529 C.3     1  UNL1        0.0721
     16 C          -6.9126  -15.5632   27.0658 C.3     1  UNL1        0.0174
     17 C          -5.6629  -15.2989   26.2794 C.3     1  UNL1        0.0029
     18 C          -5.7024  -15.3166   24.7800 C.3     1  UNL1        0.0174
     19 C          -6.9917  -15.5987   24.0670 C.3     1  UNL1        0.0721
@<TRIPOS>BOND
     1     9    10    1
     2    10     3    1
     3     3     4   ar
     4     4     5   ar
     5     5     6   ar
     6     6     1    1
     7     1     2    2
     8     1    11    1
     9    11    12    1
    10    11    13    1
    11    13    14    1
    12    14    15    1
    13    15    16    1
    14    16    17    1
    15    17    18    1
    16    18    19    1
    17     6     7   ar
    18     7     8   ar
    19     8     3   ar
    20    19    14    1
@<TRIPOS>MOLECULE
*****
 19 20 0 0 0
SMALL
GASTEIGER

@<TRIPOS>ATOM
      1 C          -6.6053  -19.3899   22.0666 C.2     1  UNL1        0.1740
      2 O          -6.9952  -20.7457   22.5764 O.2     1  UNL1       -0.2913
      3 C          -2.4504  -18.6893   20.4869 C.ar    1  UNL1       -0.0222
      4 C          -2.7141  -18.6173   21.9618 C.ar    1  UNL1       -0.0042
      5 C          -4.0991  -18.8508   22.4883 C.ar    1  UNL1        0.0025
      6 C          -5.2204  -19.1564   21.5400 C.ar    1  UNL1        0.0347
      7 C          -4.9566  -19.2284   20.0652 C.ar    1  UNL1        0.0025
      8 C          -3.5716  -18.9949   19.5386 C.ar    1  UNL1       -0.0042
      9 C          -0.4069  -17.1212   20.1478 C.3     1  UNL1        0.0050
     10 C          -1.0654  -18.4558   19.9604 C.3     1  UNL1        0.0264
     11 C          -7.6005  -18.2678   22.0833 C.3     1  UNL1        0.0779
     12 C          -7.3543  -17.0597   22.9376 C.3     1  UNL1        0.0096
     13 C          -8.8419  -18.3536   21.2456 C.3     1  UNL1        0.0798
     14 N         -10.1700  -17.9766   21.8322 N.3     1  UNL1       -0.2723
     15 C         -10.8836  -16.7500   21.3460 C.3     1  UNL1        0.0721
     16 C         -12.2117  -16.3731   21.9325 C.3     1  UNL1        0.0174
     17 C         -12.8262  -17.2226   23.0052 C.3     1  UNL1        0.0029
     18 C         -12.1126  -18.4491   23.4914 C.3     1  UNL1        0.0174
     19 C         -10.7845  -18.8262   22.9048 C.3     1  UNL1        0.0721
@<TRIPOS>BOND
     1     9    10    1
     2    10     3    1
     3     3     4   ar
     4     4     5   ar
     5     5     6   ar
     6     6     1    1
     7     1     2    2
     8     1    11    1
     9    11    12    1
    10    11    13    1
    11    13    14    1
    12    14    15    1
    13    15    16    1
    14    16    17    1
    15    17    18    1
    16    18    19    1
    17     6     7   ar
    18     7     8   ar
    19     8     3   ar
    20    19    14    1
@<TRIPOS>MOLECULE
*****
 19 20 0 0 0
SMALL
GASTEIGER

@<TRIPOS>ATOM
      1 C          -8.8837  -19.4517   20.3548 C.2     1  UNL1        0.1740
      2 O          -9.0603  -20.1581   19.0434 O.2     1  UNL1       -0.2913
      3 C         -12.4885  -18.2246   22.7527 C.ar    1  UNL1       -0.0222
      4 C         -11.5103  -19.2102   23.3200 C.ar    1  UNL1       -0.0042
      5 C         -10.3088  -19.6192   22.5207 C.ar    1  UNL1        0.0025
      6 C         -10.0853  -19.0427   21.1541 C.ar    1  UNL1        0.0347
      7 C         -11.0635  -18.0571   20.5868 C.ar    1  UNL1        0.0025
      8 C         -12.2650  -17.6481   21.3861 C.ar    1  UNL1       -0.0042
      9 C         -13.9064  -18.3819   24.9241 C.3     1  UNL1        0.0050
     10 C         -13.6901  -17.8156   23.5520 C.3     1  UNL1        0.0264
     11 C          -7.5056  -19.1543   20.8669 C.3     1  UNL1        0.0779
     12 C          -7.2932  -18.0342   21.8417 C.3     1  UNL1        0.0096
     13 C          -6.3398  -19.9770   20.4041 C.3     1  UNL1        0.0798
     14 N          -4.9399  -19.4874   20.6292 N.3     1  UNL1       -0.2723
     15 C          -4.3442  -19.5253   22.0053 C.3     1  UNL1        0.0721
     16 C          -2.9444  -19.0357   22.2304 C.3     1  UNL1        0.0174
     17 C          -2.1402  -18.5082   21.0793 C.3     1  UNL1        0.0029
     18 C          -2.7358  -18.4702   19.7032 C.3     1  UNL1        0.0174
     19 C          -4.1357  -18.9599   19.4781 C.3     1  UNL1        0.0721
@<TRIPOS>BOND
     1     9    10    1
     2    10     3    1
     3     3     4   ar
     4     4     5   ar
     5     5     6   ar
     6     6     1    1
     7     1     2    2
     8     1    11    1
     9    11    12    1
    10    11    13    1
    11    13    14    1
    12    14    15    1
    13    15    16    1
    14    16    17    1
    15    17    18    1
    16    18    19    1
    17     6     7   ar
    18     7     8   ar
    19     8     3   ar
    20    19    14    1
@<TRIPOS>MOLECULE
*****
 19 20 0 0 0
SMALL
GASTEIGER

@<TRIPOS>ATOM
      1 C          -8.0693  -19.6358   22.0469 C.2     1  UNL1        0.1740
      2 O          -8.5462  -20.4164   23.2356 O.2     1  UNL1       -0.2913
      3 C          -3.6895  -19.5569   21.0165 C.ar    1  UNL1       -0.0222
      4 C          -4.6170  -20.4767   20.2792 C.ar    1  UNL1       -0.0042
      5 C          -6.0770  -20.5030   20.6226 C.ar    1  UNL1        0.0025
      6 C          -6.6094  -19.6095   21.7034 C.ar    1  UNL1        0.0347
      7 C          -5.6819  -18.6897   22.4408 C.ar    1  UNL1        0.0025
      8 C          -4.2220  -18.6634   22.0973 C.ar    1  UNL1       -0.0042
      9 C          -1.6935  -18.4704   19.7574 C.3     1  UNL1        0.0050
     10 C          -2.2296  -19.5306   20.6731 C.3     1  UNL1        0.0264
     11 C          -9.0523  -18.8814   21.2016 C.3     1  UNL1        0.0779
     12 C          -9.3822  -19.3668   19.8212 C.3     1  UNL1        0.0096
     13 C          -9.7055  -17.6416   21.7368 C.3     1  UNL1        0.0798
     14 N          -9.0540  -16.8695   22.8455 N.3     1  UNL1       -0.2723
     15 C          -8.0056  -15.8440   22.5299 C.3     1  UNL1        0.0721
     16 C          -7.3541  -15.0719   23.6386 C.3     1  UNL1        0.0174
     17 C          -7.7508  -15.3251   25.0628 C.3     1  UNL1        0.0029
     18 C          -8.7991  -16.3505   25.3784 C.3     1  UNL1        0.0174
     19 C          -9.4507  -17.1227   24.2697 C.3     1  UNL1        0.0721
@<TRIPOS>BOND
     1     9    10    1
     2    10     3    1
     3     3     4   ar
     4     4     5   ar
     5     5     6   ar
     6     6     1    1
     7     1     2    2
     8     1    11    1
     9    11    12    1
    10    11    13    1
    11    13    14    1
    12    14    15    1
    13    15    16    1
    14    16    17    1
    15    17    18    1
    16    18    19    1
    17     6     7   ar
    18     7     8   ar
    19     8     3   ar
    20    19    14    1
@<TRIPOS>MOLECULE
*****
 19 20 0 0 0
SMALL
GASTEIGER

@<TRIPOS>ATOM
      1 C          -8.0117  -18.6216   21.3058 C.2     1  UNL1        0.1740
      2 O          -8.8551  -18.7752   20.0749 O.2     1  UNL1       -0.2913
      3 C          -3.5621  -19.2531   21.0774 C.ar    1  UNL1       -0.0222
      4 C          -4.3949  -19.3268   19.8321 C.ar    1  UNL1       -0.0042
      5 C          -5.8781  -19.1163   19.9082 C.ar    1  UNL1        0.0025
      6 C          -6.5285  -18.8321   21.2296 C.ar    1  UNL1        0.0347
      7 C          -5.6956  -18.7584   22.4750 C.ar    1  UNL1        0.0025
      8 C          -4.2124  -18.9689   22.3989 C.ar    1  UNL1       -0.0042
      9 C          -1.2262  -18.5148   20.2124 C.3     1  UNL1        0.0050
     10 C          -2.0789  -19.4636   21.0013 C.3     1  UNL1        0.0264
     11 C          -8.6514  -18.2575   22.6127 C.3     1  UNL1        0.0779
     12 C          -9.2055  -19.3313   23.5014 C.3     1  UNL1        0.0096
     13 C          -8.7372  -16.8195   23.0309 C.3     1  UNL1        0.0798
     14 N          -8.0108  -16.3503   24.2565 N.3     1  UNL1       -0.2723
     15 C          -8.6819  -16.4140   25.5966 C.3     1  UNL1        0.0721
     16 C          -7.9555  -15.9448   26.8222 C.3     1  UNL1        0.0174
     17 C          -6.5580  -15.4119   26.7079 C.3     1  UNL1        0.0029
     18 C          -5.8869  -15.3482   25.3679 C.3     1  UNL1        0.0174
     19 C          -6.6133  -15.8174   24.1422 C.3     1  UNL1        0.0721
@<TRIPOS>BOND
     1     9    10    1
     2    10     3    1
     3     3     4   ar
     4     4     5   ar
     5     5     6   ar
     6     6     1    1
     7     1     2    2
     8     1    11    1
     9    11    12    1
    10    11    13    1
    11    13    14    1
    12    14    15    1
    13    15    16    1
    14    16    17    1
    15    17    18    1
    16    18    19    1
    17     6     7   ar
    18     7     8   ar
    19     8     3   ar
    20    19    14    1
@<TRIPOS>MOLECULE
*****
 19 20 0 0 0
SMALL
GASTEIGER

@<TRIPOS>ATOM
      1 C          -9.9778  -17.1588   22.0216 C.2     1  UNL1        0.1740
      2 O         -10.5627  -15.8470   21.5892 O.2     1  UNL1       -0.2913
      3 C          -8.9306  -20.2770   18.9507 C.ar    1  UNL1       -0.0222
      4 C         -10.3529  -19.8274   19.1083 C.ar    1  UNL1       -0.0042
      5 C         -10.7020  -18.7880   20.1319 C.ar    1  UNL1        0.0025
      6 C          -9.6287  -18.1982   20.9980 C.ar    1  UNL1        0.0347
      7 C          -8.2064  -18.6478   20.8405 C.ar    1  UNL1        0.0025
      8 C          -7.8574  -19.6872   19.8169 C.ar    1  UNL1       -0.0042
      9 C          -9.3566  -21.3967   16.6454 C.3     1  UNL1        0.0050
     10 C          -8.5815  -21.3164   17.9271 C.3     1  UNL1        0.0264
     11 C          -9.7419  -17.4312   23.4777 C.3     1  UNL1        0.0779
     12 C          -9.7278  -18.8431   23.9839 C.3     1  UNL1        0.0096
     13 C          -9.5202  -16.2916   24.4276 C.3     1  UNL1        0.0798
     14 N          -8.1436  -16.0097   24.9524 N.3     1  UNL1       -0.2723
     15 C          -7.9359  -15.7593   26.4168 C.3     1  UNL1        0.0721
     16 C          -6.5593  -15.4774   26.9416 C.3     1  UNL1        0.0174
     17 C          -5.3904  -15.4459   26.0021 C.3     1  UNL1        0.0029
     18 C          -5.5980  -15.6963   24.5379 C.3     1  UNL1        0.0174
     19 C          -6.9747  -15.9782   24.0130 C.3     1  UNL1        0.0721
@<TRIPOS>BOND
     1     9    10    1
     2    10     3    1
     3     3     4   ar
     4     4     5   ar
     5     5     6   ar
     6     6     1    1
     7     1     2    2
     8     1    11    1
     9    11    12    1
    10    11    13    1
    11    13    14    1
    12    14    15    1
    13    15    16    1
    14    16    17    1
    15    17    18    1
    16    18    19    1
    17     6     7   ar
    18     7     8   ar
    19     8     3   ar
    20    19    14    1
