@<TRIPOS>MOLECULE
*****
 22 25 0 0 0
SMALL
GASTEIGER

@<TRIPOS>ATOM
      1 N          -7.0863  -16.1234   24.1598 N.3     1  UNL1       -0.2733
      2 C          -8.5680  -16.2566   23.9681 C.3     1  UNL1        0.0729
      3 C          -9.1126  -17.2906   23.0276 C.3     1  UNL1        0.0271
      4 C          -8.1755  -18.1913   22.2790 C.3     1  UNL1        0.0077
      5 C          -6.6938  -18.0581   22.4707 C.3     1  UNL1        0.0340
      6 C          -5.7567  -18.9589   21.7220 C.2     1  UNL1       -0.0342
      7 C          -6.3013  -19.9928   20.7816 C.2     1  UNL1       -0.0078
      8 C          -5.3642  -20.8935   20.0329 C.2     1  UNL1        0.0006
      9 C          -3.8825  -20.7603   20.2247 C.2     1  UNL1        0.0153
     10 C          -3.3379  -19.7264   21.1651 C.2     1  UNL1        0.0662
     11 N          -1.9987  -19.2545   21.6488 N.2     1  UNL1       -0.2482
     12 C          -2.2253  -18.1376   22.6240 C.2     1  UNL1        0.0907
     13 C          -3.7303  -17.7917   22.8542 C.2     1  UNL1       -0.0148
     14 C          -4.2750  -18.8257   21.9137 C.3     1  UNL1        0.0783
     15 C          -4.6674  -16.8910   23.6028 C.3     1  UNL1        0.0405
     16 C          -6.1492  -17.0242   23.4111 C.3     1  UNL1        0.0653
     17 C          -6.5416  -15.0895   25.1002 C.3     1  UNL1        0.0721
     18 C          -7.4577  -15.8349   27.4144 C.3     1  UNL1        0.0015
     19 C          -6.3057  -15.4358   26.5405 C.3     1  UNL1        0.0173
     20 C         -10.5943  -17.4238   22.8359 C.3     1  UNL1        0.0590
     21 S         -11.3676  -16.3199   22.1775 S.3     1  UNL1       -0.1393
     22 C         -11.4172  -16.2280   20.6811 C.3     1  UNL1        0.0692
@<TRIPOS>BOND
     1    18    19    1
     2    19    17    1
     3    17     1    1
     4     1     2    1
     5     2     3    1
     6     3    20    1
     7    20    21    1
     8    21    22    1
     9     3     4    1
    10     5     4    1
    11     5     6    1
    12     6     7    2
    13     7     8    1
    14     8     9    2
    15     9    10    1
    16    10    11    2
    17    11    12    1
    18    12    13    2
    19    13    14    1
    20    13    15    1
    21    16    15    1
    22    16     1    1
    23    16     5    1
    24    14     6    1
    25    14    10    1
@<TRIPOS>MOLECULE
*****
 22 25 0 0 0
SMALL
GASTEIGER

@<TRIPOS>ATOM
      1 N          -6.0340  -16.3500   23.9880 N.3     1  UNL1       -0.2733
      2 C          -4.7272  -17.0380   23.7257 C.3     1  UNL1        0.0729
      3 C          -4.6506  -18.1414   22.7124 C.3     1  UNL1        0.0271
      4 C          -5.8809  -18.5568   21.9615 C.3     1  UNL1        0.0077
      5 C          -7.1877  -17.8688   22.2239 C.3     1  UNL1        0.0340
      6 C          -8.4180  -18.2843   21.4730 C.2     1  UNL1       -0.0342
      7 C          -8.3415  -19.3877   20.4597 C.2     1  UNL1       -0.0078
      8 C          -9.5717  -19.8031   19.7089 C.2     1  UNL1        0.0006
      9 C         -10.8786  -19.1151   19.9712 C.2     1  UNL1        0.0153
     10 C         -10.9552  -18.0118   20.9845 C.2     1  UNL1        0.0662
     11 N         -11.9923  -17.0865   21.5487 N.2     1  UNL1       -0.2482
     12 C         -11.3262  -16.2096   22.5673 C.2     1  UNL1        0.0907
     13 C          -9.8015  -16.4930   22.7486 C.2     1  UNL1       -0.0148
     14 C          -9.7249  -17.5964   21.7353 C.3     1  UNL1        0.0783
     15 C          -8.5712  -16.0775   23.4995 C.3     1  UNL1        0.0405
     16 C          -7.2643  -16.7655   23.2371 C.3     1  UNL1        0.0653
     17 C          -6.1106  -15.2467   25.0013 C.3     1  UNL1        0.0721
     18 C          -7.4897  -15.6308   27.1694 C.3     1  UNL1        0.0015
     19 C          -6.1671  -15.5743   26.4639 C.3     1  UNL1        0.0173
     20 C          -3.3437  -18.8293   22.4500 C.3     1  UNL1        0.0590
     21 S          -3.1363  -19.5821   21.1692 S.3     1  UNL1       -0.1393
     22 C          -2.7222  -18.8497   19.9274 C.3     1  UNL1        0.0692
@<TRIPOS>BOND
     1    18    19    1
     2    19    17    1
     3    17     1    1
     4     1     2    1
     5     2     3    1
     6     3    20    1
     7    20    21    1
     8    21    22    1
     9     3     4    1
    10     5     4    1
    11     5     6    1
    12     6     7    2
    13     7     8    1
    14     8     9    2
    15     9    10    1
    16    10    11    2
    17    11    12    1
    18    12    13    2
    19    13    14    1
    20    13    15    1
    21    16    15    1
    22    16     1    1
    23    16     5    1
    24    14     6    1
    25    14    10    1
@<TRIPOS>MOLECULE
*****
 22 25 0 0 0
SMALL
GASTEIGER

@<TRIPOS>ATOM
      1 N          -8.9614  -18.1148   22.5767 N.3     1  UNL1       -0.2733
      2 C          -9.2236  -17.0120   23.5590 C.3     1  UNL1        0.0729
      3 C          -8.0756  -16.2922   24.2026 C.3     1  UNL1        0.0271
      4 C          -6.6655  -16.6754   23.8639 C.3     1  UNL1        0.0077
      5 C          -6.4033  -17.7783   22.8816 C.3     1  UNL1        0.0340
      6 C          -4.9931  -18.1614   22.5429 C.2     1  UNL1       -0.0342
      7 C          -3.8452  -17.4417   23.1864 C.2     1  UNL1       -0.0078
      8 C          -2.4351  -17.8248   22.8477 C.2     1  UNL1        0.0006
      9 C          -2.1729  -18.9277   21.8654 C.2     1  UNL1        0.0153
     10 C          -3.3209  -19.6474   21.2218 C.2     1  UNL1        0.0662
     11 N          -3.5279  -20.7564   20.2332 N.2     1  UNL1       -0.2482
     12 C          -5.0048  -20.9507   20.0572 C.2     1  UNL1        0.0907
     13 C          -5.8790  -19.9840   20.9169 C.2     1  UNL1       -0.0148
     14 C          -4.7310  -19.2643   21.5605 C.3     1  UNL1        0.0783
     15 C          -7.2891  -19.6008   21.2557 C.3     1  UNL1        0.0405
     16 C          -7.5512  -18.4980   22.2380 C.3     1  UNL1        0.0653
     17 C         -10.1093  -18.8346   21.9331 C.3     1  UNL1        0.0721
     18 C         -10.3294  -20.3653   24.0209 C.3     1  UNL1        0.0015
     19 C         -10.7436  -20.0046   22.6250 C.3     1  UNL1        0.0173
     20 C          -8.3378  -15.1894   25.1850 C.3     1  UNL1        0.0590
     21 S          -8.2026  -15.4478   26.6564 S.3     1  UNL1       -0.1393
     22 C          -6.8428  -15.4936   27.2880 C.3     1  UNL1        0.0692
@<TRIPOS>BOND
     1    18    19    1
     2    19    17    1
     3    17     1    1
     4     1     2    1
     5     2     3    1
     6     3    20    1
     7    20    21    1
     8    21    22    1
     9     3     4    1
    10     5     4    1
    11     5     6    1
    12     6     7    2
    13     7     8    1
    14     8     9    2
    15     9    10    1
    16    10    11    2
    17    11    12    1
    18    12    13    2
    19    13    14    1
    20    13    15    1
    21    16    15    1
    22    16     1    1
    23    16     5    1
    24    14     6    1
    25    14    10    1
@<TRIPOS>MOLECULE
*****
 22 25 0 0 0
SMALL
GASTEIGER

@<TRIPOS>ATOM
      1 N          -5.2185  -17.6570   22.7850 N.3     1  UNL1       -0.2733
      2 C          -5.0866  -16.7115   23.9421 C.3     1  UNL1        0.0729
      3 C          -6.3039  -16.0376   24.5025 C.3     1  UNL1        0.0271
      4 C          -7.6531  -16.3092   23.9060 C.3     1  UNL1        0.0077
      5 C          -7.7850  -17.2547   22.7490 C.3     1  UNL1        0.0340
      6 C          -9.1343  -17.5262   22.1524 C.2     1  UNL1       -0.0342
      7 C         -10.3515  -16.8523   22.7129 C.2     1  UNL1       -0.0078
      8 C         -11.7007  -17.1239   22.1163 C.2     1  UNL1        0.0006
      9 C         -11.8327  -18.0693   20.9593 C.2     1  UNL1        0.0153
     10 C         -10.6155  -18.7432   20.3989 C.2     1  UNL1        0.0662
     11 N         -10.2831  -19.7142   19.3049 N.2     1  UNL1       -0.2482
     12 C          -8.8013  -19.9465   19.3258 C.2     1  UNL1        0.0907
     13 C          -8.0490  -19.1456   20.4350 C.2     1  UNL1       -0.0148
     14 C          -9.2663  -18.4717   20.9954 C.3     1  UNL1        0.0783
     15 C          -6.6998  -18.8740   21.0315 C.3     1  UNL1        0.0405
     16 C          -6.5678  -17.9286   22.1885 C.3     1  UNL1        0.0653
     17 C          -4.0013  -18.3309   22.2246 C.3     1  UNL1        0.0721
     18 C          -2.1726  -16.5480   21.7480 C.3     1  UNL1        0.0015
     19 C          -2.6391  -17.7633   22.4933 C.3     1  UNL1        0.0173
     20 C          -6.1719  -15.0921   25.6595 C.3     1  UNL1        0.0590
     21 S          -6.6789  -15.4893   27.0143 S.3     1  UNL1       -0.1393
     22 C          -8.1430  -15.3909   27.3256 C.3     1  UNL1        0.0692
@<TRIPOS>BOND
     1    18    19    1
     2    19    17    1
     3    17     1    1
     4     1     2    1
     5     2     3    1
     6     3    20    1
     7    20    21    1
     8    21    22    1
     9     3     4    1
    10     5     4    1
    11     5     6    1
    12     6     7    2
    13     7     8    1
    14     8     9    2
    15     9    10    1
    16    10    11    2
    17    11    12    1
    18    12    13    2
    19    13    14    1
    20    13    15    1
    21    16    15    1
    22    16     1    1
    23    16     5    1
    24    14     6    1
    25    14    10    1
@<TRIPOS>MOLECULE
*****
 22 25 0 0 0
SMALL
GASTEIGER

@<TRIPOS>ATOM
      1 N          -4.8721  -17.7864   22.8252 N.3     1  UNL1       -0.2733
      2 C          -3.7319  -18.2267   21.9558 C.3     1  UNL1        0.0729
      3 C          -4.0053  -18.9309   20.6598 C.3     1  UNL1        0.0271
      4 C          -5.4189  -19.1948   20.2334 C.3     1  UNL1        0.0077
      5 C          -6.5592  -18.7545   21.1028 C.3     1  UNL1        0.0340
      6 C          -7.9729  -19.0184   20.6763 C.2     1  UNL1       -0.0342
      7 C          -8.2463  -19.7226   19.3804 C.2     1  UNL1       -0.0078
      8 C          -9.6599  -19.9865   18.9539 C.2     1  UNL1        0.0006
      9 C         -10.8002  -19.5462   19.8234 C.2     1  UNL1        0.0153
     10 C         -10.5269  -18.8421   21.1193 C.2     1  UNL1        0.0662
     11 N         -11.3104  -18.2506   22.2534 N.2     1  UNL1       -0.2482
     12 C         -10.3364  -17.6917   23.2478 C.2     1  UNL1        0.0907
     13 C          -8.8398  -17.8740   22.8417 C.2     1  UNL1       -0.0148
     14 C          -9.1132  -18.5782   21.5457 C.3     1  UNL1        0.0783
     15 C          -7.4261  -17.6101   23.2681 C.3     1  UNL1        0.0405
     16 C          -6.2859  -18.0503   22.3987 C.3     1  UNL1        0.0653
     17 C          -4.5988  -17.0822   24.1211 C.3     1  UNL1        0.0721
     18 C          -5.5145  -15.1925   25.6509 C.3     1  UNL1        0.0015
     19 C          -5.0357  -15.6596   24.3083 C.3     1  UNL1        0.0173
     20 C          -2.8650  -19.3711   19.7904 C.3     1  UNL1        0.0590
     21 S          -1.9590  -18.3505   19.1678 S.3     1  UNL1       -0.1393
     22 C          -0.6791  -17.9682   19.8502 C.3     1  UNL1        0.0692
@<TRIPOS>BOND
     1    18    19    1
     2    19    17    1
     3    17     1    1
     4     1     2    1
     5     2     3    1
     6     3    20    1
     7    20    21    1
     8    21    22    1
     9     3     4    1
    10     5     4    1
    11     5     6    1
    12     6     7    2
    13     7     8    1
    14     8     9    2
    15     9    10    1
    16    10    11    2
    17    11    12    1
    18    12    13    2
    19    13    14    1
    20    13    15    1
    21    16    15    1
    22    16     1    1
    23    16     5    1
    24    14     6    1
    25    14    10    1
@<TRIPOS>MOLECULE
*****
 22 25 0 0 0
SMALL
GASTEIGER

@<TRIPOS>ATOM
      1 N          -8.7093  -19.0796   20.1612 N.3     1  UNL1       -0.2733
      2 C         -10.1069  -18.5393   20.0936 C.3     1  UNL1        0.0729
      3 C         -10.5289  -17.4334   21.0150 C.3     1  UNL1        0.0271
      4 C          -9.5532  -16.8679   22.0040 C.3     1  UNL1        0.0077
      5 C          -8.1555  -17.4082   22.0717 C.3     1  UNL1        0.0340
      6 C          -7.1798  -16.8427   23.0608 C.2     1  UNL1       -0.0342
      7 C          -7.6018  -15.7369   23.9822 C.2     1  UNL1       -0.0078
      8 C          -6.6261  -15.1714   24.9712 C.2     1  UNL1        0.0006
      9 C          -5.2285  -15.7117   25.0389 C.2     1  UNL1        0.0153
     10 C          -4.8065  -16.8176   24.1175 C.2     1  UNL1        0.0662
     11 N          -3.5760  -17.6297   23.8410 N.2     1  UNL1       -0.2482
     12 C          -3.8957  -18.5947   22.7380 C.2     1  UNL1        0.0907
     13 C          -5.3602  -18.4890   22.2070 C.2     1  UNL1       -0.0148
     14 C          -5.7822  -17.3831   23.1285 C.3     1  UNL1        0.0783
     15 C          -6.3359  -19.0545   21.2180 C.3     1  UNL1        0.0405
     16 C          -7.7336  -18.5141   21.1503 C.3     1  UNL1        0.0653
     17 C          -8.2873  -20.1855   19.2398 C.3     1  UNL1        0.0721
     18 C          -8.9427  -21.9208   17.4207 C.3     1  UNL1        0.0015
     19 C          -9.1938  -20.6216   18.1272 C.3     1  UNL1        0.0173
     20 C         -11.9265  -16.8930   20.9473 C.3     1  UNL1        0.0590
     21 S         -13.0320  -17.5767   21.6960 S.3     1  UNL1       -0.1393
     22 C         -12.9648  -17.6951   23.1898 C.3     1  UNL1        0.0692
@<TRIPOS>BOND
     1    18    19    1
     2    19    17    1
     3    17     1    1
     4     1     2    1
     5     2     3    1
     6     3    20    1
     7    20    21    1
     8    21    22    1
     9     3     4    1
    10     5     4    1
    11     5     6    1
    12     6     7    2
    13     7     8    1
    14     8     9    2
    15     9    10    1
    16    10    11    2
    17    11    12    1
    18    12    13    2
    19    13    14    1
    20    13    15    1
    21    16    15    1
    22    16     1    1
    23    16     5    1
    24    14     6    1
    25    14    10    1
@<TRIPOS>MOLECULE
*****
 22 25 0 0 0
SMALL
GASTEIGER

@<TRIPOS>ATOM
      1 N          -9.1215  -19.3295   20.6298 N.3     1  UNL1       -0.2733
      2 C         -10.0741  -18.4290   21.3590 C.3     1  UNL1        0.0729
      3 C          -9.5595  -17.4746   22.3955 C.3     1  UNL1        0.0271
      4 C          -8.0923  -17.4207   22.7028 C.3     1  UNL1        0.0077
      5 C          -7.1397  -18.3212   21.9737 C.3     1  UNL1        0.0340
      6 C          -5.6725  -18.2673   22.2810 C.2     1  UNL1       -0.0342
      7 C          -5.1579  -17.3129   23.3175 C.2     1  UNL1       -0.0078
      8 C          -3.6908  -17.2590   23.6248 C.2     1  UNL1        0.0006
      9 C          -2.7382  -18.1595   22.8957 C.2     1  UNL1        0.0153
     10 C          -3.2527  -19.1139   21.8592 C.2     1  UNL1        0.0662
     11 N          -2.7003  -20.1502   20.9259 N.2     1  UNL1       -0.2482
     12 C          -3.8445  -20.7323   20.1501 C.2     1  UNL1        0.0907
     13 C          -5.2346  -20.1222   20.5153 C.2     1  UNL1       -0.0148
     14 C          -4.7199  -19.1678   21.5519 C.3     1  UNL1        0.0783
     15 C          -6.7017  -20.1760   20.2080 C.3     1  UNL1        0.0405
     16 C          -7.6543  -19.2756   20.9372 C.3     1  UNL1        0.0653
     17 C          -9.6361  -20.2838   19.5933 C.3     1  UNL1        0.0721
     18 C          -8.9577  -21.4343   17.3648 C.3     1  UNL1        0.0015
     19 C          -9.1485  -20.1883   18.1780 C.3     1  UNL1        0.0173
     20 C         -10.5121  -16.5741   23.1247 C.3     1  UNL1        0.0590
     21 S         -11.9124  -16.3954   22.6174 S.3     1  UNL1       -0.1393
     22 C         -12.9969  -17.3305   23.0639 C.3     1  UNL1        0.0692
@<TRIPOS>BOND
     1    18    19    1
     2    19    17    1
     3    17     1    1
     4     1     2    1
     5     2     3    1
     6     3    20    1
     7    20    21    1
     8    21    22    1
     9     3     4    1
    10     5     4    1
    11     5     6    1
    12     6     7    2
    13     7     8    1
    14     8     9    2
    15     9    10    1
    16    10    11    2
    17    11    12    1
    18    12    13    2
    19    13    14    1
    20    13    15    1
    21    16    15    1
    22    16     1    1
    23    16     5    1
    24    14     6    1
    25    14    10    1
@<TRIPOS>MOLECULE
*****
 22 25 0 0 0
SMALL
GASTEIGER

@<TRIPOS>ATOM
      1 N          -4.5253  -19.1307   21.4368 N.3     1  UNL1       -0.2733
      2 C          -5.3484  -19.9206   20.4629 C.3     1  UNL1        0.0729
      3 C          -6.8402  -19.7650   20.4424 C.3     1  UNL1        0.0271
      4 C          -7.5088  -18.8196   21.3959 C.3     1  UNL1        0.0077
      5 C          -6.6857  -18.0297   22.3698 C.3     1  UNL1        0.0340
      6 C          -7.3544  -17.0842   23.3232 C.2     1  UNL1       -0.0342
      7 C          -8.8462  -16.9287   23.3027 C.2     1  UNL1       -0.0078
      8 C          -9.5148  -15.9832   24.2562 C.2     1  UNL1        0.0006
      9 C          -8.6917  -15.1933   25.2301 C.2     1  UNL1        0.0153
     10 C          -7.1999  -15.3489   25.2506 C.2     1  UNL1        0.0662
     11 N          -6.0316  -14.7940   26.0104 N.2     1  UNL1       -0.2482
     12 C          -4.7843  -15.4297   25.4718 C.2     1  UNL1        0.0907
     13 C          -5.0395  -16.4499   24.3176 C.2     1  UNL1       -0.0148
     14 C          -6.5313  -16.2943   24.2972 C.3     1  UNL1        0.0783
     15 C          -4.3708  -17.3953   23.3642 C.3     1  UNL1        0.0405
     16 C          -5.1940  -18.1852   22.3903 C.3     1  UNL1        0.0653
     17 C          -3.0335  -19.2862   21.4573 C.3     1  UNL1        0.0721
     18 C          -2.5161  -17.7559   19.4225 C.3     1  UNL1        0.0015
     19 C          -2.2317  -18.9913   20.2244 C.3     1  UNL1        0.0173
     20 C          -7.6633  -20.5549   19.4685 C.3     1  UNL1        0.0590
     21 S          -8.8111  -19.9037   18.7552 S.3     1  UNL1       -0.1393
     22 C         -10.1250  -19.7240   19.4562 C.3     1  UNL1        0.0692
@<TRIPOS>BOND
     1    18    19    1
     2    19    17    1
     3    17     1    1
     4     1     2    1
     5     2     3    1
     6     3    20    1
     7    20    21    1
     8    21    22    1
     9     3     4    1
    10     5     4    1
    11     5     6    1
    12     6     7    2
    13     7     8    1
    14     8     9    2
    15     9    10    1
    16    10    11    2
    17    11    12    1
    18    12    13    2
    19    13    14    1
    20    13    15    1
    21    16    15    1
    22    16     1    1
    23    16     5    1
    24    14     6    1
    25    14    10    1
@<TRIPOS>MOLECULE
*****
 22 25 0 0 0
SMALL
GASTEIGER

@<TRIPOS>ATOM
      1 N          -8.1158  -18.4862   21.1206 N.3     1  UNL1       -0.2733
      2 C          -9.5892  -18.6943   20.9318 C.3     1  UNL1        0.0729
      3 C         -10.5573  -18.1723   21.9519 C.3     1  UNL1        0.0271
      4 C         -10.0518  -17.4422   23.1608 C.3     1  UNL1        0.0077
      5 C          -8.5784  -17.2341   23.3496 C.3     1  UNL1        0.0340
      6 C          -8.0730  -16.5039   24.5586 C.2     1  UNL1       -0.0342
      7 C          -9.0410  -15.9820   25.5786 C.2     1  UNL1       -0.0078
      8 C          -8.5356  -15.2519   26.7875 C.2     1  UNL1        0.0006
      9 C          -7.0621  -15.0437   26.9764 C.2     1  UNL1        0.0153
     10 C          -6.0941  -15.5657   25.9564 C.2     1  UNL1        0.0662
     11 N          -4.6103  -15.5911   25.7383 N.2     1  UNL1       -0.2482
     12 C          -4.3432  -16.3140   24.4514 C.2     1  UNL1        0.0907
     13 C          -5.6315  -16.8178   23.7274 C.2     1  UNL1       -0.0148
     14 C          -6.5996  -16.2958   24.7475 C.3     1  UNL1        0.0783
     15 C          -6.1370  -17.5478   22.5185 C.3     1  UNL1        0.0405
     16 C          -7.6104  -17.7560   22.3296 C.3     1  UNL1        0.0653
     17 C          -7.1478  -19.0081   20.1006 C.3     1  UNL1        0.0721
     18 C          -5.0076  -20.4668   20.3053 C.3     1  UNL1        0.0015
     19 C          -6.5029  -20.3483   20.2955 C.3     1  UNL1        0.0173
     20 C         -12.0307  -18.3805   21.7630 C.3     1  UNL1        0.0590
     21 S         -13.0108  -17.5196   22.5036 S.3     1  UNL1       -0.1393
     22 C         -13.6318  -18.0145   23.7761 C.3     1  UNL1        0.0692
@<TRIPOS>BOND
     1    18    19    1
     2    19    17    1
     3    17     1    1
     4     1     2    1
     5     2     3    1
     6     3    20    1
     7    20    21    1
     8    21    22    1
     9     3     4    1
    10     5     4    1
    11     5     6    1
    12     6     7    2
    13     7     8    1
    14     8     9    2
    15     9    10    1
    16    10    11    2
    17    11    12    1
    18    12    13    2
    19    13    14    1
    20    13    15    1
    21    16    15    1
    22    16     1    1
    23    16     5    1
    24    14     6    1
    25    14    10    1
