@<TRIPOS>MOLECULE
*****
 19 21 0 0 0
SMALL
GASTEIGER

@<TRIPOS>ATOM
      1 C         -10.1337  -18.4001   22.0495 C.3     1  UNL1        0.0883
      2 C         -11.2388  -18.9016   21.1677 C.3     1  UNL1        0.0885
      3 N         -12.3285  -17.9695   20.7275 N.3     1  UNL1       -0.2947
      4 C         -12.3132  -16.5361   21.1692 C.3     1  UNL1        0.0903
      5 C         -11.2082  -16.0347   22.0510 C.3     1  UNL1        0.1076
      6 N         -10.1185  -16.9668   22.4912 N.pl3   1  UNL1       -0.3093
      7 H         -13.2079  -18.3692   21.0550 H       1  UNL1        0.1233
      8 C          -9.0135  -16.4653   23.3730 C.2     1  UNL1        0.0295
      9 C          -7.7263  -15.9913   22.7663 C.2     1  UNL1        0.0120
     10 C          -6.6213  -15.4898   23.6482 C.2     1  UNL1        0.0216
     11 C          -6.8037  -15.4625   25.1368 C.2     1  UNL1        0.1008
     12 N          -5.8993  -15.0256   26.2509 N.2     1  UNL1       -0.1482
     13 N          -6.6276  -15.2297   27.5462 N.2     1  UNL1       -0.1467
     14 C          -7.9822  -15.7927   27.2326 C.2     1  UNL1        0.1198
     15 C          -8.0910  -15.9366   25.7435 C.2     1  UNL1        0.0238
     16 C          -9.1959  -16.4380   24.8616 C.3     1  UNL1        0.0705
     17 C          -9.0440  -19.3322   22.4896 C.3     1  UNL1        0.0211
     18 C         -10.3644  -19.9527   24.6395 C.3     1  UNL1        0.0001
     19 C          -9.2623  -20.2402   23.6635 C.3     1  UNL1        0.0017
@<TRIPOS>BOND
     1    18    19    1
     2    19    17    1
     3     1    17    1
     4     1     2    1
     5     2     3    1
     6     3     4    1
     7     4     5    1
     8     5     6    1
     9     6     8    1
    10     8     9    2
    11     9    10    1
    12    10    11    2
    13    11    12    1
    14    12    13    2
    15    13    14    1
    16    14    15    2
    17    15    16    1
    18     6     1    1
    19    16     8    1
    20    15    11    1
    21     3     7    1
@<TRIPOS>MOLECULE
*****
 19 21 0 0 0
SMALL
GASTEIGER

@<TRIPOS>ATOM
      1 C          -9.7319  -18.3298   21.4114 C.3     1  UNL1        0.0883
      2 C         -10.5809  -18.7455   20.2466 C.3     1  UNL1        0.0885
      3 N         -11.5198  -17.7615   19.6140 N.3     1  UNL1       -0.2947
      4 C         -11.6098  -16.3620   20.1462 C.3     1  UNL1        0.0903
      5 C         -10.7609  -15.9464   21.3109 C.3     1  UNL1        0.1076
      6 N          -9.8220  -16.9304   21.9435 N.pl3   1  UNL1       -0.3093
      7 H         -12.4553  -18.1625   19.6805 H       1  UNL1        0.1233
      8 C          -8.9730  -16.5147   23.1083 C.2     1  UNL1        0.0295
      9 C          -9.5384  -16.5454   24.4972 C.2     1  UNL1        0.0120
     10 C          -8.6895  -16.1298   25.6620 C.2     1  UNL1        0.0216
     11 C          -7.2751  -15.6835   25.4377 C.2     1  UNL1        0.1008
     12 N          -6.2071  -15.2197   26.3833 N.2     1  UNL1       -0.1482
     13 N          -4.9816  -14.9024   25.5787 N.2     1  UNL1       -0.1467
     14 C          -5.2922  -15.1701   24.1358 C.2     1  UNL1        0.1198
     15 C          -6.7097  -15.6528   24.0486 C.2     1  UNL1        0.0238
     16 C          -7.5586  -16.0685   22.8839 C.3     1  UNL1        0.0705
     17 C          -8.7930  -19.3138   22.0440 C.3     1  UNL1        0.0211
     18 C         -10.6079  -20.1219   23.7183 C.3     1  UNL1        0.0001
     19 C          -9.1646  -19.9824   23.3343 C.3     1  UNL1        0.0017
@<TRIPOS>BOND
     1    18    19    1
     2    19    17    1
     3     1    17    1
     4     1     2    1
     5     2     3    1
     6     3     4    1
     7     4     5    1
     8     5     6    1
     9     6     8    1
    10     8     9    2
    11     9    10    1
    12    10    11    2
    13    11    12    1
    14    12    13    2
    15    13    14    1
    16    14    15    2
    17    15    16    1
    18     6     1    1
    19    16     8    1
    20    15    11    1
    21     3     7    1
@<TRIPOS>MOLECULE
*****
 19 21 0 0 0
SMALL
GASTEIGER

@<TRIPOS>ATOM
      1 C         -11.0934  -18.7210   22.6100 C.3     1  UNL1        0.0883
      2 C         -12.4018  -18.1279   23.0418 C.3     1  UNL1        0.0885
      3 N         -12.7682  -16.7349   22.6231 N.3     1  UNL1       -0.2947
      4 C         -11.8263  -15.9351   21.7727 C.3     1  UNL1        0.0903
      5 C         -10.5180  -16.5283   21.3410 C.3     1  UNL1        0.1076
      6 N         -10.1515  -17.9213   21.7597 N.pl3   1  UNL1       -0.3093
      7 H         -12.9187  -16.2003   23.4786 H       1  UNL1        0.1233
      8 C          -8.8431  -18.5144   21.3279 C.2     1  UNL1        0.0295
      9 C          -8.7614  -19.3048   20.0558 C.2     1  UNL1        0.0120
     10 C          -7.4530  -19.8980   19.6240 C.2     1  UNL1        0.0216
     11 C          -6.2264  -19.7006   20.4645 C.2     1  UNL1        0.1008
     12 N          -4.8092  -20.1622   20.2959 N.2     1  UNL1       -0.1482
     13 N          -4.0151  -19.6571   21.4638 N.2     1  UNL1       -0.1467
     14 C          -4.9415  -18.8833   22.3544 C.2     1  UNL1        0.1198
     15 C          -6.3082  -18.9102   21.7368 C.2     1  UNL1        0.0238
     16 C          -7.6165  -18.3171   22.1684 C.3     1  UNL1        0.0705
     17 C         -10.7269  -20.1140   23.0287 C.3     1  UNL1        0.0211
     18 C          -9.8386  -19.2038   25.2943 C.3     1  UNL1        0.0001
     19 C         -10.0517  -20.3477   24.3476 C.3     1  UNL1        0.0017
@<TRIPOS>BOND
     1    18    19    1
     2    19    17    1
     3     1    17    1
     4     1     2    1
     5     2     3    1
     6     3     4    1
     7     4     5    1
     8     5     6    1
     9     6     8    1
    10     8     9    2
    11     9    10    1
    12    10    11    2
    13    11    12    1
    14    12    13    2
    15    13    14    1
    16    14    15    2
    17    15    16    1
    18     6     1    1
    19    16     8    1
    20    15    11    1
    21     3     7    1
@<TRIPOS>MOLECULE
*****
 19 21 0 0 0
SMALL
GASTEIGER

@<TRIPOS>ATOM
      1 C          -9.0109  -19.4940   20.4182 C.3     1  UNL1        0.0883
      2 C         -10.4868  -19.3129   20.6155 C.3     1  UNL1        0.0885
      3 N         -11.0392  -19.1051   21.9945 N.3     1  UNL1       -0.2947
      4 C         -10.1157  -19.0784   23.1762 C.3     1  UNL1        0.0903
      5 C          -8.6398  -19.2596   22.9789 C.3     1  UNL1        0.1076
      6 N          -8.0874  -19.4674   21.5999 N.pl3   1  UNL1       -0.3093
      7 H         -11.7079  -19.8573   22.1603 H       1  UNL1        0.1233
      8 C          -6.6115  -19.6485   21.4026 C.2     1  UNL1        0.0295
      9 C          -6.1045  -20.6860   20.4453 C.2     1  UNL1        0.0120
     10 C          -4.6285  -20.8671   20.2481 C.2     1  UNL1        0.0216
     11 C          -3.6597  -20.0106   21.0082 C.2     1  UNL1        0.1008
     12 N          -2.1606  -19.9604   21.0214 N.2     1  UNL1       -0.1482
     13 N          -1.7411  -18.8919   21.9869 N.2     1  UNL1       -0.1467
     14 C          -2.9810  -18.2817   22.5704 C.2     1  UNL1        0.1198
     15 C          -4.1667  -18.9731   21.9655 C.2     1  UNL1        0.0238
     16 C          -5.6426  -18.7920   22.1627 C.3     1  UNL1        0.0705
     17 C          -8.4585  -19.7018   19.0392 C.3     1  UNL1        0.0211
     18 C          -8.5963  -21.9787   17.7954 C.3     1  UNL1        0.0001
     19 C          -9.1596  -20.6181   18.0805 C.3     1  UNL1        0.0017
@<TRIPOS>BOND
     1    18    19    1
     2    19    17    1
     3     1    17    1
     4     1     2    1
     5     2     3    1
     6     3     4    1
     7     4     5    1
     8     5     6    1
     9     6     8    1
    10     8     9    2
    11     9    10    1
    12    10    11    2
    13    11    12    1
    14    12    13    2
    15    13    14    1
    16    14    15    2
    17    15    16    1
    18     6     1    1
    19    16     8    1
    20    15    11    1
    21     3     7    1
@<TRIPOS>MOLECULE
*****
 19 21 0 0 0
SMALL
GASTEIGER

@<TRIPOS>ATOM
      1 C         -11.1050  -17.6713   23.0127 C.3     1  UNL1        0.0883
      2 C         -12.5285  -17.7495   22.5462 C.3     1  UNL1        0.0885
      3 N         -12.9183  -17.1566   21.2247 N.3     1  UNL1       -0.2947
      4 C         -11.8846  -16.4855   20.3696 C.3     1  UNL1        0.0903
      5 C         -10.4612  -16.4073   20.8361 C.3     1  UNL1        0.1076
      6 N         -10.0714  -17.0002   22.1576 N.pl3   1  UNL1       -0.3093
      7 H         -13.6396  -16.4610   21.4153 H       1  UNL1        0.1233
      8 C          -8.6478  -16.9220   22.6241 C.2     1  UNL1        0.0295
      9 C          -8.2207  -15.8201   23.5478 C.2     1  UNL1        0.0120
     10 C          -6.7972  -15.7419   24.0142 C.2     1  UNL1        0.0216
     11 C          -5.8008  -16.7657   23.5569 C.2     1  UNL1        0.1008
     12 N          -4.3401  -16.9443   23.8473 N.2     1  UNL1       -0.1482
     13 N          -3.8645  -18.1567   23.1030 N.2     1  UNL1       -0.1467
     14 C          -5.0313  -18.7273   22.3526 C.2     1  UNL1        0.1198
     15 C          -6.2280  -17.8676   22.6331 C.2     1  UNL1        0.0238
     16 C          -7.6515  -17.9458   22.1667 C.3     1  UNL1        0.0705
     17 C         -10.7152  -18.2642   24.3342 C.3     1  UNL1        0.0211
     18 C          -9.4356  -20.5018   24.0086 C.3     1  UNL1        0.0001
     19 C         -10.6411  -19.7537   24.4955 C.3     1  UNL1        0.0017
@<TRIPOS>BOND
     1    18    19    1
     2    19    17    1
     3     1    17    1
     4     1     2    1
     5     2     3    1
     6     3     4    1
     7     4     5    1
     8     5     6    1
     9     6     8    1
    10     8     9    2
    11     9    10    1
    12    10    11    2
    13    11    12    1
    14    12    13    2
    15    13    14    1
    16    14    15    2
    17    15    16    1
    18     6     1    1
    19    16     8    1
    20    15    11    1
    21     3     7    1
@<TRIPOS>MOLECULE
*****
 19 21 0 0 0
SMALL
GASTEIGER

@<TRIPOS>ATOM
      1 C          -8.8146  -18.0583   23.3278 C.3     1  UNL1        0.0883
      2 C          -9.8311  -17.2188   24.0434 C.3     1  UNL1        0.0885
      3 N          -9.5217  -15.7897   24.3782 N.3     1  UNL1       -0.2947
      4 C          -8.1960  -15.2002   23.9974 C.3     1  UNL1        0.0903
      5 C          -7.1796  -16.0398   23.2818 C.3     1  UNL1        0.1076
      6 N          -7.4890  -17.4689   22.9470 N.pl3   1  UNL1       -0.3093
      7 H          -9.6038  -15.7002   25.3909 H       1  UNL1        0.1233
      8 C          -6.4725  -18.3084   22.2313 C.2     1  UNL1        0.0295
      9 C          -6.8933  -19.1834   21.0881 C.2     1  UNL1        0.0120
     10 C          -5.8769  -20.0229   20.3724 C.2     1  UNL1        0.0216
     11 C          -4.4396  -19.9874   20.8002 C.2     1  UNL1        0.1008
     12 N          -3.2223  -20.6993   20.2889 N.2     1  UNL1       -0.1482
     13 N          -2.0492  -20.2642   21.1162 N.2     1  UNL1       -0.1467
     14 C          -2.5415  -19.2835   22.1389 C.2     1  UNL1        0.1198
     15 C          -4.0188  -19.1124   21.9436 C.2     1  UNL1        0.0238
     16 C          -5.0353  -18.2729   22.6592 C.3     1  UNL1        0.0705
     17 C          -9.1240  -19.4874   22.9930 C.3     1  UNL1        0.0211
     18 C         -10.9784  -19.9040   21.2216 C.3     1  UNL1        0.0001
     19 C         -10.5279  -19.8910   22.6523 C.3     1  UNL1        0.0017
@<TRIPOS>BOND
     1    18    19    1
     2    19    17    1
     3     1    17    1
     4     1     2    1
     5     2     3    1
     6     3     4    1
     7     4     5    1
     8     5     6    1
     9     6     8    1
    10     8     9    2
    11     9    10    1
    12    10    11    2
    13    11    12    1
    14    12    13    2
    15    13    14    1
    16    14    15    2
    17    15    16    1
    18     6     1    1
    19    16     8    1
    20    15    11    1
    21     3     7    1
@<TRIPOS>MOLECULE
*****
 19 21 0 0 0
SMALL
GASTEIGER

@<TRIPOS>ATOM
      1 C          -6.1378  -18.5015   22.3508 C.3     1  UNL1        0.0883
      2 C          -4.6511  -18.4182   22.5324 C.3     1  UNL1        0.0885
      3 N          -4.0519  -17.2747   23.2962 N.3     1  UNL1       -0.2947
      4 C          -4.9392  -16.2146   23.8783 C.3     1  UNL1        0.0903
      5 C          -6.4258  -16.2980   23.6966 C.3     1  UNL1        0.1076
      6 N          -7.0251  -17.4414   22.9328 N.pl3   1  UNL1       -0.3093
      7 H          -3.4067  -16.8032   22.6623 H       1  UNL1        0.1233
      8 C          -8.5118  -17.5248   22.7512 C.2     1  UNL1        0.0295
      9 C          -9.3437  -18.3059   23.7245 C.2     1  UNL1        0.0120
     10 C         -10.8304  -18.3892   23.5429 C.2     1  UNL1        0.0216
     11 C         -11.4850  -17.6913   22.3878 C.2     1  UNL1        0.1008
     12 N         -12.9179  -17.5952   21.9546 N.2     1  UNL1       -0.1482
     13 N         -12.9715  -16.7546   20.7134 N.2     1  UNL1       -0.1467
     14 C         -11.5717  -16.3312   20.3795 C.2     1  UNL1        0.1198
     15 C         -10.6530  -16.9101   21.4144 C.2     1  UNL1        0.0238
     16 C          -9.1664  -16.8268   21.5961 C.3     1  UNL1        0.0705
     17 C          -6.7371  -19.6449   21.5870 C.3     1  UNL1        0.0211
     18 C          -8.2150  -19.6308   19.4502 C.3     1  UNL1        0.0001
     19 C          -6.8618  -19.5665   20.0942 C.3     1  UNL1        0.0017
@<TRIPOS>BOND
     1    18    19    1
     2    19    17    1
     3     1    17    1
     4     1     2    1
     5     2     3    1
     6     3     4    1
     7     4     5    1
     8     5     6    1
     9     6     8    1
    10     8     9    2
    11     9    10    1
    12    10    11    2
    13    11    12    1
    14    12    13    2
    15    13    14    1
    16    14    15    2
    17    15    16    1
    18     6     1    1
    19    16     8    1
    20    15    11    1
    21     3     7    1
@<TRIPOS>MOLECULE
*****
 19 21 0 0 0
SMALL
GASTEIGER

@<TRIPOS>ATOM
      1 C          -6.3233  -18.1179   22.5032 C.3     1  UNL1        0.0883
      2 C          -4.8266  -18.0970   22.6016 C.3     1  UNL1        0.0885
      3 N          -4.1358  -16.9526   23.2821 N.3     1  UNL1       -0.2947
      4 C          -4.9415  -15.8292   23.8641 C.3     1  UNL1        0.0903
      5 C          -6.4381  -15.8502   23.7657 C.3     1  UNL1        0.1076
      6 N          -7.1290  -16.9946   23.0852 N.pl3   1  UNL1       -0.3093
      7 H          -3.5062  -16.5382   22.5949 H       1  UNL1        0.1233
      8 C          -8.6257  -17.0155   22.9868 C.2     1  UNL1        0.0295
      9 C          -9.3226  -16.1585   21.9721 C.2     1  UNL1        0.0120
     10 C         -10.8193  -16.1794   21.8736 C.2     1  UNL1        0.0216
     11 C         -11.6189  -17.0574   22.7900 C.2     1  UNL1        0.1008
     12 N         -13.0952  -17.2862   22.9255 N.2     1  UNL1       -0.1482
     13 N         -13.3105  -18.2846   24.0241 N.2     1  UNL1       -0.1467
     14 C         -11.9674  -18.6729   24.5674 C.2     1  UNL1        0.1198
     15 C         -10.9219  -17.9145   23.8047 C.2     1  UNL1        0.0238
     16 C          -9.4253  -17.8935   23.9031 C.3     1  UNL1        0.0705
     17 C          -7.0142  -19.2623   21.8227 C.3     1  UNL1        0.0211
     18 C          -5.6702  -20.8551   20.2712 C.3     1  UNL1        0.0001
     19 C          -6.2863  -20.5559   21.6057 C.3     1  UNL1        0.0017
@<TRIPOS>BOND
     1    18    19    1
     2    19    17    1
     3     1    17    1
     4     1     2    1
     5     2     3    1
     6     3     4    1
     7     4     5    1
     8     5     6    1
     9     6     8    1
    10     8     9    2
    11     9    10    1
    12    10    11    2
    13    11    12    1
    14    12    13    2
    15    13    14    1
    16    14    15    2
    17    15    16    1
    18     6     1    1
    19    16     8    1
    20    15    11    1
    21     3     7    1
@<TRIPOS>MOLECULE
*****
 19 21 0 0 0
SMALL
GASTEIGER

@<TRIPOS>ATOM
      1 C          -6.4299  -15.8139   24.7593 C.3     1  UNL1        0.0883
      2 C          -5.7857  -15.1912   25.9624 C.3     1  UNL1        0.0885
      3 N          -6.5915  -14.9511   27.2046 N.3     1  UNL1       -0.2947
      4 C          -8.0413  -15.3338   27.2437 C.3     1  UNL1        0.0903
      5 C          -8.6854  -15.9564   26.0406 C.3     1  UNL1        0.1076
      6 N          -7.8797  -16.1964   24.7984 N.pl3   1  UNL1       -0.3093
      7 H          -6.5458  -13.9504   27.3964 H       1  UNL1        0.1233
      8 C          -8.5238  -16.8191   23.5953 C.2     1  UNL1        0.0295
      9 C          -8.0793  -18.1712   23.1220 C.2     1  UNL1        0.0120
     10 C          -8.7235  -18.7939   21.9189 C.2     1  UNL1        0.0216
     11 C          -9.8122  -18.0644   21.1892 C.2     1  UNL1        0.1008
     12 N         -10.6264  -18.4235   19.9817 N.2     1  UNL1       -0.1482
     13 N         -11.5740  -17.2933   19.7087 N.2     1  UNL1       -0.1467
     14 C         -11.3456  -16.2356   20.7476 C.2     1  UNL1        0.1198
     15 C         -10.2567  -16.7122   21.6626 C.2     1  UNL1        0.0238
     16 C          -9.6125  -16.0896   22.8656 C.3     1  UNL1        0.0705
     17 C          -5.6241  -16.0539   23.5171 C.3     1  UNL1        0.0211
     18 C          -4.3492  -18.2119   22.8331 C.3     1  UNL1        0.0001
     19 C          -4.3931  -16.9090   23.5751 C.3     1  UNL1        0.0017
@<TRIPOS>BOND
     1    18    19    1
     2    19    17    1
     3     1    17    1
     4     1     2    1
     5     2     3    1
     6     3     4    1
     7     4     5    1
     8     5     6    1
     9     6     8    1
    10     8     9    2
    11     9    10    1
    12    10    11    2
    13    11    12    1
    14    12    13    2
    15    13    14    1
    16    14    15    2
    17    15    16    1
    18     6     1    1
    19    16     8    1
    20    15    11    1
    21     3     7    1
