@<TRIPOS>MOLECULE
*****
 22 24 0 0 0
SMALL
GASTEIGER

@<TRIPOS>ATOM
      1 C          -6.7825  -19.1153   20.6561 C.ar    1  UNL1        0.0070
      2 C          -7.4982  -19.7612   19.5070 C.ar    1  UNL1        0.0354
      3 S          -8.9730  -19.6397   19.7522 S.2     1  UNL1       -0.0864
      4 C          -9.1688  -18.9188   21.0530 C.ar    1  UNL1        0.0296
      5 C          -7.8150  -18.5947   21.6116 C.ar    1  UNL1        0.0070
      6 C          -2.0872  -18.1762   18.6382 C.3     1  UNL1        0.0342
      7 C          -2.9477  -18.5393   19.8119 C.ar    1  UNL1        0.0118
      8 C          -4.4348  -18.6458   19.6472 C.ar    1  UNL1       -0.0013
      9 C          -5.2953  -19.0088   20.8209 C.ar    1  UNL1        0.0004
     10 C          -4.6688  -19.2653   22.1594 C.ar    1  UNL1        0.0031
     11 C          -3.1817  -19.1587   22.3242 C.ar    1  UNL1        0.0363
     12 C          -2.3212  -18.7957   21.1504 C.ar    1  UNL1        0.1296
     13 O          -0.8340  -18.6892   21.3153 O.3     1  UNL1       -0.5058
     14 H          -0.4426  -18.8494   22.1514 H       1  UNL1        0.2922
     15 C         -10.4870  -18.5812   21.6842 C.ar    1  UNL1        0.0090
     16 C         -11.5727  -17.9518   20.8626 C.ar    1  UNL1        0.0007
     17 C         -12.8908  -17.6142   21.4938 C.ar    1  UNL1        0.0031
     18 C         -13.1233  -17.9060   22.9467 C.ar    1  UNL1        0.0366
     19 C         -12.0376  -18.5355   23.7683 C.ar    1  UNL1        0.1337
     20 O         -12.2701  -18.8273   25.2212 O.3     1  UNL1       -0.5055
     21 C         -10.7195  -18.8731   23.1371 C.ar    1  UNL1        0.0371
     22 H         -13.0935  -18.6165   25.6155 H       1  UNL1        0.2922
@<TRIPOS>BOND
     1     6     7    1
     2     7     8   ar
     3     8     9   ar
     4     9     1    1
     5     1     2   ar
     6     2     3   ar
     7     3     4   ar
     8     4    15    1
     9    15    16   ar
    10    16    17   ar
    11    17    18   ar
    12    18    19   ar
    13    19    20    1
    14    19    21   ar
    15     4     5   ar
    16     9    10   ar
    17    10    11   ar
    18    11    12   ar
    19    12    13    1
    20    12     7   ar
    21     5     1   ar
    22    21    15   ar
    23    20    22    1
    24    13    14    1
@<TRIPOS>MOLECULE
*****
 22 24 0 0 0
SMALL
GASTEIGER

@<TRIPOS>ATOM
      1 C          -7.9873  -19.1859   21.6696 C.ar    1  UNL1        0.0070
      2 C          -7.9908  -19.6386   20.2395 C.ar    1  UNL1        0.0354
      3 S          -6.5810  -19.5777   19.7306 S.2     1  UNL1       -0.0864
      4 C          -5.7062  -19.0875   20.8462 C.ar    1  UNL1        0.0296
      5 C          -6.5754  -18.8454   22.0445 C.ar    1  UNL1        0.0070
      6 C         -12.5957  -17.0761   22.8145 C.3     1  UNL1        0.0342
      7 C         -11.4896  -18.0357   23.1396 C.ar    1  UNL1        0.0118
      8 C         -10.2915  -18.1310   22.2421 C.ar    1  UNL1       -0.0013
      9 C          -9.1854  -19.0906   22.5672 C.ar    1  UNL1        0.0004
     10 C          -9.2772  -19.9548   23.7897 C.ar    1  UNL1        0.0031
     11 C         -10.4753  -19.8594   24.6872 C.ar    1  UNL1        0.0363
     12 C         -11.5814  -18.8998   24.3622 C.ar    1  UNL1        0.1296
     13 O         -12.7795  -18.8045   25.2598 O.3     1  UNL1       -0.5058
     14 H         -12.8369  -19.3443   26.0235 H       1  UNL1        0.2922
     15 C          -4.2229  -18.8765   20.7758 C.ar    1  UNL1        0.0090
     16 C          -3.3820  -19.0459   22.0063 C.ar    1  UNL1        0.0007
     17 C          -1.8986  -18.8349   21.9359 C.ar    1  UNL1        0.0031
     18 C          -1.2561  -18.4544   20.6350 C.ar    1  UNL1        0.0366
     19 C          -2.0969  -18.2850   19.4044 C.ar    1  UNL1        0.1337
     20 O          -1.4544  -17.9046   18.1035 O.3     1  UNL1       -0.5055
     21 C          -3.5803  -18.4960   19.4749 C.ar    1  UNL1        0.0371
     22 H          -0.5278  -17.7727   18.0595 H       1  UNL1        0.2922
@<TRIPOS>BOND
     1     6     7    1
     2     7     8   ar
     3     8     9   ar
     4     9     1    1
     5     1     2   ar
     6     2     3   ar
     7     3     4   ar
     8     4    15    1
     9    15    16   ar
    10    16    17   ar
    11    17    18   ar
    12    18    19   ar
    13    19    20    1
    14    19    21   ar
    15     4     5   ar
    16     9    10   ar
    17    10    11   ar
    18    11    12   ar
    19    12    13    1
    20    12     7   ar
    21     5     1   ar
    22    21    15   ar
    23    20    22    1
    24    13    14    1
@<TRIPOS>MOLECULE
*****
 22 24 0 0 0
SMALL
GASTEIGER

@<TRIPOS>ATOM
      1 C          -6.4534  -19.1234   20.5640 C.ar    1  UNL1        0.0070
      2 C          -7.1361  -20.0167   19.5710 C.ar    1  UNL1        0.0354
      3 S          -8.6172  -19.8734   19.7603 S.2     1  UNL1       -0.0864
      4 C          -8.8499  -18.8916   20.8702 C.ar    1  UNL1        0.0296
      5 C          -7.5126  -18.4281   21.3669 C.ar    1  UNL1        0.0070
      6 C          -2.3555  -17.9505   23.5358 C.3     1  UNL1        0.0342
      7 C          -2.9228  -18.3686   22.2116 C.ar    1  UNL1        0.0118
      8 C          -4.4044  -18.5370   22.0499 C.ar    1  UNL1       -0.0013
      9 C          -4.9717  -18.9551   20.7257 C.ar    1  UNL1        0.0004
     10 C          -4.0572  -19.2047   19.5632 C.ar    1  UNL1        0.0031
     11 C          -2.5755  -19.0364   19.7250 C.ar    1  UNL1        0.0363
     12 C          -2.0083  -18.6183   21.0492 C.ar    1  UNL1        0.1296
     13 O          -0.5265  -18.4499   21.2109 O.3     1  UNL1       -0.5058
     14 H           0.0447  -18.6059   20.4847 H       1  UNL1        0.2922
     15 C         -10.1854  -18.4507   21.3918 C.ar    1  UNL1        0.0090
     16 C         -10.6782  -18.9572   22.7149 C.ar    1  UNL1        0.0007
     17 C         -12.0137  -18.5163   23.2365 C.ar    1  UNL1        0.0031
     18 C         -12.8564  -17.5689   22.4350 C.ar    1  UNL1        0.0366
     19 C         -12.3635  -17.0624   21.1119 C.ar    1  UNL1        0.1337
     20 O         -13.2062  -16.1150   20.3104 O.3     1  UNL1       -0.5055
     21 C         -11.0281  -17.5033   20.5903 C.ar    1  UNL1        0.0371
     22 H         -14.0405  -15.8396   20.6363 H       1  UNL1        0.2922
@<TRIPOS>BOND
     1     6     7    1
     2     7     8   ar
     3     8     9   ar
     4     9     1    1
     5     1     2   ar
     6     2     3   ar
     7     3     4   ar
     8     4    15    1
     9    15    16   ar
    10    16    17   ar
    11    17    18   ar
    12    18    19   ar
    13    19    20    1
    14    19    21   ar
    15     4     5   ar
    16     9    10   ar
    17    10    11   ar
    18    11    12   ar
    19    12    13    1
    20    12     7   ar
    21     5     1   ar
    22    21    15   ar
    23    20    22    1
    24    13    14    1
@<TRIPOS>MOLECULE
*****
 22 24 0 0 0
SMALL
GASTEIGER

@<TRIPOS>ATOM
      1 C         -14.1598   -6.8957   18.7674 C.ar    1  UNL1        0.0070
      2 C         -13.8574   -8.2812   18.2785 C.ar    1  UNL1        0.0354
      3 S         -15.1136   -9.0942   18.3834 S.2     1  UNL1       -0.0864
      4 C         -16.1924   -8.2111   18.9371 C.ar    1  UNL1        0.0296
      5 C         -15.6029   -6.8524   19.1744 C.ar    1  UNL1        0.0070
      6 C          -9.4877   -4.8891   17.6972 C.3     1  UNL1        0.0342
      7 C         -10.8534   -4.7506   18.3019 C.ar    1  UNL1        0.0118
      8 C         -11.8237   -5.8923   18.2323 C.ar    1  UNL1       -0.0013
      9 C         -13.1894   -5.7539   18.8370 C.ar    1  UNL1        0.0004
     10 C         -13.5848   -4.4737   19.5113 C.ar    1  UNL1        0.0031
     11 C         -12.6145   -3.3320   19.5809 C.ar    1  UNL1        0.0363
     12 C         -11.2488   -3.4704   18.9762 C.ar    1  UNL1        0.1296
     13 O         -10.2785   -2.3286   19.0458 O.3     1  UNL1       -0.5058
     14 H         -10.5254   -1.5289   19.4670 H       1  UNL1        0.2922
     15 C         -17.6115   -8.6158   19.2063 C.ar    1  UNL1        0.0090
     16 C         -18.4210   -7.8763   20.2299 C.ar    1  UNL1        0.0007
     17 C         -19.8400   -8.2809   20.4990 C.ar    1  UNL1        0.0031
     18 C         -20.4496   -9.4251   19.7445 C.ar    1  UNL1        0.0366
     19 C         -19.6401  -10.1647   18.7209 C.ar    1  UNL1        0.1337
     20 O         -20.2497  -11.3089   17.9665 O.3     1  UNL1       -0.5055
     21 C         -18.2211   -9.7600   18.4518 C.ar    1  UNL1        0.0371
     22 H         -21.1362  -11.5617   18.1346 H       1  UNL1        0.2922
@<TRIPOS>BOND
     1     6     7    1
     2     7     8   ar
     3     8     9   ar
     4     9     1    1
     5     1     2   ar
     6     2     3   ar
     7     3     4   ar
     8     4    15    1
     9    15    16   ar
    10    16    17   ar
    11    17    18   ar
    12    18    19   ar
    13    19    20    1
    14    19    21   ar
    15     4     5   ar
    16     9    10   ar
    17    10    11   ar
    18    11    12   ar
    19    12    13    1
    20    12     7   ar
    21     5     1   ar
    22    21    15   ar
    23    20    22    1
    24    13    14    1
@<TRIPOS>MOLECULE
*****
 22 24 0 0 0
SMALL
GASTEIGER

@<TRIPOS>ATOM
      1 C         -16.2263   -6.7103   19.1313 C.ar    1  UNL1        0.0070
      2 C         -16.4736   -5.3105   19.6100 C.ar    1  UNL1        0.0354
      3 S         -15.1604   -4.5857   19.6214 S.2     1  UNL1       -0.0864
      4 C         -14.1014   -5.5377   19.1498 C.ar    1  UNL1        0.0296
      5 C         -14.7602   -6.8508   18.8469 C.ar    1  UNL1        0.0070
      6 C         -20.4605   -9.1794   20.8561 C.3     1  UNL1        0.0342
      7 C         -19.3802   -9.0162   19.8284 C.ar    1  UNL1        0.0118
      8 C         -18.3434   -7.9449   19.9937 C.ar    1  UNL1       -0.0013
      9 C         -17.2631   -7.7818   18.9660 C.ar    1  UNL1        0.0004
     10 C         -17.2194   -8.6899   17.7730 C.ar    1  UNL1        0.0031
     11 C         -18.2562   -9.7613   17.6077 C.ar    1  UNL1        0.0363
     12 C         -19.3365   -9.9244   18.6354 C.ar    1  UNL1        0.1296
     13 O         -20.3733  -10.9959   18.4701 O.3     1  UNL1       -0.5058
     14 H         -20.3461  -11.5632   17.7249 H       1  UNL1        0.2922
     15 C         -12.6402   -5.2305   19.0063 C.ar    1  UNL1        0.0090
     16 C         -11.6309   -6.3382   19.0725 C.ar    1  UNL1        0.0007
     17 C         -10.1698   -6.0310   18.9290 C.ar    1  UNL1        0.0031
     18 C          -9.7179   -4.6161   18.7193 C.ar    1  UNL1        0.0366
     19 C         -10.7272   -3.5084   18.6531 C.ar    1  UNL1        0.1337
     20 O         -10.2753   -2.0935   18.4434 O.3     1  UNL1       -0.5055
     21 C         -12.1883   -3.8156   18.7966 C.ar    1  UNL1        0.0371
     22 H          -9.3625   -1.9016   18.3538 H       1  UNL1        0.2922
@<TRIPOS>BOND
     1     6     7    1
     2     7     8   ar
     3     8     9   ar
     4     9     1    1
     5     1     2   ar
     6     2     3   ar
     7     3     4   ar
     8     4    15    1
     9    15    16   ar
    10    16    17   ar
    11    17    18   ar
    12    18    19   ar
    13    19    20    1
    14    19    21   ar
    15     4     5   ar
    16     9    10   ar
    17    10    11   ar
    18    11    12   ar
    19    12    13    1
    20    12     7   ar
    21     5     1   ar
    22    21    15   ar
    23    20    22    1
    24    13    14    1
@<TRIPOS>MOLECULE
*****
 22 24 0 0 0
SMALL
GASTEIGER

@<TRIPOS>ATOM
      1 C         -11.7804   -3.3118   18.3031 C.ar    1  UNL1        0.0070
      2 C         -11.0115   -2.0593   18.0029 C.ar    1  UNL1        0.0354
      3 S         -11.9185   -0.8894   18.2448 S.2     1  UNL1       -0.0864
      4 C         -13.2480   -1.4187   18.6945 C.ar    1  UNL1        0.0296
      5 C         -13.1627   -2.9158   18.7305 C.ar    1  UNL1        0.0070
      6 C         -11.8561   -7.9773   16.0168 C.3     1  UNL1        0.0342
      7 C         -11.2966   -7.0468   17.0517 C.ar    1  UNL1        0.0118
      8 C         -11.8182   -5.6446   17.1600 C.ar    1  UNL1       -0.0013
      9 C         -11.2588   -4.7140   18.1949 C.ar    1  UNL1        0.0004
     10 C         -10.1777   -5.1856   19.1216 C.ar    1  UNL1        0.0031
     11 C          -9.6560   -6.5878   19.0133 C.ar    1  UNL1        0.0363
     12 C         -10.2155   -7.5184   17.9784 C.ar    1  UNL1        0.1296
     13 O          -9.6938   -8.9206   17.8702 O.3     1  UNL1       -0.5058
     14 H          -9.0185   -9.2152   18.4491 H       1  UNL1        0.2922
     15 C         -14.4516   -0.5955   19.0463 C.ar    1  UNL1        0.0090
     16 C         -14.4735    0.8718   18.7355 C.ar    1  UNL1        0.0007
     17 C         -15.6770    1.6950   19.0873 C.ar    1  UNL1        0.0031
     18 C         -16.8586    1.0510   19.7500 C.ar    1  UNL1        0.0366
     19 C         -16.8367   -0.4163   20.0608 C.ar    1  UNL1        0.1337
     20 O         -18.0183   -1.0603   20.7234 O.3     1  UNL1       -0.5055
     21 C         -15.6331   -1.2395   19.7089 C.ar    1  UNL1        0.0371
     22 H         -18.7701   -0.5461   20.9432 H       1  UNL1        0.2922
@<TRIPOS>BOND
     1     6     7    1
     2     7     8   ar
     3     8     9   ar
     4     9     1    1
     5     1     2   ar
     6     2     3   ar
     7     3     4   ar
     8     4    15    1
     9    15    16   ar
    10    16    17   ar
    11    17    18   ar
    12    18    19   ar
    13    19    20    1
    14    19    21   ar
    15     4     5   ar
    16     9    10   ar
    17    10    11   ar
    18    11    12   ar
    19    12    13    1
    20    12     7   ar
    21     5     1   ar
    22    21    15   ar
    23    20    22    1
    24    13    14    1
@<TRIPOS>MOLECULE
*****
 22 24 0 0 0
SMALL
GASTEIGER

@<TRIPOS>ATOM
      1 C         -13.3264   -0.9374   18.6587 C.ar    1  UNL1        0.0070
      2 C         -12.0303   -0.5415   18.0157 C.ar    1  UNL1        0.0354
      3 S         -11.1519   -1.7559   17.9571 S.2     1  UNL1       -0.0864
      4 C         -11.9052   -2.9025   18.5639 C.ar    1  UNL1        0.0296
      5 C         -13.2490   -2.3966   18.9975 C.ar    1  UNL1        0.0070
      6 C         -18.1675   -0.2285   20.4083 C.3     1  UNL1        0.0342
      7 C         -16.9153    0.3215   19.7923 C.ar    1  UNL1        0.0118
      8 C         -15.7470   -0.5829   19.5335 C.ar    1  UNL1       -0.0013
      9 C         -14.4948   -0.0329   18.9175 C.ar    1  UNL1        0.0004
     10 C         -14.4109    1.4215   18.5602 C.ar    1  UNL1        0.0031
     11 C         -15.5793    2.3258   18.8190 C.ar    1  UNL1        0.0363
     12 C         -16.8315    1.7758   19.4350 C.ar    1  UNL1        0.1296
     13 O         -17.9999    2.6803   19.6938 O.3     1  UNL1       -0.5058
     14 H         -17.9475    3.5888   19.4706 H       1  UNL1        0.2922
     15 C         -11.4027   -4.3082   18.7112 C.ar    1  UNL1        0.0090
     16 C          -9.9321   -4.5680   18.8519 C.ar    1  UNL1        0.0007
     17 C          -9.4296   -5.9736   18.9992 C.ar    1  UNL1        0.0031
     18 C         -10.3978   -7.1194   19.0058 C.ar    1  UNL1        0.0366
     19 C         -11.8683   -6.8595   18.8650 C.ar    1  UNL1        0.1337
     20 O         -12.8365   -8.0053   18.8715 O.3     1  UNL1       -0.5055
     21 C         -12.3708   -5.4539   18.7177 C.ar    1  UNL1        0.0371
     22 H         -12.5226   -8.8833   18.9636 H       1  UNL1        0.2922
@<TRIPOS>BOND
     1     6     7    1
     2     7     8   ar
     3     8     9   ar
     4     9     1    1
     5     1     2   ar
     6     2     3   ar
     7     3     4   ar
     8     4    15    1
     9    15    16   ar
    10    16    17   ar
    11    17    18   ar
    12    18    19   ar
    13    19    20    1
    14    19    21   ar
    15     4     5   ar
    16     9    10   ar
    17    10    11   ar
    18    11    12   ar
    19    12    13    1
    20    12     7   ar
    21     5     1   ar
    22    21    15   ar
    23    20    22    1
    24    13    14    1
@<TRIPOS>MOLECULE
*****
 22 24 0 0 0
SMALL
GASTEIGER

@<TRIPOS>ATOM
      1 C           1.3522    1.0350   20.7826 C.ar    1  UNL1        0.0070
      2 C           0.5381    2.2249   20.3689 C.ar    1  UNL1        0.0354
      3 S          -0.1525    2.7606   21.5880 S.2     1  UNL1       -0.0864
      4 C           0.2348    1.9017   22.7552 C.ar    1  UNL1        0.0296
      5 C           1.1648    0.8352   22.2574 C.ar    1  UNL1        0.0070
      6 C           3.8415   -3.4219   19.8132 C.3     1  UNL1        0.0342
      7 C           3.4488   -2.0358   19.3954 C.ar    1  UNL1        0.0118
      8 C           2.5969   -1.1935   20.2979 C.ar    1  UNL1       -0.0013
      9 C           2.2042    0.1926   19.8800 C.ar    1  UNL1        0.0004
     10 C           2.6635    0.7363   18.5597 C.ar    1  UNL1        0.0031
     11 C           3.5154   -0.1060   17.6572 C.ar    1  UNL1        0.0363
     12 C           3.9081   -1.4921   18.0750 C.ar    1  UNL1        0.1296
     13 O           4.7601   -2.3345   17.1724 O.3     1  UNL1       -0.5058
     14 H           5.0470   -1.9948   16.3476 H       1  UNL1        0.2922
     15 C          -0.2267    2.0783   24.1714 C.ar    1  UNL1        0.0090
     16 C          -1.1188    3.2292   24.5315 C.ar    1  UNL1        0.0007
     17 C          -1.5804    3.4058   25.9477 C.ar    1  UNL1        0.0031
     18 C          -1.1499    2.4315   27.0039 C.ar    1  UNL1        0.0366
     19 C          -0.2578    1.2806   26.6438 C.ar    1  UNL1        0.1337
     20 O           0.1727    0.3064   27.7000 O.3     1  UNL1       -0.5055
     21 C           0.2038    1.1040   25.2276 C.ar    1  UNL1        0.0371
     22 H          -0.1157    0.4167   28.5847 H       1  UNL1        0.2922
@<TRIPOS>BOND
     1     6     7    1
     2     7     8   ar
     3     8     9   ar
     4     9     1    1
     5     1     2   ar
     6     2     3   ar
     7     3     4   ar
     8     4    15    1
     9    15    16   ar
    10    16    17   ar
    11    17    18   ar
    12    18    19   ar
    13    19    20    1
    14    19    21   ar
    15     4     5   ar
    16     9    10   ar
    17    10    11   ar
    18    11    12   ar
    19    12    13    1
    20    12     7   ar
    21     5     1   ar
    22    21    15   ar
    23    20    22    1
    24    13    14    1
@<TRIPOS>MOLECULE
*****
 22 24 0 0 0
SMALL
GASTEIGER

@<TRIPOS>ATOM
      1 C           2.3966    0.0653   21.9274 C.ar    1  UNL1        0.0070
      2 C           3.1451   -0.3451   23.1607 C.ar    1  UNL1        0.0354
      3 S           2.4235    0.2170   24.3495 S.2     1  UNL1       -0.0864
      4 C           1.2289    0.9749   23.8509 C.ar    1  UNL1        0.0296
      5 C           1.2123    0.8812   22.3539 C.ar    1  UNL1        0.0070
      6 C           4.6269   -3.1626   18.5206 C.3     1  UNL1        0.0342
      7 C           3.8824   -1.8934   18.8120 C.ar    1  UNL1        0.0118
      8 C           3.5117   -1.5486   20.2239 C.ar    1  UNL1       -0.0013
      9 C           2.7672   -0.2794   20.5153 C.ar    1  UNL1        0.0004
     10 C           2.3934    0.6449   19.3947 C.ar    1  UNL1        0.0031
     11 C           2.7640    0.3001   17.9828 C.ar    1  UNL1        0.0363
     12 C           3.5085   -0.9691   17.6914 C.ar    1  UNL1        0.1296
     13 O           3.8791   -1.3138   16.2793 O.3     1  UNL1       -0.5058
     14 H           3.6456   -0.7364   15.5793 H       1  UNL1        0.2922
     15 C           0.2269    1.6993   24.7001 C.ar    1  UNL1        0.0090
     16 C           0.0311    1.3015   26.1331 C.ar    1  UNL1        0.0007
     17 C          -0.9709    2.0259   26.9823 C.ar    1  UNL1        0.0031
     18 C          -1.7771    3.1481   26.3986 C.ar    1  UNL1        0.0366
     19 C          -1.5813    3.5459   24.9656 C.ar    1  UNL1        0.1337
     20 O          -2.3875    4.6681   24.3819 O.3     1  UNL1       -0.5055
     21 C          -0.5793    2.8215   24.1164 C.ar    1  UNL1        0.0371
     22 H          -3.0134    5.1206   24.9124 H       1  UNL1        0.2922
@<TRIPOS>BOND
     1     6     7    1
     2     7     8   ar
     3     8     9   ar
     4     9     1    1
     5     1     2   ar
     6     2     3   ar
     7     3     4   ar
     8     4    15    1
     9    15    16   ar
    10    16    17   ar
    11    17    18   ar
    12    18    19   ar
    13    19    20    1
    14    19    21   ar
    15     4     5   ar
    16     9    10   ar
    17    10    11   ar
    18    11    12   ar
    19    12    13    1
    20    12     7   ar
    21     5     1   ar
    22    21    15   ar
    23    20    22    1
    24    13    14    1
