@<TRIPOS>MOLECULE
*****
 30 34 0 0 0
SMALL
GASTEIGER

@<TRIPOS>ATOM
      1 O           8.4081   -5.7306   21.4977 O.3     1  UNL1       -0.4791
      2 C           8.3298   -5.9990   22.9713 C.ar    1  UNL1        0.1380
      3 C           8.7350   -7.3382   23.5122 C.ar    1  UNL1        0.0366
      4 C           8.6567   -7.6067   24.9860 C.ar    1  UNL1       -0.0014
      5 C           8.1732   -6.5361   25.9187 C.ar    1  UNL1       -0.0245
      6 C           7.7680   -5.1971   25.3778 C.ar    1  UNL1       -0.0217
      7 C           7.8463   -4.9285   23.9042 C.ar    1  UNL1        0.0324
      8 C           7.2618   -4.0000   26.1268 C.3     1  UNL1        0.0434
      9 C           7.0357   -3.8466   27.6018 C.3     1  UNL1        0.0768
     10 N           7.2601   -4.8522   28.6919 N.3     1  UNL1       -0.2734
     11 C           7.7658   -6.2596   28.5764 C.3     1  UNL1        0.0768
     12 C           8.1722   -7.0090   27.3422 C.3     1  UNL1        0.0433
     13 C           6.9357   -4.3891   30.0813 C.3     1  UNL1        0.0575
     14 C           6.5011   -3.0898   30.6919 C.3     1  UNL1        0.0160
     15 C           6.4770   -3.7342   32.0462 C.3     1  UNL1        0.0028
     16 C           6.9116   -5.0336   31.4355 C.3     1  UNL1        0.0160
     17 C           6.5550   -0.4616   19.3058 C.2     1  UNL1        0.2701
     18 O           7.4341    0.7486   19.4184 O.2     1  UNL1       -0.2681
     19 N           7.0182   -1.7788   19.8538 N.am    1  UNL1       -0.2745
     20 C           8.3607   -1.8859   20.5143 C.3     1  UNL1        0.0975
     21 C           8.8240   -3.2032   21.0623 C.3     1  UNL1        0.0651
     22 C           7.9448   -4.4133   20.9497 C.3     1  UNL1        0.1693
     23 C           6.6023   -4.3061   20.2891 C.3     1  UNL1        0.0651
     24 C           6.1391   -2.9890   19.7412 C.3     1  UNL1        0.0975
     25 C           1.4598    0.6133   18.4317 C.3     1  UNL1        0.0754
     26 C           2.8705    0.1396   18.2434 C.ar    1  UNL1        0.1550
     27 C           3.9766    0.2412   19.2516 C.ar    1  UNL1        0.0627
     28 C           5.2126   -0.3545   18.6453 C.ar    1  UNL1        0.1759
     29 N           4.8704   -0.8242   17.2624 N.ar    1  UNL1       -0.0727
     30 O           3.4229   -0.5188   17.0141 O.2     1  UNL1       -0.3576
@<TRIPOS>BOND
     1    25    26    1
     2    26    27   ar
     3    27    28   ar
     4    28    17    1
     5    17    18    2
     6    17    19   am
     7    19    20    1
     8    20    21    1
     9    21    22    1
    10    22     1    1
    11     1     2    1
    12     2     3   ar
    13     3     4   ar
    14     4     5   ar
    15     5     6   ar
    16     6     7   ar
    17     6     8    1
    18     8     9    1
    19     9    10    1
    20    10    13    1
    21    13    14    1
    22    14    15    1
    23    15    16    1
    24    10    11    1
    25    11    12    1
    26    22    23    1
    27    23    24    1
    28    28    29   ar
    29    29    30   ar
    30    30    26   ar
    31    24    19    1
    32     7     2   ar
    33    16    13    1
    34    12     5    1
@<TRIPOS>MOLECULE
*****
 30 34 0 0 0
SMALL
GASTEIGER

@<TRIPOS>ATOM
      1 O          -0.1864    4.3845   21.3517 O.3     1  UNL1       -0.4791
      2 C           0.6589    3.4314   20.5599 C.ar    1  UNL1        0.1380
      3 C           1.3386    3.8957   19.3059 C.ar    1  UNL1        0.0366
      4 C           2.1840    2.9426   18.5141 C.ar    1  UNL1       -0.0014
      5 C           2.3495    1.5251   18.9762 C.ar    1  UNL1       -0.0245
      6 C           1.6698    1.0609   20.2301 C.ar    1  UNL1       -0.0217
      7 C           0.8245    2.0140   21.0220 C.ar    1  UNL1        0.0324
      8 C           1.7023   -0.2986   20.8632 C.3     1  UNL1        0.0434
      9 C           2.4226   -1.5297   20.3985 C.3     1  UNL1        0.0768
     10 N           3.2882   -1.7051   19.1862 N.3     1  UNL1       -0.2734
     11 C           3.6474   -0.6930   18.1390 C.3     1  UNL1        0.0768
     12 C           3.2297    0.7446   18.0455 C.3     1  UNL1        0.0433
     13 C           3.8718   -3.0738   18.9958 C.3     1  UNL1        0.0575
     14 C           3.3557   -4.4755   19.1330 C.3     1  UNL1        0.0160
     15 C           4.6972   -5.0094   18.7266 C.3     1  UNL1        0.0028
     16 C           5.2134   -3.6076   18.5894 C.3     1  UNL1        0.0160
     17 C          -6.1438    4.4150   20.6378 C.2     1  UNL1        0.2701
     18 O          -6.7672    3.6556   19.5043 O.2     1  UNL1       -0.2681
     19 N          -4.6544    4.4074   20.8163 N.am    1  UNL1       -0.2745
     20 C          -3.7886    3.6404   19.8613 C.3     1  UNL1        0.0975
     21 C          -2.2992    3.6328   20.0397 C.3     1  UNL1        0.0651
     22 C          -1.6758    4.3922   21.1732 C.3     1  UNL1        0.1693
     23 C          -2.5417    5.1592   22.1281 C.3     1  UNL1        0.0651
     24 C          -4.0310    5.1668   21.9497 C.3     1  UNL1        0.0975
     25 C          -8.6876    5.9138   25.0153 C.3     1  UNL1        0.0754
     26 C          -8.1789    5.8710   23.6049 C.ar    1  UNL1        0.1550
     27 C          -7.2546    4.8378   23.0320 C.ar    1  UNL1        0.0627
     28 C          -7.0096    5.1820   21.5927 C.ar    1  UNL1        0.1759
     29 N          -7.7826    6.4279   21.2761 N.ar    1  UNL1       -0.0727
     30 O          -8.5052    6.8537   22.5196 O.2     1  UNL1       -0.3576
@<TRIPOS>BOND
     1    25    26    1
     2    26    27   ar
     3    27    28   ar
     4    28    17    1
     5    17    18    2
     6    17    19   am
     7    19    20    1
     8    20    21    1
     9    21    22    1
    10    22     1    1
    11     1     2    1
    12     2     3   ar
    13     3     4   ar
    14     4     5   ar
    15     5     6   ar
    16     6     7   ar
    17     6     8    1
    18     8     9    1
    19     9    10    1
    20    10    13    1
    21    13    14    1
    22    14    15    1
    23    15    16    1
    24    10    11    1
    25    11    12    1
    26    22    23    1
    27    23    24    1
    28    28    29   ar
    29    29    30   ar
    30    30    26   ar
    31    24    19    1
    32     7     2   ar
    33    16    13    1
    34    12     5    1
@<TRIPOS>MOLECULE
*****
 30 34 0 0 0
SMALL
GASTEIGER

@<TRIPOS>ATOM
      1 O           3.8003   -0.3994   17.4166 O.3     1  UNL1       -0.4791
      2 C           4.8051   -1.1701   18.2205 C.ar    1  UNL1        0.1380
      3 C           6.2007   -1.3516   17.7014 C.ar    1  UNL1        0.0366
      4 C           7.2056   -2.1224   18.5052 C.ar    1  UNL1       -0.0014
      5 C           6.8148   -2.7118   19.8281 C.ar    1  UNL1       -0.0245
      6 C           5.4193   -2.5303   20.3471 C.ar    1  UNL1       -0.0217
      7 C           4.4144   -1.7596   19.5434 C.ar    1  UNL1        0.0324
      8 C           4.8264   -3.0312   21.6307 C.3     1  UNL1        0.0434
      9 C           5.4827   -3.8372   22.7123 C.3     1  UNL1        0.0768
     10 N           6.8938   -4.3413   22.7773 N.3     1  UNL1       -0.2734
     11 C           7.9974   -4.1641   21.7769 C.3     1  UNL1        0.0768
     12 C           7.9623   -3.4389   20.4644 C.3     1  UNL1        0.0433
     13 C           7.2484   -5.1267   24.0051 C.3     1  UNL1        0.0575
     14 C           7.0111   -4.9590   25.4768 C.3     1  UNL1        0.0160
     15 C           7.7499   -6.2373   25.7416 C.3     1  UNL1        0.0028
     16 C           7.9873   -6.4049   24.2700 C.3     1  UNL1        0.0160
     17 C           0.4031    3.7752   20.0686 C.2     1  UNL1        0.2701
     18 O           1.0311    5.0352   20.5865 O.2     1  UNL1       -0.2681
     19 N           1.2524    2.7316   19.4056 N.am    1  UNL1       -0.2745
     20 C           2.7297    2.9479   19.2605 C.3     1  UNL1        0.0975
     21 C           3.5790    1.9043   18.5976 C.3     1  UNL1        0.0651
     22 C           2.9510    0.6443   18.0796 C.3     1  UNL1        0.1693
     23 C           1.4737    0.4280   18.2247 C.3     1  UNL1        0.0651
     24 C           0.6245    1.4716   18.8877 C.3     1  UNL1        0.0975
     25 C          -4.7887    3.7628   19.1067 C.3     1  UNL1        0.0754
     26 C          -3.4605    3.5532   19.7715 C.ar    1  UNL1        0.1550
     27 C          -2.1255    3.9611   19.2224 C.ar    1  UNL1        0.0627
     28 C          -1.0740    3.5589   20.2137 C.ar    1  UNL1        0.1759
     29 N          -1.7591    2.9025   21.3754 N.ar    1  UNL1       -0.0727
     30 O          -3.2340    2.8990   21.1022 O.2     1  UNL1       -0.3576
@<TRIPOS>BOND
     1    25    26    1
     2    26    27   ar
     3    27    28   ar
     4    28    17    1
     5    17    18    2
     6    17    19   am
     7    19    20    1
     8    20    21    1
     9    21    22    1
    10    22     1    1
    11     1     2    1
    12     2     3   ar
    13     3     4   ar
    14     4     5   ar
    15     5     6   ar
    16     6     7   ar
    17     6     8    1
    18     8     9    1
    19     9    10    1
    20    10    13    1
    21    13    14    1
    22    14    15    1
    23    15    16    1
    24    10    11    1
    25    11    12    1
    26    22    23    1
    27    23    24    1
    28    28    29   ar
    29    29    30   ar
    30    30    26   ar
    31    24    19    1
    32     7     2   ar
    33    16    13    1
    34    12     5    1
@<TRIPOS>MOLECULE
*****
 30 34 0 0 0
SMALL
GASTEIGER

@<TRIPOS>ATOM
      1 O           0.4203    4.7910   20.8970 O.3     1  UNL1       -0.4791
      2 C           1.2371    3.7435   20.2001 C.ar    1  UNL1        0.1380
      3 C           2.0887    4.1168   19.0231 C.ar    1  UNL1        0.0366
      4 C           2.9055    3.0693   18.3261 C.ar    1  UNL1       -0.0014
      5 C           2.8708    1.6486   18.8064 C.ar    1  UNL1       -0.0245
      6 C           2.0192    1.2755   19.9834 C.ar    1  UNL1       -0.0217
      7 C           1.2024    2.3229   20.6803 C.ar    1  UNL1        0.0324
      8 C           1.8413   -0.0713   20.6195 C.3     1  UNL1        0.0434
      9 C           2.4711   -1.3775   20.2356 C.3     1  UNL1        0.0768
     10 N           3.4342   -1.6594   19.1208 N.3     1  UNL1       -0.2734
     11 C           4.0055   -0.7049   18.1145 C.3     1  UNL1        0.0768
     12 C           3.7548    0.7673   17.9746 C.3     1  UNL1        0.0433
     13 C           3.8857   -3.0844   18.9957 C.3     1  UNL1        0.0575
     14 C           3.2225   -4.4230   19.1308 C.3     1  UNL1        0.0160
     15 C           4.5244   -5.0996   18.8187 C.3     1  UNL1        0.0028
     16 C           5.1876   -3.7610   18.6836 C.3     1  UNL1        0.0160
     17 C          -5.5026    4.0571   21.5145 C.2     1  UNL1        0.2701
     18 O          -6.0676    3.5846   22.8213 O.2     1  UNL1       -0.2681
     19 N          -4.0219    4.2406   21.3602 N.am    1  UNL1       -0.2745
     20 C          -3.1062    3.9515   22.5125 C.3     1  UNL1        0.0975
     21 C          -1.6254    4.1350   22.3581 C.3     1  UNL1        0.0651
     22 C          -1.0604    4.6075   21.0514 C.3     1  UNL1        0.1693
     23 C          -1.9763    4.8966   19.8990 C.3     1  UNL1        0.0651
     24 C          -3.4569    4.7132   20.0534 C.3     1  UNL1        0.0975
     25 C          -9.0214    6.4222   18.3673 C.3     1  UNL1        0.0754
     26 C          -8.0358    5.4333   18.9156 C.ar    1  UNL1        0.1550
     27 C          -7.2935    5.5553   20.2134 C.ar    1  UNL1        0.0627
     28 C          -6.4183    4.3462   20.3623 C.ar    1  UNL1        0.1759
     29 N          -6.6197    3.4770   19.1565 N.ar    1  UNL1       -0.0727
     30 O          -7.6193    4.1488   18.2624 O.2     1  UNL1       -0.3576
@<TRIPOS>BOND
     1    25    26    1
     2    26    27   ar
     3    27    28   ar
     4    28    17    1
     5    17    18    2
     6    17    19   am
     7    19    20    1
     8    20    21    1
     9    21    22    1
    10    22     1    1
    11     1     2    1
    12     2     3   ar
    13     3     4   ar
    14     4     5   ar
    15     5     6   ar
    16     6     7   ar
    17     6     8    1
    18     8     9    1
    19     9    10    1
    20    10    13    1
    21    13    14    1
    22    14    15    1
    23    15    16    1
    24    10    11    1
    25    11    12    1
    26    22    23    1
    27    23    24    1
    28    28    29   ar
    29    29    30   ar
    30    30    26   ar
    31    24    19    1
    32     7     2   ar
    33    16    13    1
    34    12     5    1
@<TRIPOS>MOLECULE
*****
 30 34 0 0 0
SMALL
GASTEIGER

@<TRIPOS>ATOM
      1 O           0.8850    3.6613   24.0944 O.3     1  UNL1       -0.4791
      2 C           1.2405    2.8155   22.9078 C.ar    1  UNL1        0.1380
      3 C           0.9812    3.3230   21.5203 C.ar    1  UNL1        0.0366
      4 C           1.3367    2.4772   20.3336 C.ar    1  UNL1       -0.0014
      5 C           1.9516    1.1238   20.5345 C.ar    1  UNL1       -0.0245
      6 C           2.2109    0.6163   21.9219 C.ar    1  UNL1       -0.0217
      7 C           1.8554    1.4621   23.1086 C.ar    1  UNL1        0.0324
      8 C           2.8106   -0.6929   22.3420 C.3     1  UNL1        0.0434
      9 C           3.2991   -1.8178   21.4783 C.3     1  UNL1        0.0768
     10 N           3.3085   -1.9114   19.9813 N.3     1  UNL1       -0.2734
     11 C           2.8318   -0.9032   18.9781 C.3     1  UNL1        0.0768
     12 C           2.2279    0.4476   19.2243 C.3     1  UNL1        0.0433
     13 C           3.8688   -3.1811   19.4121 C.3     1  UNL1        0.0575
     14 C           3.4653   -4.6256   19.4418 C.3     1  UNL1        0.0160
     15 C           4.6611   -4.9768   18.6071 C.3     1  UNL1        0.0028
     16 C           5.0646   -3.5323   18.5774 C.3     1  UNL1        0.0160
     17 C          -0.2329    1.0777   29.3931 C.2     1  UNL1        0.2701
     18 O          -1.4181    0.1718   29.5506 O.2     1  UNL1       -0.2681
     19 N           0.0466    1.7236   28.0684 N.am    1  UNL1       -0.2745
     20 C          -0.8591    1.4636   26.9013 C.3     1  UNL1        0.0975
     21 C          -0.5797    2.1095   25.5766 C.3     1  UNL1        0.0651
     22 C           0.6055    3.0154   25.4191 C.3     1  UNL1        0.1693
     23 C           1.5112    3.2753   26.5863 C.3     1  UNL1        0.0651
     24 C           1.2317    2.6295   27.9109 C.3     1  UNL1        0.0975
     25 C           1.9038    3.2508   33.7049 C.3     1  UNL1        0.0754
     26 C           1.6549    2.3366   32.5422 C.ar    1  UNL1        0.1550
     27 C           0.5392    2.4594   31.5470 C.ar    1  UNL1        0.0627
     28 C           0.6727    1.3376   30.5601 C.ar    1  UNL1        0.1759
     29 N           1.8709    0.5216   30.9453 N.ar    1  UNL1       -0.0727
     30 O           2.4779    1.1389   32.1702 O.2     1  UNL1       -0.3576
@<TRIPOS>BOND
     1    25    26    1
     2    26    27   ar
     3    27    28   ar
     4    28    17    1
     5    17    18    2
     6    17    19   am
     7    19    20    1
     8    20    21    1
     9    21    22    1
    10    22     1    1
    11     1     2    1
    12     2     3   ar
    13     3     4   ar
    14     4     5   ar
    15     5     6   ar
    16     6     7   ar
    17     6     8    1
    18     8     9    1
    19     9    10    1
    20    10    13    1
    21    13    14    1
    22    14    15    1
    23    15    16    1
    24    10    11    1
    25    11    12    1
    26    22    23    1
    27    23    24    1
    28    28    29   ar
    29    29    30   ar
    30    30    26   ar
    31    24    19    1
    32     7     2   ar
    33    16    13    1
    34    12     5    1
@<TRIPOS>MOLECULE
*****
 30 34 0 0 0
SMALL
GASTEIGER

@<TRIPOS>ATOM
      1 O           5.2388    0.6156   31.2957 O.3     1  UNL1       -0.4791
      2 C           5.7214   -0.8023   31.2149 C.ar    1  UNL1        0.1380
      3 C           5.9138   -1.6016   32.4695 C.ar    1  UNL1        0.0366
      4 C           6.3964   -3.0196   32.3888 C.ar    1  UNL1       -0.0014
      5 C           6.6865   -3.6382   31.0534 C.ar    1  UNL1       -0.0245
      6 C           6.4941   -2.8389   29.7989 C.ar    1  UNL1       -0.0217
      7 C           6.0115   -1.4210   29.8796 C.ar    1  UNL1        0.0324
      8 C           6.7229   -3.2598   28.3774 C.3     1  UNL1        0.0434
      9 C           7.2007   -4.5841   27.8596 C.3     1  UNL1        0.0768
     10 N           7.5676   -5.8144   28.6352 N.3     1  UNL1       -0.2734
     11 C           7.5474   -6.0244   30.1203 C.3     1  UNL1        0.0768
     12 C           7.1553   -5.0559   31.1965 C.3     1  UNL1        0.0433
     13 C           8.0137   -6.9902   27.8177 C.3     1  UNL1        0.0575
     14 C           7.7860   -7.4496   26.4080 C.3     1  UNL1        0.0160
     15 C           8.6447   -8.6531   26.6614 C.3     1  UNL1        0.0028
     16 C           8.8724   -8.1937   28.0711 C.3     1  UNL1        0.0160
     17 C           4.1005    3.0972   36.6386 C.2     1  UNL1        0.2701
     18 O           4.9921    4.1816   37.1671 O.2     1  UNL1       -0.2681
     19 N           4.3851    2.4768   35.3028 N.am    1  UNL1       -0.2745
     20 C           5.5612    2.9408   34.4957 C.3     1  UNL1        0.0975
     21 C           5.8458    2.3204   33.1600 C.3     1  UNL1        0.0651
     22 C           4.9542    1.2360   32.6314 C.3     1  UNL1        0.1693
     23 C           3.7780    0.7721   33.4386 C.3     1  UNL1        0.0651
     24 C           3.4935    1.3925   34.7743 C.3     1  UNL1        0.0975
     25 C           1.0241    0.2574   39.8559 C.3     1  UNL1        0.0754
     26 C           1.5103    1.3280   38.9246 C.ar    1  UNL1        0.1550
     27 C           2.8735    1.4037   38.3032 C.ar    1  UNL1        0.0627
     28 C           2.9244    2.6333   37.4457 C.ar    1  UNL1        0.1759
     29 N           1.5927    3.3176   37.5370 N.ar    1  UNL1       -0.0727
     30 O           0.7188    2.5109   38.4510 O.2     1  UNL1       -0.3576
@<TRIPOS>BOND
     1    25    26    1
     2    26    27   ar
     3    27    28   ar
     4    28    17    1
     5    17    18    2
     6    17    19   am
     7    19    20    1
     8    20    21    1
     9    21    22    1
    10    22     1    1
    11     1     2    1
    12     2     3   ar
    13     3     4   ar
    14     4     5   ar
    15     5     6   ar
    16     6     7   ar
    17     6     8    1
    18     8     9    1
    19     9    10    1
    20    10    13    1
    21    13    14    1
    22    14    15    1
    23    15    16    1
    24    10    11    1
    25    11    12    1
    26    22    23    1
    27    23    24    1
    28    28    29   ar
    29    29    30   ar
    30    30    26   ar
    31    24    19    1
    32     7     2   ar
    33    16    13    1
    34    12     5    1
@<TRIPOS>MOLECULE
*****
 30 34 0 0 0
SMALL
GASTEIGER

@<TRIPOS>ATOM
      1 O          -0.5926    4.5930   17.1944 O.3     1  UNL1       -0.4791
      2 C           0.5424    3.8296   17.8099 C.ar    1  UNL1        0.1380
      3 C           1.9007    4.4580   17.9123 C.ar    1  UNL1        0.0366
      4 C           3.0358    3.6946   18.5279 C.ar    1  UNL1       -0.0014
      5 C           2.8125    2.3028   19.0411 C.ar    1  UNL1       -0.0245
      6 C           1.4544    1.6746   18.9387 C.ar    1  UNL1       -0.0217
      7 C           0.3193    2.4379   18.3231 C.ar    1  UNL1        0.0324
      8 C           1.0192    0.3100   19.3843 C.3     1  UNL1        0.0434
      9 C           1.8348   -0.7633   20.0425 C.3     1  UNL1        0.0768
     10 N           3.2868   -0.7369   20.4174 N.3     1  UNL1       -0.2734
     11 C           4.2821    0.3690   20.2269 C.3     1  UNL1        0.0768
     12 C           4.0710    1.7219   19.6144 C.3     1  UNL1        0.0433
     13 C           3.8133   -1.9812   21.0691 C.3     1  UNL1        0.0575
     14 C           4.1641   -2.3762   22.4730 C.3     1  UNL1        0.0160
     15 C           4.5579   -3.7408   21.9908 C.3     1  UNL1        0.0028
     16 C           4.2071   -3.3458   20.5868 C.3     1  UNL1        0.0160
     17 C          -6.1412    4.0195   19.4043 C.2     1  UNL1        0.2701
     18 O          -7.2449    3.4960   18.5337 O.2     1  UNL1       -0.2681
     19 N          -4.7541    4.1629   18.8518 N.am    1  UNL1       -0.2745
     20 C          -4.4706    3.7827   17.4288 C.3     1  UNL1        0.0975
     21 C          -3.0834    3.9261   16.8763 C.3     1  UNL1        0.0651
     22 C          -1.9797    4.4497   17.7469 C.3     1  UNL1        0.1693
     23 C          -2.2633    4.8298   19.1700 C.3     1  UNL1        0.0651
     24 C          -3.6504    4.6865   19.7224 C.3     1  UNL1        0.0975
     25 C          -5.9682    4.2228   24.6778 C.3     1  UNL1        0.0754
     26 C          -6.3452    4.4931   23.2513 C.ar    1  UNL1        0.1550
     27 C          -5.7568    3.8277   22.0425 C.ar    1  UNL1        0.0627
     28 C          -6.4247    4.3997   20.8273 C.ar    1  UNL1        0.1759
     29 N          -7.4259    5.4186   21.2850 N.ar    1  UNL1       -0.0727
     30 O          -7.3768    5.4763   22.7831 O.2     1  UNL1       -0.3576
@<TRIPOS>BOND
     1    25    26    1
     2    26    27   ar
     3    27    28   ar
     4    28    17    1
     5    17    18    2
     6    17    19   am
     7    19    20    1
     8    20    21    1
     9    21    22    1
    10    22     1    1
    11     1     2    1
    12     2     3   ar
    13     3     4   ar
    14     4     5   ar
    15     5     6   ar
    16     6     7   ar
    17     6     8    1
    18     8     9    1
    19     9    10    1
    20    10    13    1
    21    13    14    1
    22    14    15    1
    23    15    16    1
    24    10    11    1
    25    11    12    1
    26    22    23    1
    27    23    24    1
    28    28    29   ar
    29    29    30   ar
    30    30    26   ar
    31    24    19    1
    32     7     2   ar
    33    16    13    1
    34    12     5    1
@<TRIPOS>MOLECULE
*****
 30 34 0 0 0
SMALL
GASTEIGER

@<TRIPOS>ATOM
      1 O           1.5765    2.7260   25.8206 O.3     1  UNL1       -0.4791
      2 C           2.2651    1.5021   25.2935 C.ar    1  UNL1        0.1380
      3 C           3.1231    0.6739   26.2034 C.ar    1  UNL1        0.0366
      4 C           3.8118   -0.5500   25.6764 C.ar    1  UNL1       -0.0014
      5 C           3.6425   -0.9457   24.2394 C.ar    1  UNL1       -0.0245
      6 C           2.7845   -0.1176   23.3297 C.ar    1  UNL1       -0.0217
      7 C           2.0958    1.1063   23.8566 C.ar    1  UNL1        0.0324
      8 C           2.4839   -0.3323   21.8758 C.3     1  UNL1        0.0434
      9 C           2.9672   -1.4283   20.9728 C.3     1  UNL1        0.0768
     10 N           3.8703   -2.5801   21.3006 N.3     1  UNL1       -0.2734
     11 C           4.5133   -2.9206   22.6123 C.3     1  UNL1        0.0768
     12 C           4.4119   -2.1932   23.9203 C.3     1  UNL1        0.0433
     13 C           4.1701   -3.5152   20.1667 C.3     1  UNL1        0.0575
     14 C           5.0640   -3.4704   18.9630 C.3     1  UNL1        0.0160
     15 C           4.5942   -4.8376   18.5631 C.3     1  UNL1        0.0028
     16 C           3.7003   -4.8824   19.7669 C.3     1  UNL1        0.0160
     17 C          -4.1928    3.7218   24.5075 C.2     1  UNL1        0.2701
     18 O          -5.2387    3.5887   25.5745 O.2     1  UNL1       -0.2681
     19 N          -2.7505    3.4728   24.8358 N.am    1  UNL1       -0.2745
     20 C          -2.3540    3.0908   26.2311 C.3     1  UNL1        0.0975
     21 C          -0.9117    2.8418   26.5594 C.3     1  UNL1        0.0651
     22 C           0.1342    2.9749   25.4923 C.3     1  UNL1        0.1693
     23 C          -0.2624    3.3570   24.0970 C.3     1  UNL1        0.0651
     24 C          -1.7046    3.6059   23.7687 C.3     1  UNL1        0.0975
     25 C          -5.6520    3.4229   19.4417 C.3     1  UNL1        0.0754
     26 C          -5.2600    3.9664   20.7837 C.ar    1  UNL1        0.1550
     27 C          -4.9204    3.1549   21.9987 C.ar    1  UNL1        0.0627
     28 C          -4.5893    4.1038   23.1122 C.ar    1  UNL1        0.1759
     29 N          -4.7242    5.5017   22.5855 N.ar    1  UNL1       -0.0727
     30 O          -5.1388    5.4169   21.1464 O.2     1  UNL1       -0.3576
@<TRIPOS>BOND
     1    25    26    1
     2    26    27   ar
     3    27    28   ar
     4    28    17    1
     5    17    18    2
     6    17    19   am
     7    19    20    1
     8    20    21    1
     9    21    22    1
    10    22     1    1
    11     1     2    1
    12     2     3   ar
    13     3     4   ar
    14     4     5   ar
    15     5     6   ar
    16     6     7   ar
    17     6     8    1
    18     8     9    1
    19     9    10    1
    20    10    13    1
    21    13    14    1
    22    14    15    1
    23    15    16    1
    24    10    11    1
    25    11    12    1
    26    22    23    1
    27    23    24    1
    28    28    29   ar
    29    29    30   ar
    30    30    26   ar
    31    24    19    1
    32     7     2   ar
    33    16    13    1
    34    12     5    1
@<TRIPOS>MOLECULE
*****
 30 34 0 0 0
SMALL
GASTEIGER

@<TRIPOS>ATOM
      1 O           4.2802   -3.4530   19.4624 O.3     1  UNL1       -0.4791
      2 C           3.7169   -2.0878   19.2001 C.ar    1  UNL1        0.1380
      3 C           4.3672   -1.1896   18.1900 C.ar    1  UNL1        0.0366
      4 C           3.8040    0.1757   17.9276 C.ar    1  UNL1       -0.0014
      5 C           2.5904    0.6427   18.6753 C.ar    1  UNL1       -0.0245
      6 C           1.9401   -0.2555   19.6854 C.ar    1  UNL1       -0.0217
      7 C           2.5033   -1.6207   19.9478 C.ar    1  UNL1        0.0324
      8 C           0.7326    0.0116   20.5343 C.3     1  UNL1        0.0434
      9 C          -0.1229    1.2429   20.5827 C.3     1  UNL1        0.0768
     10 N           0.0180    2.5110   19.7942 N.3     1  UNL1       -0.2734
     11 C           1.0490    2.8613   18.7625 C.3     1  UNL1        0.0768
     12 C           2.1938    2.0298   18.2646 C.3     1  UNL1        0.0433
     13 C          -1.0078    3.5689   20.0744 C.3     1  UNL1        0.0575
     14 C          -2.2293    4.0760   19.3665 C.3     1  UNL1        0.0160
     15 C          -2.4587    5.0651   20.4707 C.3     1  UNL1        0.0028
     16 C          -1.2372    4.5580   21.1785 C.3     1  UNL1        0.0160
     17 C           7.9126   -4.3488   24.1532 C.2     1  UNL1        0.2701
     18 O           9.3848   -4.5382   23.9364 O.2     1  UNL1       -0.2681
     19 N           7.0045   -4.1249   22.9805 N.am    1  UNL1       -0.2745
     20 C           7.5685   -4.0903   21.5910 C.3     1  UNL1        0.0975
     21 C           6.6604   -3.8663   20.4183 C.3     1  UNL1        0.0651
     22 C           5.1883   -3.6770   20.6351 C.3     1  UNL1        0.1693
     23 C           4.6243   -3.7116   22.0247 C.3     1  UNL1        0.0651
     24 C           5.5323   -3.9355   23.1973 C.3     1  UNL1        0.0975
     25 C           6.3377   -2.8719   28.9718 C.3     1  UNL1        0.0754
     26 C           6.6247   -3.7045   27.7576 C.ar    1  UNL1        0.1550
     27 C           7.2502   -3.2192   26.4834 C.ar    1  UNL1        0.0627
     28 C           7.3486   -4.3834   25.5426 C.ar    1  UNL1        0.1759
     29 N           6.7841   -5.5881   26.2353 N.ar    1  UNL1       -0.0727
     30 O           6.3367   -5.1686   27.6042 O.2     1  UNL1       -0.3576
@<TRIPOS>BOND
     1    25    26    1
     2    26    27   ar
     3    27    28   ar
     4    28    17    1
     5    17    18    2
     6    17    19   am
     7    19    20    1
     8    20    21    1
     9    21    22    1
    10    22     1    1
    11     1     2    1
    12     2     3   ar
    13     3     4   ar
    14     4     5   ar
    15     5     6   ar
    16     6     7   ar
    17     6     8    1
    18     8     9    1
    19     9    10    1
    20    10    13    1
    21    13    14    1
    22    14    15    1
    23    15    16    1
    24    10    11    1
    25    11    12    1
    26    22    23    1
    27    23    24    1
    28    28    29   ar
    29    29    30   ar
    30    30    26   ar
    31    24    19    1
    32     7     2   ar
    33    16    13    1
    34    12     5    1
