@<TRIPOS>MOLECULE
*****
 25 27 0 0 0
SMALL
GASTEIGER

@<TRIPOS>ATOM
      1 O         -12.2262  -18.6279   22.6504 O.2     1  UNL1       -0.2739
      2 C         -10.9012  -18.8051   21.9700 C.2     1  UNL1        0.2418
      3 C         -10.8373  -19.4071   20.5976 C.3     1  UNL1        0.1711
      4 C          -9.5122  -19.5843   19.9173 C.2     1  UNL1        0.2418
      5 O          -9.4484  -20.1863   18.5448 O.2     1  UNL1       -0.2739
      6 N          -8.2511  -19.1595   20.6094 N.am    1  UNL1       -0.2131
      7 C          -8.3150  -18.5575   21.9818 C.2     1  UNL1        0.3188
      8 O          -7.0538  -18.1327   22.6739 O.2     1  UNL1       -0.2515
      9 N          -9.6400  -18.3804   22.6621 N.am    1  UNL1       -0.2131
     10 C          -6.9260  -19.3367   19.9290 C.3     1  UNL1        0.1071
     11 C          -5.8390  -20.1247   20.5978 C.3     1  UNL1        0.0484
     12 C          -4.4455  -19.5736   20.6643 C.ar    1  UNL1       -0.0205
     13 C          -3.7676  -19.0957   19.4144 C.ar    1  UNL1       -0.0042
     14 C          -2.3741  -18.5446   19.4808 C.ar    1  UNL1       -0.0003
     15 C          -1.6584  -18.4715   20.7971 C.ar    1  UNL1       -0.0000
     16 C          -2.3363  -18.9494   22.0469 C.ar    1  UNL1       -0.0003
     17 C          -3.7298  -19.5005   21.9805 C.ar    1  UNL1       -0.0042
     18 C          -9.7039  -17.7784   24.0346 C.3     1  UNL1        0.1071
     19 C          -9.3869  -16.3256   24.2318 C.3     1  UNL1        0.0484
     20 C          -8.1932  -15.9221   25.0456 C.ar    1  UNL1       -0.0205
     21 C          -8.2295  -16.0415   26.5404 C.ar    1  UNL1       -0.0042
     22 C          -7.0358  -15.6380   27.3542 C.ar    1  UNL1       -0.0003
     23 C          -5.8058  -15.1152   26.6733 C.ar    1  UNL1       -0.0000
     24 C          -5.7695  -14.9958   25.1785 C.ar    1  UNL1       -0.0003
     25 C          -6.9631  -15.3993   24.3646 C.ar    1  UNL1       -0.0042
@<TRIPOS>BOND
     1     1     2    2
     2     2     3    1
     3     3     4    1
     4     4     5    2
     5     4     6   am
     6     6    10    1
     7    10    11    1
     8    11    12    1
     9    12    13   ar
    10    13    14   ar
    11    14    15   ar
    12    15    16   ar
    13    16    17   ar
    14     6     7   am
    15     7     8    2
    16     7     9   am
    17     9    18    1
    18    18    19    1
    19    19    20    1
    20    20    21   ar
    21    21    22   ar
    22    22    23   ar
    23    23    24   ar
    24    24    25   ar
    25     9     2   am
    26    25    20   ar
    27    17    12   ar
@<TRIPOS>MOLECULE
*****
 25 27 0 0 0
SMALL
GASTEIGER

@<TRIPOS>ATOM
      1 O          -9.2385  -20.2962   18.3956 O.2     1  UNL1       -0.2739
      2 C          -9.3356  -19.6898   19.7641 C.2     1  UNL1        0.2418
      3 C         -10.6750  -19.5293   20.4200 C.3     1  UNL1        0.1711
      4 C         -10.7721  -18.9229   21.7885 C.2     1  UNL1        0.2418
      5 O         -12.1115  -18.7624   22.4444 O.2     1  UNL1       -0.2739
      6 N          -9.5298  -18.4770   22.5012 N.am    1  UNL1       -0.2131
      7 C          -8.1904  -18.6374   21.8453 C.2     1  UNL1        0.3188
      8 O          -6.9480  -18.1915   22.5579 O.2     1  UNL1       -0.2515
      9 N          -8.0933  -19.2438   20.4767 N.am    1  UNL1       -0.2131
     10 C          -9.6269  -17.8706   23.8697 C.3     1  UNL1        0.1071
     11 C          -9.3267  -16.4144   24.0678 C.3     1  UNL1        0.0484
     12 C          -8.2176  -15.9955   24.9867 C.ar    1  UNL1       -0.0205
     13 C          -6.9317  -15.4707   24.4198 C.ar    1  UNL1       -0.0042
     14 C          -5.8226  -15.0518   25.3388 C.ar    1  UNL1       -0.0003
     15 C          -5.9994  -15.1577   26.8246 C.ar    1  UNL1       -0.0000
     16 C          -7.2851  -15.6825   27.3914 C.ar    1  UNL1       -0.0003
     17 C          -8.3942  -16.1014   26.4725 C.ar    1  UNL1       -0.0042
     18 C          -6.7538  -19.4043   19.8208 C.3     1  UNL1        0.1071
     19 C          -5.6612  -20.1567   20.5210 C.3     1  UNL1        0.0484
     20 C          -4.2827  -19.5715   20.6053 C.ar    1  UNL1       -0.0205
     21 C          -3.5697  -19.5187   21.9240 C.ar    1  UNL1       -0.0042
     22 C          -2.1911  -18.9335   22.0083 C.ar    1  UNL1       -0.0003
     23 C          -1.5255  -18.4012   20.7740 C.ar    1  UNL1       -0.0000
     24 C          -2.2385  -18.4540   19.4553 C.ar    1  UNL1       -0.0003
     25 C          -3.6170  -19.0392   19.3710 C.ar    1  UNL1       -0.0042
@<TRIPOS>BOND
     1     1     2    2
     2     2     3    1
     3     3     4    1
     4     4     5    2
     5     4     6   am
     6     6    10    1
     7    10    11    1
     8    11    12    1
     9    12    13   ar
    10    13    14   ar
    11    14    15   ar
    12    15    16   ar
    13    16    17   ar
    14     6     7   am
    15     7     8    2
    16     7     9   am
    17     9    18    1
    18    18    19    1
    19    19    20    1
    20    20    21   ar
    21    21    22   ar
    22    22    23   ar
    23    23    24   ar
    24    24    25   ar
    25     9     2   am
    26    25    20   ar
    27    17    12   ar
@<TRIPOS>MOLECULE
*****
 25 27 0 0 0
SMALL
GASTEIGER

@<TRIPOS>ATOM
      1 O          -5.6597  -14.8260   24.4272 O.2     1  UNL1       -0.2739
      2 C          -6.4129  -15.7779   23.5460 C.2     1  UNL1        0.2418
      3 C          -7.7161  -15.3602   22.9320 C.3     1  UNL1        0.1711
      4 C          -8.4693  -16.3121   22.0508 C.2     1  UNL1        0.2418
      5 O          -9.7726  -15.8943   21.4367 O.2     1  UNL1       -0.2739
      6 N          -7.9193  -17.6818   21.7837 N.am    1  UNL1       -0.2131
      7 C          -6.6162  -18.0996   22.3977 C.2     1  UNL1        0.3188
      8 O          -6.0661  -19.4693   22.1306 O.2     1  UNL1       -0.2515
      9 N          -5.8630  -17.1476   23.2789 N.am    1  UNL1       -0.2131
     10 C          -8.6725  -18.6338   20.9025 C.3     1  UNL1        0.1071
     11 C          -9.6904  -19.5610   21.4975 C.3     1  UNL1        0.0484
     12 C         -10.9081  -19.0039   22.1734 C.ar    1  UNL1       -0.0205
     13 C         -11.0482  -19.0991   23.6639 C.ar    1  UNL1       -0.0042
     14 C         -12.2659  -18.5420   24.3398 C.ar    1  UNL1       -0.0003
     15 C         -13.3434  -17.8896   23.5253 C.ar    1  UNL1       -0.0000
     16 C         -13.2033  -17.7944   22.0349 C.ar    1  UNL1       -0.0003
     17 C         -11.9856  -18.3515   21.3590 C.ar    1  UNL1       -0.0042
     18 C          -4.5597  -17.5654   23.8930 C.3     1  UNL1        0.1071
     19 C          -3.2806  -16.9192   23.4500 C.3     1  UNL1        0.0484
     20 C          -2.5766  -17.4140   22.2214 C.ar    1  UNL1       -0.0205
     21 C          -1.7554  -16.4687   21.3956 C.ar    1  UNL1       -0.0042
     22 C          -1.0514  -16.9635   20.1669 C.ar    1  UNL1       -0.0003
     23 C          -1.1686  -18.4036   19.7641 C.ar    1  UNL1       -0.0000
     24 C          -1.9898  -19.3490   20.5899 C.ar    1  UNL1       -0.0003
     25 C          -2.6938  -18.8542   21.8185 C.ar    1  UNL1       -0.0042
@<TRIPOS>BOND
     1     1     2    2
     2     2     3    1
     3     3     4    1
     4     4     5    2
     5     4     6   am
     6     6    10    1
     7    10    11    1
     8    11    12    1
     9    12    13   ar
    10    13    14   ar
    11    14    15   ar
    12    15    16   ar
    13    16    17   ar
    14     6     7   am
    15     7     8    2
    16     7     9   am
    17     9    18    1
    18    18    19    1
    19    19    20    1
    20    20    21   ar
    21    21    22   ar
    22    22    23   ar
    23    23    24   ar
    24    24    25   ar
    25     9     2   am
    26    25    20   ar
    27    17    12   ar
@<TRIPOS>MOLECULE
*****
 25 27 0 0 0
SMALL
GASTEIGER

@<TRIPOS>ATOM
      1 O          -9.7862  -15.9078   21.3210 O.2     1  UNL1       -0.2739
      2 C          -8.4982  -16.3153   21.9730 C.2     1  UNL1        0.2418
      3 C          -7.7649  -15.3480   22.8542 C.3     1  UNL1        0.1711
      4 C          -6.4769  -15.7555   23.5063 C.2     1  UNL1        0.2418
      5 O          -5.7436  -14.7882   24.3875 O.2     1  UNL1       -0.2739
      6 N          -5.9223  -17.1302   23.2771 N.am    1  UNL1       -0.2131
      7 C          -6.6557  -18.0974   22.3959 C.2     1  UNL1        0.3188
      8 O          -6.1011  -19.4722   22.1667 O.2     1  UNL1       -0.2515
      9 N          -7.9436  -17.6900   21.7439 N.am    1  UNL1       -0.2131
     10 C          -4.6344  -17.5376   23.9291 C.3     1  UNL1        0.1071
     11 C          -3.3410  -16.9218   23.4845 C.3     1  UNL1        0.0484
     12 C          -2.6513  -17.4319   22.2540 C.ar    1  UNL1       -0.0205
     13 C          -1.8623  -16.4913   21.3920 C.ar    1  UNL1       -0.0042
     14 C          -1.1726  -17.0015   20.1615 C.ar    1  UNL1       -0.0003
     15 C          -1.2718  -18.4522   19.7931 C.ar    1  UNL1       -0.0000
     16 C          -2.0608  -19.3926   20.6550 C.ar    1  UNL1       -0.0003
     17 C          -2.7505  -18.8825   21.8855 C.ar    1  UNL1       -0.0042
     18 C          -8.6770  -18.6573   20.8626 C.3     1  UNL1        0.1071
     19 C          -9.6892  -19.5926   21.4550 C.3     1  UNL1        0.0484
     20 C         -10.8779  -19.0449   22.1878 C.ar    1  UNL1       -0.0205
     21 C         -10.9637  -19.1735   23.6798 C.ar    1  UNL1       -0.0042
     22 C         -12.1525  -18.6257   24.4126 C.ar    1  UNL1       -0.0003
     23 C         -13.2553  -17.9494   23.6534 C.ar    1  UNL1       -0.0000
     24 C         -13.1694  -17.8208   22.1614 C.ar    1  UNL1       -0.0003
     25 C         -11.9807  -18.3685   21.4286 C.ar    1  UNL1       -0.0042
@<TRIPOS>BOND
     1     1     2    2
     2     2     3    1
     3     3     4    1
     4     4     5    2
     5     4     6   am
     6     6    10    1
     7    10    11    1
     8    11    12    1
     9    12    13   ar
    10    13    14   ar
    11    14    15   ar
    12    15    16   ar
    13    16    17   ar
    14     6     7   am
    15     7     8    2
    16     7     9   am
    17     9    18    1
    18    18    19    1
    19    19    20    1
    20    20    21   ar
    21    21    22   ar
    22    22    23   ar
    23    23    24   ar
    24    24    25   ar
    25     9     2   am
    26    25    20   ar
    27    17    12   ar
@<TRIPOS>MOLECULE
*****
 25 27 0 0 0
SMALL
GASTEIGER

@<TRIPOS>ATOM
      1 O          -4.6512  -18.8274   23.0922 O.2     1  UNL1       -0.2739
      2 C          -5.9360  -18.7042   22.3279 C.2     1  UNL1        0.2418
      3 C          -6.8971  -17.5985   22.6498 C.3     1  UNL1        0.1711
      4 C          -8.1819  -17.4753   21.8855 C.2     1  UNL1        0.2418
      5 O          -9.1431  -16.3695   22.2075 O.2     1  UNL1       -0.2739
      6 N          -8.5056  -18.4578   20.7993 N.am    1  UNL1       -0.2131
      7 C          -7.5445  -19.5635   20.4774 C.2     1  UNL1        0.3188
      8 O          -7.8681  -20.5460   19.3911 O.2     1  UNL1       -0.2515
      9 N          -6.2597  -19.6867   21.2417 N.am    1  UNL1       -0.2131
     10 C          -9.7904  -18.3346   20.0350 C.3     1  UNL1        0.1071
     11 C         -11.0002  -19.1059   20.4724 C.3     1  UNL1        0.0484
     12 C         -11.5758  -18.8860   21.8400 C.ar    1  UNL1       -0.0205
     13 C         -12.7667  -17.9914   22.0175 C.ar    1  UNL1       -0.0042
     14 C         -13.3423  -17.7715   23.3852 C.ar    1  UNL1       -0.0003
     15 C         -12.7270  -18.4462   24.5752 C.ar    1  UNL1       -0.0000
     16 C         -11.5361  -19.3407   24.3977 C.ar    1  UNL1       -0.0003
     17 C         -10.9605  -19.5606   23.0301 C.ar    1  UNL1       -0.0042
     18 C          -5.2985  -20.7924   20.9197 C.3     1  UNL1        0.1071
     19 C          -4.2884  -20.6132   19.8253 C.3     1  UNL1        0.0484
     20 C          -3.2974  -19.4895   19.8962 C.ar    1  UNL1       -0.0205
     21 C          -2.2056  -19.5160   20.9245 C.ar    1  UNL1       -0.0042
     22 C          -1.2145  -18.3923   20.9952 C.ar    1  UNL1       -0.0003
     23 C          -1.3152  -17.2421   20.0378 C.ar    1  UNL1       -0.0000
     24 C          -2.4069  -17.2155   19.0095 C.ar    1  UNL1       -0.0003
     25 C          -3.3980  -18.3392   18.9386 C.ar    1  UNL1       -0.0042
@<TRIPOS>BOND
     1     1     2    2
     2     2     3    1
     3     3     4    1
     4     4     5    2
     5     4     6   am
     6     6    10    1
     7    10    11    1
     8    11    12    1
     9    12    13   ar
    10    13    14   ar
    11    14    15   ar
    12    15    16   ar
    13    16    17   ar
    14     6     7   am
    15     7     8    2
    16     7     9   am
    17     9    18    1
    18    18    19    1
    19    19    20    1
    20    20    21   ar
    21    21    22   ar
    22    22    23   ar
    23    23    24   ar
    24    24    25   ar
    25     9     2   am
    26    25    20   ar
    27    17    12   ar
@<TRIPOS>MOLECULE
*****
 25 27 0 0 0
SMALL
GASTEIGER

@<TRIPOS>ATOM
      1 O          -3.9302  -15.9340   26.2476 O.2     1  UNL1       -0.2739
      2 C          -5.3255  -15.9068   25.6974 C.2     1  UNL1        0.2418
      3 C          -6.4782  -15.5616   26.5930 C.3     1  UNL1        0.1711
      4 C          -7.8734  -15.5344   26.0428 C.2     1  UNL1        0.2418
      5 O          -9.0261  -15.1891   26.9385 O.2     1  UNL1       -0.2739
      6 N          -8.1159  -15.8524   24.5972 N.am    1  UNL1       -0.2131
      7 C          -6.9632  -16.1976   23.7016 C.2     1  UNL1        0.3188
      8 O          -7.2056  -16.5156   22.2559 O.2     1  UNL1       -0.2515
      9 N          -5.5680  -16.2248   24.2518 N.am    1  UNL1       -0.2131
     10 C          -9.5111  -15.8251   24.0470 C.3     1  UNL1        0.1071
     11 C         -10.2510  -17.1091   23.8150 C.3     1  UNL1        0.0484
     12 C         -10.4003  -17.6477   22.4230 C.ar    1  UNL1       -0.0205
     13 C          -9.8249  -18.9877   22.0716 C.ar    1  UNL1       -0.0042
     14 C          -9.9742  -19.5263   20.6796 C.ar    1  UNL1       -0.0003
     15 C         -10.6989  -18.7249   19.6390 C.ar    1  UNL1       -0.0000
     16 C         -11.2742  -17.3849   19.9905 C.ar    1  UNL1       -0.0003
     17 C         -11.1249  -16.8464   21.3825 C.ar    1  UNL1       -0.0042
     18 C          -4.4152  -16.5701   23.3561 C.3     1  UNL1        0.1071
     19 C          -3.8871  -17.9736   23.3208 C.3     1  UNL1        0.0484
     20 C          -4.3334  -18.9159   22.2425 C.ar    1  UNL1       -0.0205
     21 C          -3.3840  -19.3089   21.1497 C.ar    1  UNL1       -0.0042
     22 C          -3.8304  -20.2513   20.0713 C.ar    1  UNL1       -0.0003
     23 C          -5.2260  -20.8006   20.0858 C.ar    1  UNL1       -0.0000
     24 C          -6.1754  -20.4077   21.1787 C.ar    1  UNL1       -0.0003
     25 C          -5.7291  -19.4654   22.2570 C.ar    1  UNL1       -0.0042
@<TRIPOS>BOND
     1     1     2    2
     2     2     3    1
     3     3     4    1
     4     4     5    2
     5     4     6   am
     6     6    10    1
     7    10    11    1
     8    11    12    1
     9    12    13   ar
    10    13    14   ar
    11    14    15   ar
    12    15    16   ar
    13    16    17   ar
    14     6     7   am
    15     7     8    2
    16     7     9   am
    17     9    18    1
    18    18    19    1
    19    19    20    1
    20    20    21   ar
    21    21    22   ar
    22    22    23   ar
    23    23    24   ar
    24    24    25   ar
    25     9     2   am
    26    25    20   ar
    27    17    12   ar
@<TRIPOS>MOLECULE
*****
 25 27 0 0 0
SMALL
GASTEIGER

@<TRIPOS>ATOM
      1 O          -3.8218  -16.5106   26.4733 O.2     1  UNL1       -0.2739
      2 C          -5.1939  -16.1958   25.9554 C.2     1  UNL1        0.2418
      3 C          -6.3094  -15.9050   26.9151 C.3     1  UNL1        0.1711
      4 C          -7.6815  -15.5902   26.3971 C.2     1  UNL1        0.2418
      5 O          -8.7970  -15.2993   27.3569 O.2     1  UNL1       -0.2739
      6 N          -7.9381  -15.5664   24.9195 N.am    1  UNL1       -0.2131
      7 C          -6.8227  -15.8572   23.9598 C.2     1  UNL1        0.3188
      8 O          -7.0793  -15.8334   22.4820 O.2     1  UNL1       -0.2515
      9 N          -5.4506  -16.1720   24.4777 N.am    1  UNL1       -0.2131
     10 C          -9.3102  -15.2516   24.4015 C.3     1  UNL1        0.1071
     11 C         -10.0194  -16.2304   23.5133 C.3     1  UNL1        0.0484
     12 C          -9.8268  -17.7040   23.7169 C.ar    1  UNL1       -0.0205
     13 C          -9.1896  -18.5328   22.6411 C.ar    1  UNL1       -0.0042
     14 C          -8.9970  -20.0064   22.8446 C.ar    1  UNL1       -0.0003
     15 C          -9.4416  -20.6512   24.1240 C.ar    1  UNL1       -0.0000
     16 C         -10.0787  -19.8224   25.1997 C.ar    1  UNL1       -0.0003
     17 C         -10.2713  -18.3489   24.9961 C.ar    1  UNL1       -0.0042
     18 C          -4.3351  -16.4629   23.5179 C.3     1  UNL1        0.1071
     19 C          -3.7201  -17.8303   23.4749 C.3     1  UNL1        0.0484
     20 C          -4.0629  -18.7720   22.3588 C.ar    1  UNL1       -0.0205
     21 C          -5.4934  -19.1451   22.1049 C.ar    1  UNL1       -0.0042
     22 C          -5.8361  -20.0868   20.9888 C.ar    1  UNL1       -0.0003
     23 C          -4.7484  -20.6555   20.1266 C.ar    1  UNL1       -0.0000
     24 C          -3.3178  -20.2824   20.3805 C.ar    1  UNL1       -0.0003
     25 C          -2.9751  -19.3407   21.4966 C.ar    1  UNL1       -0.0042
@<TRIPOS>BOND
     1     1     2    2
     2     2     3    1
     3     3     4    1
     4     4     5    2
     5     4     6   am
     6     6    10    1
     7    10    11    1
     8    11    12    1
     9    12    13   ar
    10    13    14   ar
    11    14    15   ar
    12    15    16   ar
    13    16    17   ar
    14     6     7   am
    15     7     8    2
    16     7     9   am
    17     9    18    1
    18    18    19    1
    19    19    20    1
    20    20    21   ar
    21    21    22   ar
    22    22    23   ar
    23    23    24   ar
    24    24    25   ar
    25     9     2   am
    26    25    20   ar
    27    17    12   ar
@<TRIPOS>MOLECULE
*****
 25 27 0 0 0
SMALL
GASTEIGER

@<TRIPOS>ATOM
      1 O          -4.0076  -15.3664   26.3405 O.2     1  UNL1       -0.2739
      2 C          -5.4018  -15.5504   25.8187 C.2     1  UNL1        0.2418
      3 C          -6.5751  -15.3794   26.7373 C.3     1  UNL1        0.1711
      4 C          -7.9693  -15.5635   26.2155 C.2     1  UNL1        0.2418
      5 O          -9.1427  -15.3924   27.1342 O.2     1  UNL1       -0.2739
      6 N          -8.1902  -15.9185   24.7750 N.am    1  UNL1       -0.2131
      7 C          -7.0169  -16.0895   23.8563 C.2     1  UNL1        0.3188
      8 O          -7.2377  -16.4446   22.4157 O.2     1  UNL1       -0.2515
      9 N          -5.6227  -15.9055   24.3782 N.am    1  UNL1       -0.2131
     10 C          -9.5844  -16.1026   24.2531 C.3     1  UNL1        0.1071
     11 C         -10.1652  -17.4805   24.1351 C.3     1  UNL1        0.0484
     12 C         -10.4540  -18.0593   22.7817 C.ar    1  UNL1       -0.0205
     13 C         -10.5360  -17.1604   21.5835 C.ar    1  UNL1       -0.0042
     14 C         -10.8248  -17.7392   20.2302 C.ar    1  UNL1       -0.0003
     15 C         -11.0316  -19.2168   20.0749 C.ar    1  UNL1       -0.0000
     16 C         -10.9496  -20.1155   21.2731 C.ar    1  UNL1       -0.0003
     17 C         -10.6608  -19.5368   22.6264 C.ar    1  UNL1       -0.0042
     18 C          -4.4493  -16.0765   23.4594 C.3     1  UNL1        0.1071
     19 C          -3.8265  -17.4296   23.2822 C.3     1  UNL1        0.0484
     20 C          -2.8676  -17.6720   22.1546 C.ar    1  UNL1       -0.0205
     21 C          -2.7408  -19.0430   21.5594 C.ar    1  UNL1       -0.0042
     22 C          -1.7819  -19.2854   20.4317 C.ar    1  UNL1       -0.0003
     23 C          -0.9497  -18.1567   19.8991 C.ar    1  UNL1       -0.0000
     24 C          -1.0764  -16.7857   20.4943 C.ar    1  UNL1       -0.0003
     25 C          -2.0353  -16.5433   21.6220 C.ar    1  UNL1       -0.0042
@<TRIPOS>BOND
     1     1     2    2
     2     2     3    1
     3     3     4    1
     4     4     5    2
     5     4     6   am
     6     6    10    1
     7    10    11    1
     8    11    12    1
     9    12    13   ar
    10    13    14   ar
    11    14    15   ar
    12    15    16   ar
    13    16    17   ar
    14     6     7   am
    15     7     8    2
    16     7     9   am
    17     9    18    1
    18    18    19    1
    19    19    20    1
    20    20    21   ar
    21    21    22   ar
    22    22    23   ar
    23    23    24   ar
    24    24    25   ar
    25     9     2   am
    26    25    20   ar
    27    17    12   ar
@<TRIPOS>MOLECULE
*****
 25 27 0 0 0
SMALL
GASTEIGER

@<TRIPOS>ATOM
      1 O          -2.5299  -17.6222   23.2237 O.2     1  UNL1       -0.2739
      2 C          -4.0012  -17.3436   23.3100 C.2     1  UNL1        0.2418
      3 C          -4.4861  -16.0398   23.8711 C.3     1  UNL1        0.1711
      4 C          -5.9575  -15.7613   23.9573 C.2     1  UNL1        0.2418
      5 O          -6.4424  -14.4574   24.5185 O.2     1  UNL1       -0.2739
      6 N          -6.9440  -16.7866   23.4824 N.am    1  UNL1       -0.2131
      7 C          -6.4591  -18.0904   22.9213 C.2     1  UNL1        0.3188
      8 O          -7.4457  -19.1157   22.4464 O.2     1  UNL1       -0.2515
      9 N          -4.9877  -18.3689   22.8351 N.am    1  UNL1       -0.2131
     10 C          -8.4154  -16.5080   23.5687 C.3     1  UNL1        0.1071
     11 C          -9.2388  -16.4315   22.3173 C.3     1  UNL1        0.0484
     12 C          -9.9189  -17.6604   21.7906 C.ar    1  UNL1       -0.0205
     13 C          -9.9835  -17.9065   20.3123 C.ar    1  UNL1       -0.0042
     14 C         -10.6635  -19.1353   19.7856 C.ar    1  UNL1       -0.0003
     15 C         -11.2789  -20.1181   20.7372 C.ar    1  UNL1       -0.0000
     16 C         -11.2142  -19.8720   22.2154 C.ar    1  UNL1       -0.0003
     17 C         -10.5342  -18.6431   22.7421 C.ar    1  UNL1       -0.0042
     18 C          -4.5029  -19.6728   22.2739 C.3     1  UNL1        0.1071
     19 C          -4.2762  -19.8162   20.7981 C.3     1  UNL1        0.0484
     20 C          -3.1702  -19.0531   20.1316 C.ar    1  UNL1       -0.0205
     21 C          -3.4786  -18.1258   18.9936 C.ar    1  UNL1       -0.0042
     22 C          -2.3725  -17.3627   18.3270 C.ar    1  UNL1       -0.0003
     23 C          -0.9580  -17.5270   18.7984 C.ar    1  UNL1       -0.0000
     24 C          -0.6496  -18.4543   19.9364 C.ar    1  UNL1       -0.0003
     25 C          -1.7556  -19.2174   20.6029 C.ar    1  UNL1       -0.0042
@<TRIPOS>BOND
     1     1     2    2
     2     2     3    1
     3     3     4    1
     4     4     5    2
     5     4     6   am
     6     6    10    1
     7    10    11    1
     8    11    12    1
     9    12    13   ar
    10    13    14   ar
    11    14    15   ar
    12    15    16   ar
    13    16    17   ar
    14     6     7   am
    15     7     8    2
    16     7     9   am
    17     9    18    1
    18    18    19    1
    19    19    20    1
    20    20    21   ar
    21    21    22   ar
    22    22    23   ar
    23    23    24   ar
    24    24    25   ar
    25     9     2   am
    26    25    20   ar
    27    17    12   ar
