@<TRIPOS>MOLECULE
*****
 27 30 0 0 0
SMALL
GASTEIGER

@<TRIPOS>ATOM
      1 C         -11.1012   -2.1163   18.5165 C.3     1  UNL1        0.1363
      2 N         -11.9267   -3.3673   18.5758 N.ar    1  UNL1       -0.2667
      3 C         -13.3863   -3.3197   18.2332 C.ar    1  UNL1        0.2036
      4 N         -14.2118   -4.5707   18.2924 N.ar    1  UNL1       -0.2133
      5 C         -13.5777   -5.8693   18.6942 C.ar    1  UNL1        0.1065
      6 C         -12.1182   -5.9169   19.0368 C.ar    1  UNL1        0.0815
      7 C         -11.2927   -4.6659   18.9776 C.ar    1  UNL1        0.2646
      8 O          -9.8331   -4.7136   19.3202 O.2     1  UNL1       -0.2668
      9 N         -14.0204   -2.0210   17.8313 N.pl3   1  UNL1       -0.2740
     10 C         -14.0808   -1.6320   16.3839 C.3     1  UNL1        0.1257
     11 C         -14.7149   -0.3333   15.9821 C.3     1  UNL1        0.1640
     12 O         -15.2886    0.5763   17.0277 O.3     1  UNL1       -0.3482
     13 C         -15.2282    0.1873   18.4752 C.3     1  UNL1        0.1594
     14 C         -14.5941   -1.1113   18.8769 C.3     1  UNL1        0.1277
     15 C         -15.8020    1.0970   19.5208 C.ar    1  UNL1        0.0337
     16 C         -15.3662    2.5308   19.5884 C.ar    1  UNL1        0.0003
     17 C         -15.9399    3.4404   20.6341 C.ar    1  UNL1       -0.0001
     18 C         -16.9494    2.9163   21.6120 C.ar    1  UNL1        0.0023
     19 C         -17.3851    1.4826   21.5443 C.ar    1  UNL1        0.0294
     20 C         -16.8114    0.5730   20.4987 C.ar    1  UNL1        0.1384
     21 F         -17.2472   -0.8608   20.4310 F       1  UNL1       -0.2044
     22 C         -14.4032   -7.1203   18.7534 C.ar    1  UNL1        0.1024
     23 C         -14.0144   -8.3150   17.9340 C.ar    1  UNL1        0.0414
     24 C         -14.8399   -9.5660   17.9933 C.ar    1  UNL1        0.1023
     25 N         -16.0543   -9.6223   18.8719 N.ar    1  UNL1       -0.2224
     26 C         -16.4431   -8.4277   19.6913 C.ar    1  UNL1        0.1989
     27 N         -15.6176   -7.1767   19.6321 N.ar    1  UNL1       -0.2224
@<TRIPOS>BOND
     1     1     2    1
     2     2     3   ar
     3     3     9    1
     4     9    10    1
     5    10    11    1
     6    11    12    1
     7    12    13    1
     8    13    15    1
     9    15    16   ar
    10    16    17   ar
    11    17    18   ar
    12    18    19   ar
    13    19    20   ar
    14    20    21    1
    15    13    14    1
    16     3     4   ar
    17     4     5   ar
    18     5    22    1
    19    22    23   ar
    20    23    24   ar
    21    24    25   ar
    22    25    26   ar
    23    26    27   ar
    24     5     6   ar
    25     6     7   ar
    26     7     8    2
    27     7     2   ar
    28    14     9    1
    29    27    22   ar
    30    20    15   ar
@<TRIPOS>MOLECULE
*****
 27 30 0 0 0
SMALL
GASTEIGER

@<TRIPOS>ATOM
      1 C          -7.8376  -16.3408   24.1959 C.3     1  UNL1        0.1363
      2 N          -6.5643  -16.7323   23.5063 N.ar    1  UNL1       -0.2667
      3 C          -6.5985  -17.7018   22.3622 C.ar    1  UNL1        0.2036
      4 N          -5.3252  -18.0932   21.6726 N.ar    1  UNL1       -0.2133
      5 C          -4.0178  -17.5152   22.1271 C.ar    1  UNL1        0.1065
      6 C          -3.9837  -16.5457   23.2712 C.ar    1  UNL1        0.0815
      7 C          -5.2569  -16.1543   23.9608 C.ar    1  UNL1        0.2646
      8 O          -5.2228  -15.1847   25.1049 O.2     1  UNL1       -0.2668
      9 N          -7.9059  -18.2798   21.9077 N.pl3   1  UNL1       -0.2740
     10 C          -7.9868  -19.0187   20.6049 C.3     1  UNL1        0.1257
     11 C          -9.2942  -19.5968   20.1504 C.3     1  UNL1        0.1640
     12 O         -10.5207  -19.4359   20.9988 O.3     1  UNL1       -0.3482
     13 C         -10.4398  -18.6970   22.3017 C.3     1  UNL1        0.1594
     14 C          -9.1324  -18.1190   22.7561 C.3     1  UNL1        0.1277
     15 C         -11.6663  -18.5362   23.1501 C.ar    1  UNL1        0.0337
     16 C         -11.6516  -18.9828   24.5821 C.ar    1  UNL1        0.0003
     17 C         -12.8781  -18.8219   25.4305 C.ar    1  UNL1       -0.0001
     18 C         -14.1193  -18.2145   24.8469 C.ar    1  UNL1        0.0023
     19 C         -14.1340  -17.7680   23.4150 C.ar    1  UNL1        0.0294
     20 C         -12.9075  -17.9288   22.5666 C.ar    1  UNL1        0.1384
     21 F         -12.9222  -17.4823   21.1347 F       1  UNL1       -0.2044
     22 C          -2.7445  -17.9066   21.4375 C.ar    1  UNL1        0.1024
     23 C          -2.4503  -19.3530   21.1705 C.ar    1  UNL1        0.0414
     24 C          -1.1770  -19.7445   20.4809 C.ar    1  UNL1        0.1023
     25 N          -0.1980  -18.6896   20.0583 N.ar    1  UNL1       -0.2224
     26 C          -0.4922  -17.2432   20.3253 C.ar    1  UNL1        0.1989
     27 N          -1.7655  -16.8517   21.0149 N.ar    1  UNL1       -0.2224
@<TRIPOS>BOND
     1     1     2    1
     2     2     3   ar
     3     3     9    1
     4     9    10    1
     5    10    11    1
     6    11    12    1
     7    12    13    1
     8    13    15    1
     9    15    16   ar
    10    16    17   ar
    11    17    18   ar
    12    18    19   ar
    13    19    20   ar
    14    20    21    1
    15    13    14    1
    16     3     4   ar
    17     4     5   ar
    18     5    22    1
    19    22    23   ar
    20    23    24   ar
    21    24    25   ar
    22    25    26   ar
    23    26    27   ar
    24     5     6   ar
    25     6     7   ar
    26     7     8    2
    27     7     2   ar
    28    14     9    1
    29    27    22   ar
    30    20    15   ar
@<TRIPOS>MOLECULE
*****
 27 30 0 0 0
SMALL
GASTEIGER

@<TRIPOS>ATOM
      1 C           8.1866   -2.7244   19.9281 C.3     1  UNL1        0.1363
      2 N           6.8238   -2.1027   19.8479 N.ar    1  UNL1       -0.2667
      3 C           6.0901   -1.7393   21.1046 C.ar    1  UNL1        0.2036
      4 N           4.7274   -1.1176   21.0244 N.ar    1  UNL1       -0.2133
      5 C           4.0984   -0.8592   19.6874 C.ar    1  UNL1        0.1065
      6 C           4.8322   -1.2226   18.4307 C.ar    1  UNL1        0.0815
      7 C           6.1949   -1.8443   18.5109 C.ar    1  UNL1        0.2646
      8 O           6.9286   -2.2077   17.2540 O.2     1  UNL1       -0.2668
      9 N           6.7190   -1.9977   22.4417 N.pl3   1  UNL1       -0.2740
     10 C           7.2866   -0.8590   23.2362 C.3     1  UNL1        0.1257
     11 C           7.9156   -1.1173   24.5733 C.3     1  UNL1        0.1640
     12 O           7.9769   -2.5144   25.1158 O.3     1  UNL1       -0.3482
     13 C           7.4093   -3.6532   24.3213 C.3     1  UNL1        0.1594
     14 C           6.7804   -3.3948   22.9843 C.3     1  UNL1        0.1277
     15 C           7.4707   -5.0503   24.8639 C.ar    1  UNL1        0.0337
     16 C           8.0763   -6.1485   24.0409 C.ar    1  UNL1        0.0003
     17 C           8.1377   -7.5456   24.5834 C.ar    1  UNL1       -0.0001
     18 C           7.5935   -7.8444   25.9490 C.ar    1  UNL1        0.0023
     19 C           6.9879   -6.7462   26.7719 C.ar    1  UNL1        0.0294
     20 C           6.9266   -5.3491   26.2293 C.ar    1  UNL1        0.1384
     21 F           6.3210   -4.2509   27.0523 F       1  UNL1       -0.2044
     22 C           2.7357   -0.2375   19.6072 C.ar    1  UNL1        0.1024
     23 C           1.7145   -0.5296   20.6664 C.ar    1  UNL1        0.0414
     24 C           0.3518    0.0922   20.5862 C.ar    1  UNL1        0.1023
     25 N           0.0102    1.0059   19.4467 N.ar    1  UNL1       -0.2224
     26 C           1.0314    1.2980   18.3876 C.ar    1  UNL1        0.1989
     27 N           2.3941    0.6762   18.4678 N.ar    1  UNL1       -0.2224
@<TRIPOS>BOND
     1     1     2    1
     2     2     3   ar
     3     3     9    1
     4     9    10    1
     5    10    11    1
     6    11    12    1
     7    12    13    1
     8    13    15    1
     9    15    16   ar
    10    16    17   ar
    11    17    18   ar
    12    18    19   ar
    13    19    20   ar
    14    20    21    1
    15    13    14    1
    16     3     4   ar
    17     4     5   ar
    18     5    22    1
    19    22    23   ar
    20    23    24   ar
    21    24    25   ar
    22    25    26   ar
    23    26    27   ar
    24     5     6   ar
    25     6     7   ar
    26     7     8    2
    27     7     2   ar
    28    14     9    1
    29    27    22   ar
    30    20    15   ar
@<TRIPOS>MOLECULE
*****
 27 30 0 0 0
SMALL
GASTEIGER

@<TRIPOS>ATOM
      1 C           8.1116   -7.2682   24.2296 C.3     1  UNL1        0.1363
      2 N           7.7986   -6.5411   25.5037 N.ar    1  UNL1       -0.2667
      3 C           7.5817   -5.0570   25.4865 C.ar    1  UNL1        0.2036
      4 N           7.2687   -4.3300   26.7606 N.ar    1  UNL1       -0.2133
      5 C           7.1725   -5.0870   28.0519 C.ar    1  UNL1        0.1065
      6 C           7.3894   -6.5711   28.0692 C.ar    1  UNL1        0.0815
      7 C           7.7024   -7.2982   26.7950 C.ar    1  UNL1        0.2646
      8 O           7.9193   -8.7824   26.8123 O.2     1  UNL1       -0.2668
      9 N           7.6779   -4.2999   24.1951 N.pl3   1  UNL1       -0.2740
     10 C           9.0221   -3.9481   23.6303 C.3     1  UNL1        0.1257
     11 C           9.1183   -3.1909   22.3389 C.3     1  UNL1        0.1640
     12 O           7.8701   -2.7857   21.6124 O.3     1  UNL1       -0.3482
     13 C           6.5258   -3.1376   22.1773 C.3     1  UNL1        0.1594
     14 C           6.4297   -3.8947   23.4686 C.3     1  UNL1        0.1277
     15 C           5.2776   -2.7323   21.4508 C.ar    1  UNL1        0.0337
     16 C           4.4094   -1.6406   22.0028 C.ar    1  UNL1        0.0003
     17 C           3.1612   -1.2354   21.2763 C.ar    1  UNL1       -0.0001
     18 C           2.7812   -1.9218   19.9978 C.ar    1  UNL1        0.0023
     19 C           3.6493   -3.0135   19.4459 C.ar    1  UNL1        0.0294
     20 C           4.8975   -3.4187   20.1724 C.ar    1  UNL1        0.1384
     21 F           5.7657   -4.5104   19.6204 F       1  UNL1       -0.2044
     22 C           6.8595   -4.3599   29.3261 C.ar    1  UNL1        0.1024
     23 C           7.0003   -5.0619   30.6442 C.ar    1  UNL1        0.0414
     24 C           6.6873   -4.3348   31.9183 C.ar    1  UNL1        0.1023
     25 N           6.2334   -2.9058   31.8743 N.ar    1  UNL1       -0.2224
     26 C           6.0926   -2.2039   30.5562 C.ar    1  UNL1        0.1989
     27 N           6.4057   -2.9309   29.2821 N.ar    1  UNL1       -0.2224
@<TRIPOS>BOND
     1     1     2    1
     2     2     3   ar
     3     3     9    1
     4     9    10    1
     5    10    11    1
     6    11    12    1
     7    12    13    1
     8    13    15    1
     9    15    16   ar
    10    16    17   ar
    11    17    18   ar
    12    18    19   ar
    13    19    20   ar
    14    20    21    1
    15    13    14    1
    16     3     4   ar
    17     4     5   ar
    18     5    22    1
    19    22    23   ar
    20    23    24   ar
    21    24    25   ar
    22    25    26   ar
    23    26    27   ar
    24     5     6   ar
    25     6     7   ar
    26     7     8    2
    27     7     2   ar
    28    14     9    1
    29    27    22   ar
    30    20    15   ar
@<TRIPOS>MOLECULE
*****
 27 30 0 0 0
SMALL
GASTEIGER

@<TRIPOS>ATOM
      1 C           6.3453   -2.2286   31.5792 C.3     1  UNL1        0.1363
      2 N           5.1542   -1.6574   30.8685 N.ar    1  UNL1       -0.2667
      3 C           5.1803   -1.4877   29.3784 C.ar    1  UNL1        0.2036
      4 N           3.9892   -0.9165   28.6676 N.ar    1  UNL1       -0.2133
      5 C           2.7721   -0.5150   29.4470 C.ar    1  UNL1        0.1065
      6 C           2.7461   -0.6848   30.9371 C.ar    1  UNL1        0.0815
      7 C           3.9371   -1.2560   31.6478 C.ar    1  UNL1        0.2646
      8 O           3.9110   -1.4258   33.1380 O.2     1  UNL1       -0.2668
      9 N           6.3974   -1.8891   28.5989 N.pl3   1  UNL1       -0.2740
     10 C           7.5549   -0.9431   28.4759 C.3     1  UNL1        0.1257
     11 C           8.7721   -1.3445   27.6964 C.3     1  UNL1        0.1640
     12 O           8.8316   -2.6920   27.0400 O.3     1  UNL1       -0.3482
     13 C           7.6740   -3.6380   27.1630 C.3     1  UNL1        0.1594
     14 C           6.4569   -3.2365   27.9425 C.3     1  UNL1        0.1277
     15 C           7.7335   -4.9854   26.5066 C.ar    1  UNL1        0.0337
     16 C           7.9073   -5.0885   25.0202 C.ar    1  UNL1        0.0003
     17 C           7.9668   -6.4360   24.3638 C.ar    1  UNL1       -0.0001
     18 C           7.8525   -7.6803   25.1938 C.ar    1  UNL1        0.0023
     19 C           7.6787   -7.5771   26.6801 C.ar    1  UNL1        0.0294
     20 C           7.6192   -6.2296   27.3365 C.ar    1  UNL1        0.1384
     21 F           7.4454   -6.1265   28.8229 F       1  UNL1       -0.2044
     22 C           1.5810    0.0562   28.7363 C.ar    1  UNL1        0.1024
     23 C           1.7720    0.8951   27.5076 C.ar    1  UNL1        0.0414
     24 C           0.5809    1.4663   26.7969 C.ar    1  UNL1        0.1023
     25 N          -0.8011    1.1986   27.3149 N.ar    1  UNL1       -0.2224
     26 C          -0.9920    0.3597   28.5436 C.ar    1  UNL1        0.1989
     27 N           0.1990   -0.2115   29.2543 N.ar    1  UNL1       -0.2224
@<TRIPOS>BOND
     1     1     2    1
     2     2     3   ar
     3     3     9    1
     4     9    10    1
     5    10    11    1
     6    11    12    1
     7    12    13    1
     8    13    15    1
     9    15    16   ar
    10    16    17   ar
    11    17    18   ar
    12    18    19   ar
    13    19    20   ar
    14    20    21    1
    15    13    14    1
    16     3     4   ar
    17     4     5   ar
    18     5    22    1
    19    22    23   ar
    20    23    24   ar
    21    24    25   ar
    22    25    26   ar
    23    26    27   ar
    24     5     6   ar
    25     6     7   ar
    26     7     8    2
    27     7     2   ar
    28    14     9    1
    29    27    22   ar
    30    20    15   ar
@<TRIPOS>MOLECULE
*****
 27 30 0 0 0
SMALL
GASTEIGER

@<TRIPOS>ATOM
      1 C           0.4943    2.5732   20.8097 C.3     1  UNL1        0.1363
      2 N           1.3468    1.3482   20.6591 N.ar    1  UNL1       -0.2667
      3 C           2.1939    0.8785   21.8044 C.ar    1  UNL1        0.2036
      4 N           3.0464   -0.3465   21.6537 N.ar    1  UNL1       -0.2133
      5 C           3.0518   -1.1017   20.3577 C.ar    1  UNL1        0.1065
      6 C           2.2048   -0.6319   19.2124 C.ar    1  UNL1        0.0815
      7 C           1.3523    0.5930   19.3631 C.ar    1  UNL1        0.2646
      8 O           0.5052    1.0628   18.2177 O.2     1  UNL1       -0.2668
      9 N           2.1884    1.6337   23.1005 N.pl3   1  UNL1       -0.2740
     10 C           2.8284    2.9878   23.1821 C.3     1  UNL1        0.1257
     11 C           2.8230    3.7430   24.4782 C.3     1  UNL1        0.1640
     12 O           2.1776    3.1440   25.6925 O.3     1  UNL1       -0.3482
     13 C           1.5376    1.7898   25.6108 C.3     1  UNL1        0.1594
     14 C           1.5430    1.0347   24.3148 C.3     1  UNL1        0.1277
     15 C           0.8921    1.1908   26.8251 C.ar    1  UNL1        0.0337
     16 C           1.7176    0.4124   27.8064 C.ar    1  UNL1        0.0003
     17 C           1.0722   -0.1866   29.0207 C.ar    1  UNL1       -0.0001
     18 C          -0.3988   -0.0072   29.2538 C.ar    1  UNL1        0.0023
     19 C          -1.2242    0.7711   28.2726 C.ar    1  UNL1        0.0294
     20 C          -0.5787    1.3701   27.0582 C.ar    1  UNL1        0.1384
     21 F          -1.4042    2.1484   26.0770 F       1  UNL1       -0.2044
     22 C           3.9043   -2.3267   20.2071 C.ar    1  UNL1        0.1024
     23 C           3.4311   -3.4702   19.3595 C.ar    1  UNL1        0.0414
     24 C           4.2835   -4.6951   19.2088 C.ar    1  UNL1        0.1023
     25 N           5.6093   -4.7766   19.9057 N.ar    1  UNL1       -0.2224
     26 C           6.0826   -3.6331   20.7533 C.ar    1  UNL1        0.1989
     27 N           5.2301   -2.4082   20.9040 N.ar    1  UNL1       -0.2224
@<TRIPOS>BOND
     1     1     2    1
     2     2     3   ar
     3     3     9    1
     4     9    10    1
     5    10    11    1
     6    11    12    1
     7    12    13    1
     8    13    15    1
     9    15    16   ar
    10    16    17   ar
    11    17    18   ar
    12    18    19   ar
    13    19    20   ar
    14    20    21    1
    15    13    14    1
    16     3     4   ar
    17     4     5   ar
    18     5    22    1
    19    22    23   ar
    20    23    24   ar
    21    24    25   ar
    22    25    26   ar
    23    26    27   ar
    24     5     6   ar
    25     6     7   ar
    26     7     8    2
    27     7     2   ar
    28    14     9    1
    29    27    22   ar
    30    20    15   ar
@<TRIPOS>MOLECULE
*****
 27 30 0 0 0
SMALL
GASTEIGER

@<TRIPOS>ATOM
      1 C           3.2244    3.6505   22.2723 C.3     1  UNL1        0.1363
      2 N           2.6494    3.0143   23.5031 N.ar    1  UNL1       -0.2667
      3 C           1.8306    1.7629   23.3878 C.ar    1  UNL1        0.2036
      4 N           1.2557    1.1267   24.6186 N.ar    1  UNL1       -0.2133
      5 C           1.4996    1.7420   25.9646 C.ar    1  UNL1        0.1065
      6 C           2.3184    2.9935   26.0799 C.ar    1  UNL1        0.0815
      7 C           2.8933    3.6296   24.8491 C.ar    1  UNL1        0.2646
      8 O           3.7122    4.8811   24.9644 O.2     1  UNL1       -0.2668
      9 N           1.5867    1.1475   22.0417 N.pl3   1  UNL1       -0.2740
     10 C           0.3556    1.5079   21.2642 C.3     1  UNL1        0.1257
     11 C           0.1116    0.8925   19.9182 C.3     1  UNL1        0.1640
     12 O           1.0988   -0.0833   19.3496 O.3     1  UNL1       -0.3482
     13 C           2.3299   -0.4437   20.1271 C.3     1  UNL1        0.1594
     14 C           2.5738    0.1717   21.4732 C.3     1  UNL1        0.1277
     15 C           3.3171   -1.4195   19.5586 C.ar    1  UNL1        0.0337
     16 C           3.5743   -2.7206   20.2594 C.ar    1  UNL1        0.0003
     17 C           4.5614   -3.6964   19.6909 C.ar    1  UNL1       -0.0001
     18 C           5.2915   -3.3712   18.4215 C.ar    1  UNL1        0.0023
     19 C           5.0344   -2.0701   17.7207 C.ar    1  UNL1        0.0294
     20 C           4.0472   -1.0943   18.2893 C.ar    1  UNL1        0.1384
     21 F           3.7901    0.2068   17.5884 F       1  UNL1       -0.2044
     22 C           0.9246    1.1059   27.1954 C.ar    1  UNL1        0.1024
     23 C          -0.5558    1.1382   27.4346 C.ar    1  UNL1        0.0414
     24 C          -1.1307    0.5021   28.6653 C.ar    1  UNL1        0.1023
     25 N          -0.2252   -0.1664   29.6569 N.ar    1  UNL1       -0.2224
     26 C           1.2552   -0.1987   29.4177 C.ar    1  UNL1        0.1989
     27 N           1.8301    0.4374   28.1869 N.ar    1  UNL1       -0.2224
@<TRIPOS>BOND
     1     1     2    1
     2     2     3   ar
     3     3     9    1
     4     9    10    1
     5    10    11    1
     6    11    12    1
     7    12    13    1
     8    13    15    1
     9    15    16   ar
    10    16    17   ar
    11    17    18   ar
    12    18    19   ar
    13    19    20   ar
    14    20    21    1
    15    13    14    1
    16     3     4   ar
    17     4     5   ar
    18     5    22    1
    19    22    23   ar
    20    23    24   ar
    21    24    25   ar
    22    25    26   ar
    23    26    27   ar
    24     5     6   ar
    25     6     7   ar
    26     7     8    2
    27     7     2   ar
    28    14     9    1
    29    27    22   ar
    30    20    15   ar
@<TRIPOS>MOLECULE
*****
 27 30 0 0 0
SMALL
GASTEIGER

@<TRIPOS>ATOM
      1 C           2.1480    3.9456   19.1438 C.3     1  UNL1        0.1363
      2 N           2.5188    2.5262   19.4564 N.ar    1  UNL1       -0.2667
      3 C           1.6809    1.7242   20.4076 C.ar    1  UNL1        0.2036
      4 N           2.0518    0.3047   20.7202 N.ar    1  UNL1       -0.2133
      5 C           3.2605   -0.3127   20.0816 C.ar    1  UNL1        0.1065
      6 C           4.0983    0.4893   19.1305 C.ar    1  UNL1        0.0815
      7 C           3.7275    1.9087   18.8179 C.ar    1  UNL1        0.2646
      8 O           4.5654    2.7107   17.8667 O.2     1  UNL1       -0.2668
      9 N           0.4722    2.3416   21.0462 N.pl3   1  UNL1       -0.2740
     10 C           0.5015    2.7203   22.4973 C.3     1  UNL1        0.1257
     11 C          -0.7072    3.3377   23.1359 C.3     1  UNL1        0.1640
     12 O          -1.9453    3.5764   22.3234 O.3     1  UNL1       -0.3482
     13 C          -1.9746    3.1976   20.8722 C.3     1  UNL1        0.1594
     14 C          -0.7659    2.5802   20.2337 C.3     1  UNL1        0.1277
     15 C          -3.2127    3.4362   20.0597 C.ar    1  UNL1        0.0337
     16 C          -3.0996    3.9314   18.6483 C.ar    1  UNL1        0.0003
     17 C          -4.3377    4.1700   17.8357 C.ar    1  UNL1       -0.0001
     18 C          -5.6889    3.9135   18.4346 C.ar    1  UNL1        0.0023
     19 C          -5.8019    3.4184   19.8460 C.ar    1  UNL1        0.0294
     20 C          -4.5638    3.1797   20.6585 C.ar    1  UNL1        0.1384
     21 F          -4.6769    2.6846   22.0700 F       1  UNL1       -0.2044
     22 C           3.6313   -1.7321   20.3942 C.ar    1  UNL1        0.1024
     23 C           4.0640   -2.1063   21.7809 C.ar    1  UNL1        0.0414
     24 C           4.4349   -3.5257   22.0935 C.ar    1  UNL1        0.1023
     25 N           4.3730   -4.5710   21.0194 N.ar    1  UNL1       -0.2224
     26 C           3.9403   -4.1968   19.6328 C.ar    1  UNL1        0.1989
     27 N           3.5694   -2.7774   19.3202 N.ar    1  UNL1       -0.2224
@<TRIPOS>BOND
     1     1     2    1
     2     2     3   ar
     3     3     9    1
     4     9    10    1
     5    10    11    1
     6    11    12    1
     7    12    13    1
     8    13    15    1
     9    15    16   ar
    10    16    17   ar
    11    17    18   ar
    12    18    19   ar
    13    19    20   ar
    14    20    21    1
    15    13    14    1
    16     3     4   ar
    17     4     5   ar
    18     5    22    1
    19    22    23   ar
    20    23    24   ar
    21    24    25   ar
    22    25    26   ar
    23    26    27   ar
    24     5     6   ar
    25     6     7   ar
    26     7     8    2
    27     7     2   ar
    28    14     9    1
    29    27    22   ar
    30    20    15   ar
@<TRIPOS>MOLECULE
*****
 27 30 0 0 0
SMALL
GASTEIGER

@<TRIPOS>ATOM
      1 C           6.5238   -1.9245   17.8627 C.3     1  UNL1        0.1363
      2 N           5.3680   -1.2595   18.5498 N.ar    1  UNL1       -0.2667
      3 C           5.4355   -0.9694   20.0199 C.ar    1  UNL1        0.2036
      4 N           4.2798   -0.3044   20.7070 N.ar    1  UNL1       -0.2133
      5 C           3.0566    0.0706   19.9239 C.ar    1  UNL1        0.1065
      6 C           2.9891   -0.2195   18.4538 C.ar    1  UNL1        0.0815
      7 C           4.1448   -0.8846   17.7668 C.ar    1  UNL1        0.2646
      8 O           4.0773   -1.1746   16.2966 O.2     1  UNL1       -0.2668
      9 N           6.6588   -1.3443   20.8030 N.pl3   1  UNL1       -0.2740
     10 C           7.7810   -0.3611   20.9574 C.3     1  UNL1        0.1257
     11 C           9.0042   -0.7361   21.7405 C.3     1  UNL1        0.1640
     12 O           9.1052   -2.0942   22.3692 O.3     1  UNL1       -0.3482
     13 C           7.9829   -3.0774   22.2147 C.3     1  UNL1        0.1594
     14 C           6.7597   -2.7025   21.4317 C.3     1  UNL1        0.1277
     15 C           8.0838   -4.4356   22.8434 C.ar    1  UNL1        0.0337
     16 C           7.4998   -4.6776   24.2037 C.ar    1  UNL1        0.0003
     17 C           7.6007   -6.0358   24.8324 C.ar    1  UNL1       -0.0001
     18 C           8.2857   -7.1519   24.1007 C.ar    1  UNL1        0.0023
     19 C           8.8696   -6.9098   22.7405 C.ar    1  UNL1        0.0294
     20 C           8.7687   -5.5517   22.1118 C.ar    1  UNL1        0.1384
     21 F           9.3527   -5.3096   20.7515 F       1  UNL1       -0.2044
     22 C           1.9009    0.7356   20.6110 C.ar    1  UNL1        0.1024
     23 C           0.7972    1.3471   19.8000 C.ar    1  UNL1        0.0414
     24 C          -0.3585    2.0121   20.4870 C.ar    1  UNL1        0.1023
     25 N          -0.4105    2.0656   21.9852 N.ar    1  UNL1       -0.2224
     26 C           0.6932    1.4541   22.7962 C.ar    1  UNL1        0.1989
     27 N           1.8489    0.7890   22.1091 N.ar    1  UNL1       -0.2224
@<TRIPOS>BOND
     1     1     2    1
     2     2     3   ar
     3     3     9    1
     4     9    10    1
     5    10    11    1
     6    11    12    1
     7    12    13    1
     8    13    15    1
     9    15    16   ar
    10    16    17   ar
    11    17    18   ar
    12    18    19   ar
    13    19    20   ar
    14    20    21    1
    15    13    14    1
    16     3     4   ar
    17     4     5   ar
    18     5    22    1
    19    22    23   ar
    20    23    24   ar
    21    24    25   ar
    22    25    26   ar
    23    26    27   ar
    24     5     6   ar
    25     6     7   ar
    26     7     8    2
    27     7     2   ar
    28    14     9    1
    29    27    22   ar
    30    20    15   ar
