@<TRIPOS>MOLECULE
*****
 37 42 0 0 0
SMALL
GASTEIGER

@<TRIPOS>ATOM
      1 C          -0.1712    3.5268   22.5714 C.3     1  UNL1        0.0468
      2 C           1.5819    0.1198   28.3190 C.ar    1  UNL1        0.1516
      3 N           0.4856    0.2536   29.3341 N.ar    1  UNL1       -0.2192
      4 C          -0.6061    1.0863   28.7302 C.ar    1  UNL1        0.1828
      5 N          -0.1846    1.4672   27.3420 N.ar    1  UNL1       -0.2851
      6 C           1.1677    0.8698   27.0879 C.ar    1  UNL1        0.1087
      7 C           1.8472    1.0861   25.7682 C.3     1  UNL1        0.2510
      8 O           1.1744    1.8996   24.7026 O.3     1  UNL1       -0.4678
      9 C          -0.1779    2.4970   24.9567 C.ar    1  UNL1        0.1511
     10 C          -0.8507    3.3105   23.8912 C.ar    1  UNL1        0.0146
     11 C          -2.2030    3.9079   24.1452 C.ar    1  UNL1       -0.0011
     12 C          -2.8824    3.6917   25.4649 C.ar    1  UNL1        0.0014
     13 C          -2.2096    2.8781   26.5305 C.ar    1  UNL1        0.0206
     14 C          -0.8574    2.2807   26.2764 C.ar    1  UNL1        0.0989
     15 C           5.0573   -1.0515   29.8355 C.3     1  UNL1        0.1110
     16 N           3.7724   -0.2997   29.6516 N.am    1  UNL1       -0.2979
     17 C           2.8668   -0.6320   28.5029 C.2     1  UNL1        0.2649
     18 O           3.2461   -1.7161   27.5382 O.2     1  UNL1       -0.2684
     19 H           3.5234    0.4119   30.2848 H       1  UNL1        0.1498
     20 C          -0.4074    2.5699   21.4406 C.3     1  UNL1        0.0770
     21 N           0.6197    1.5267   21.1139 N.3     1  UNL1       -0.2695
     22 C           2.0763    1.8164   21.3247 C.3     1  UNL1        0.0938
     23 C           3.1034    0.7732   20.9980 C.3     1  UNL1        0.1081
     24 N           2.6739   -0.5597   20.4606 N.pl3   1  UNL1       -0.3046
     25 C           1.2174   -0.8495   20.2499 C.3     1  UNL1        0.1081
     26 C           0.1902    0.1938   20.5765 C.3     1  UNL1        0.0938
     27 C           3.7010   -1.6029   20.1339 C.ar    1  UNL1        0.0493
     28 C           4.0032   -1.9357   18.7028 C.ar    1  UNL1        0.0146
     29 C           5.0303   -2.9789   18.3761 C.ar    1  UNL1        0.0028
     30 C           5.7552   -3.6894   19.4805 C.ar    1  UNL1        0.0192
     31 C           5.4530   -3.3567   20.9115 C.ar    1  UNL1        0.0821
     32 N           6.1780   -4.0673   22.0159 N.ar    1  UNL1       -0.2496
     33 C           5.8757   -3.7345   23.4470 C.ar    1  UNL1        0.0593
     34 C           6.6007   -4.4451   24.5514 C.3     1  UNL1        0.0521
     35 C           4.8487   -2.6913   23.7737 C.ar    1  UNL1        0.0148
     36 C           4.1238   -1.9808   22.6693 C.ar    1  UNL1        0.0039
     37 C           4.4259   -2.3135   21.2383 C.ar    1  UNL1        0.0310
@<TRIPOS>BOND
     1    15    16    1
     2    16    17   am
     3    17    18    2
     4    17     2    1
     5     2     3   ar
     6     3     4   ar
     7     4     5   ar
     8     5     6   ar
     9     6     7    1
    10     7     8    1
    11     8     9    1
    12     9    10   ar
    13    10     1    1
    14     1    20    1
    15    20    21    1
    16    21    22    1
    17    22    23    1
    18    23    24    1
    19    24    27    1
    20    27    28   ar
    21    28    29   ar
    22    29    30   ar
    23    30    31   ar
    24    31    32   ar
    25    32    33   ar
    26    33    34    1
    27    33    35   ar
    28    35    36   ar
    29    36    37   ar
    30    24    25    1
    31    25    26    1
    32    10    11   ar
    33    11    12   ar
    34    12    13   ar
    35    13    14   ar
    36     6     2   ar
    37    14     9   ar
    38    14     5    1
    39    26    21    1
    40    37    27   ar
    41    37    31   ar
    42    16    19    1
@<TRIPOS>MOLECULE
*****
 37 42 0 0 0
SMALL
GASTEIGER

@<TRIPOS>ATOM
      1 C          -0.6658    3.9664   19.1079 C.3     1  UNL1        0.0468
      2 C          -5.9349    4.5415   23.5375 C.ar    1  UNL1        0.1516
      3 N          -7.2283    4.5525   22.7778 N.ar    1  UNL1       -0.2192
      4 C          -6.9089    4.4337   21.3170 C.ar    1  UNL1        0.1828
      5 N          -5.4182    4.3492   21.1739 N.ar    1  UNL1       -0.2851
      6 C          -4.8163    4.4158   22.5462 C.ar    1  UNL1        0.1087
      7 C          -3.3271    4.3534   22.7159 C.3     1  UNL1        0.2510
      8 O          -2.4400    4.2244   21.5132 O.3     1  UNL1       -0.4678
      9 C          -3.0420    4.1578   20.1409 C.ar    1  UNL1        0.1511
     10 C          -2.1549    4.0288   18.9382 C.ar    1  UNL1        0.0146
     11 C          -2.7568    3.9622   17.5659 C.ar    1  UNL1       -0.0011
     12 C          -4.2458    4.0246   17.3963 C.ar    1  UNL1        0.0014
     13 C          -5.1329    4.1536   18.5990 C.ar    1  UNL1        0.0206
     14 C          -4.5310    4.2202   19.9712 C.ar    1  UNL1        0.0989
     15 C          -6.2308    5.8998   27.2546 C.3     1  UNL1        0.1110
     16 N          -6.3793    5.8023   25.7652 N.am    1  UNL1       -0.2979
     17 C          -5.7864    4.6389   25.0269 C.2     1  UNL1        0.2649
     18 O          -5.0450    3.5731   25.7781 O.2     1  UNL1       -0.2684
     19 H          -6.8660    6.5019   25.2722 H       1  UNL1        0.1498
     20 C           0.1543    3.0824   18.2158 C.3     1  UNL1        0.0770
     21 N           0.9058    1.9212   18.7962 N.3     1  UNL1       -0.2695
     22 C           0.1858    0.9034   19.6305 C.3     1  UNL1        0.0938
     23 C           0.9372   -0.2578   20.2110 C.3     1  UNL1        0.1081
     24 N           2.4086   -0.4013   19.9571 N.pl3   1  UNL1       -0.3046
     25 C           3.1285    0.6163   19.1229 C.3     1  UNL1        0.1081
     26 C           2.3771    1.7776   18.5424 C.3     1  UNL1        0.0938
     27 C           3.1600   -1.5626   20.5376 C.ar    1  UNL1        0.0493
     28 C           3.4954   -2.7445   19.6770 C.ar    1  UNL1        0.0146
     29 C           4.2469   -3.9057   20.2574 C.ar    1  UNL1        0.0028
     30 C           4.6628   -3.8851   21.6984 C.ar    1  UNL1        0.0192
     31 C           4.3274   -2.7032   22.5590 C.ar    1  UNL1        0.0821
     32 N           4.7433   -2.6826   24.0000 N.ar    1  UNL1       -0.2496
     33 C           4.4078   -1.5007   24.8606 C.ar    1  UNL1        0.0593
     34 C           4.8238   -1.4800   26.3017 C.3     1  UNL1        0.0521
     35 C           3.6564   -0.3394   24.2802 C.ar    1  UNL1        0.0148
     36 C           3.2405   -0.3601   22.8392 C.ar    1  UNL1        0.0039
     37 C           3.5759   -1.5419   21.9786 C.ar    1  UNL1        0.0310
@<TRIPOS>BOND
     1    15    16    1
     2    16    17   am
     3    17    18    2
     4    17     2    1
     5     2     3   ar
     6     3     4   ar
     7     4     5   ar
     8     5     6   ar
     9     6     7    1
    10     7     8    1
    11     8     9    1
    12     9    10   ar
    13    10     1    1
    14     1    20    1
    15    20    21    1
    16    21    22    1
    17    22    23    1
    18    23    24    1
    19    24    27    1
    20    27    28   ar
    21    28    29   ar
    22    29    30   ar
    23    30    31   ar
    24    31    32   ar
    25    32    33   ar
    26    33    34    1
    27    33    35   ar
    28    35    36   ar
    29    36    37   ar
    30    24    25    1
    31    25    26    1
    32    10    11   ar
    33    11    12   ar
    34    12    13   ar
    35    13    14   ar
    36     6     2   ar
    37    14     9   ar
    38    14     5    1
    39    26    21    1
    40    37    27   ar
    41    37    31   ar
    42    16    19    1
@<TRIPOS>MOLECULE
*****
 37 42 0 0 0
SMALL
GASTEIGER

@<TRIPOS>ATOM
      1 C          -0.5674    3.9478   22.9521 C.3     1  UNL1        0.0468
      2 C           1.3787    0.1537   28.3865 C.ar    1  UNL1        0.1516
      3 N           0.2855    0.1530   29.4136 N.ar    1  UNL1       -0.2192
      4 C          -0.8466    0.9838   28.8861 C.ar    1  UNL1        0.1828
      5 N          -0.4530    1.4979   27.5330 N.ar    1  UNL1       -0.2851
      6 C           0.9223    0.9848   27.2243 C.ar    1  UNL1        0.1087
      7 C           1.5814    1.3408   25.9247 C.3     1  UNL1        0.2510
      8 O           0.8651    2.2098   24.9338 O.3     1  UNL1       -0.4678
      9 C          -0.5102    2.7228   25.2426 C.ar    1  UNL1        0.1511
     10 C          -1.2265    3.5918   24.2517 C.ar    1  UNL1        0.0146
     11 C          -2.6018    4.1048   24.5604 C.ar    1  UNL1       -0.0011
     12 C          -3.2608    3.7489   25.8600 C.ar    1  UNL1        0.0014
     13 C          -2.5446    2.8799   26.8508 C.ar    1  UNL1        0.0206
     14 C          -1.1693    2.3669   26.5421 C.ar    1  UNL1        0.0989
     15 C           4.5907   -1.9711   27.4283 C.3     1  UNL1        0.1110
     16 N           3.2725   -1.2647   27.3132 N.am    1  UNL1       -0.2979
     17 C           2.6969   -0.5527   28.5015 C.2     1  UNL1        0.2649
     18 O           3.4396   -0.5473   29.8047 O.2     1  UNL1       -0.2684
     19 H           2.7850   -1.2682   26.4579 H       1  UNL1        0.1498
     20 C          -0.7988    3.0996   21.7368 C.3     1  UNL1        0.0770
     21 N           0.3683    2.5267   20.9887 N.3     1  UNL1       -0.2695
     22 C           1.7008    2.3948   21.6648 C.3     1  UNL1        0.0938
     23 C           2.8679    1.8219   20.9167 C.3     1  UNL1        0.1081
     24 N           2.7026    1.3808   19.4926 N.pl3   1  UNL1       -0.3046
     25 C           1.3701    1.5127   18.8165 C.3     1  UNL1        0.1081
     26 C           0.2029    2.0856   19.5646 C.3     1  UNL1        0.0938
     27 C           3.8697    0.8079   18.7445 C.ar    1  UNL1        0.0493
     28 C           4.8064    1.7172   18.0057 C.ar    1  UNL1        0.0146
     29 C           5.9735    1.1443   17.2577 C.ar    1  UNL1        0.0028
     30 C           6.2039   -0.3378   17.2484 C.ar    1  UNL1        0.0192
     31 C           5.2673   -1.2471   17.9871 C.ar    1  UNL1        0.0821
     32 N           5.4977   -2.7293   17.9779 N.ar    1  UNL1       -0.2496
     33 C           4.5609   -3.6386   18.7167 C.ar    1  UNL1        0.0593
     34 C           4.7914   -5.1207   18.7074 C.3     1  UNL1        0.0521
     35 C           3.3939   -3.0657   19.4648 C.ar    1  UNL1        0.0148
     36 C           3.1634   -1.5835   19.4740 C.ar    1  UNL1        0.0039
     37 C           4.1001   -0.6742   18.7353 C.ar    1  UNL1        0.0310
@<TRIPOS>BOND
     1    15    16    1
     2    16    17   am
     3    17    18    2
     4    17     2    1
     5     2     3   ar
     6     3     4   ar
     7     4     5   ar
     8     5     6   ar
     9     6     7    1
    10     7     8    1
    11     8     9    1
    12     9    10   ar
    13    10     1    1
    14     1    20    1
    15    20    21    1
    16    21    22    1
    17    22    23    1
    18    23    24    1
    19    24    27    1
    20    27    28   ar
    21    28    29   ar
    22    29    30   ar
    23    30    31   ar
    24    31    32   ar
    25    32    33   ar
    26    33    34    1
    27    33    35   ar
    28    35    36   ar
    29    36    37   ar
    30    24    25    1
    31    25    26    1
    32    10    11   ar
    33    11    12   ar
    34    12    13   ar
    35    13    14   ar
    36     6     2   ar
    37    14     9   ar
    38    14     5    1
    39    26    21    1
    40    37    27   ar
    41    37    31   ar
    42    16    19    1
@<TRIPOS>MOLECULE
*****
 37 42 0 0 0
SMALL
GASTEIGER

@<TRIPOS>ATOM
      1 C           5.9141   -2.8634   32.7402 C.3     1  UNL1        0.0468
      2 C           3.4164    2.1543   36.7776 C.ar    1  UNL1        0.1516
      3 N           2.4732    3.0107   35.9859 N.ar    1  UNL1       -0.2192
      4 C           2.4114    2.4643   34.5903 C.ar    1  UNL1        0.1828
      5 N           3.3165    1.2702   34.5195 N.ar    1  UNL1       -0.2851
      6 C           3.9376    1.0787   35.8713 C.ar    1  UNL1        0.1087
      7 C           4.8976   -0.0506   36.1025 C.3     1  UNL1        0.2510
      8 O           5.2364   -0.9882   34.9817 O.3     1  UNL1       -0.4678
      9 C           4.6153   -0.7966   33.6298 C.ar    1  UNL1        0.1511
     10 C           4.9541   -1.7342   32.5091 C.ar    1  UNL1        0.0146
     11 C           4.3330   -1.5426   31.1573 C.ar    1  UNL1       -0.0011
     12 C           3.3731   -0.4134   30.9262 C.ar    1  UNL1        0.0014
     13 C           3.0342    0.5242   32.0469 C.ar    1  UNL1        0.0206
     14 C           3.6553    0.3326   33.3988 C.ar    1  UNL1        0.0989
     15 C           5.4162    3.2122   40.0382 C.3     1  UNL1        0.1110
     16 N           5.0572    3.0256   38.5938 N.am    1  UNL1       -0.2979
     17 C           3.7754    2.3408   38.2220 C.2     1  UNL1        0.2649
     18 O           2.8528    1.8425   39.2946 O.2     1  UNL1       -0.2684
     19 H           5.6627    3.3527   37.8898 H       1  UNL1        0.1498
     20 C           7.2694   -2.8389   32.0979 C.3     1  UNL1        0.0770
     21 N           7.5161   -3.6138   30.8375 N.3     1  UNL1       -0.2695
     22 C           8.6134   -3.1970   29.9035 C.3     1  UNL1        0.0938
     23 C           8.8600   -3.9718   28.6430 C.3     1  UNL1        0.1081
     24 N           8.0095   -5.1634   28.3165 N.pl3   1  UNL1       -0.3046
     25 C           6.9122   -5.5802   29.2504 C.3     1  UNL1        0.1081
     26 C           6.6655   -4.8054   30.5110 C.3     1  UNL1        0.0938
     27 C           8.2562   -5.9382   27.0561 C.ar    1  UNL1        0.0493
     28 C           8.9549   -7.2643   27.1154 C.ar    1  UNL1        0.0146
     29 C           9.2016   -8.0391   25.8550 C.ar    1  UNL1        0.0028
     30 C           8.7496   -7.4879   24.5351 C.ar    1  UNL1        0.0192
     31 C           8.0509   -6.1620   24.4758 C.ar    1  UNL1        0.0821
     32 N           7.5989   -5.6108   23.1559 N.ar    1  UNL1       -0.2496
     33 C           6.9002   -4.2847   23.0966 C.ar    1  UNL1        0.0593
     34 C           6.4482   -3.7336   21.7768 C.3     1  UNL1        0.0521
     35 C           6.6535   -3.5099   24.3571 C.ar    1  UNL1        0.0148
     36 C           7.1055   -4.0611   25.6769 C.ar    1  UNL1        0.0039
     37 C           7.8042   -5.3871   25.7363 C.ar    1  UNL1        0.0310
@<TRIPOS>BOND
     1    15    16    1
     2    16    17   am
     3    17    18    2
     4    17     2    1
     5     2     3   ar
     6     3     4   ar
     7     4     5   ar
     8     5     6   ar
     9     6     7    1
    10     7     8    1
    11     8     9    1
    12     9    10   ar
    13    10     1    1
    14     1    20    1
    15    20    21    1
    16    21    22    1
    17    22    23    1
    18    23    24    1
    19    24    27    1
    20    27    28   ar
    21    28    29   ar
    22    29    30   ar
    23    30    31   ar
    24    31    32   ar
    25    32    33   ar
    26    33    34    1
    27    33    35   ar
    28    35    36   ar
    29    36    37   ar
    30    24    25    1
    31    25    26    1
    32    10    11   ar
    33    11    12   ar
    34    12    13   ar
    35    13    14   ar
    36     6     2   ar
    37    14     9   ar
    38    14     5    1
    39    26    21    1
    40    37    27   ar
    41    37    31   ar
    42    16    19    1
@<TRIPOS>MOLECULE
*****
 37 42 0 0 0
SMALL
GASTEIGER

@<TRIPOS>ATOM
      1 C           5.9615   -2.6288   32.7260 C.3     1  UNL1        0.0468
      2 C           0.8964    1.3941   30.3019 C.ar    1  UNL1        0.1516
      3 N           0.6346    2.5081   31.2717 N.ar    1  UNL1       -0.2192
      4 C           1.5752    2.3459   32.4288 C.ar    1  UNL1        0.1828
      5 N           2.4184    1.1317   32.1741 N.ar    1  UNL1       -0.2851
      6 C           1.9988    0.5435   30.8596 C.ar    1  UNL1        0.1087
      7 C           2.6748   -0.6908   30.3403 C.3     1  UNL1        0.2510
      8 O           3.7704   -1.3368   31.1355 O.3     1  UNL1       -0.4678
      9 C           4.1899   -0.7485   32.4501 C.ar    1  UNL1        0.1511
     10 C           5.2855   -1.3945   33.2453 C.ar    1  UNL1        0.0146
     11 C           5.7051   -0.8063   34.5598 C.ar    1  UNL1       -0.0011
     12 C           5.0291    0.4279   35.0790 C.ar    1  UNL1        0.0014
     13 C           3.9335    1.0739   34.2838 C.ar    1  UNL1        0.0206
     14 C           3.5139    0.4857   32.9693 C.ar    1  UNL1        0.0989
     15 C          -0.7329    2.0873   26.7502 C.3     1  UNL1        0.1110
     16 N          -0.0178    2.3113   28.0496 N.am    1  UNL1       -0.2979
     17 C           0.1813    1.1701   29.0025 C.2     1  UNL1        0.2649
     18 O          -0.3348   -0.1951   28.6560 O.2     1  UNL1       -0.2684
     19 H           0.3209    3.2073   28.2770 H       1  UNL1        0.1498
     20 C           7.2605   -2.5168   31.9843 C.3     1  UNL1        0.0770
     21 N           7.4884   -3.3290   30.7440 N.3     1  UNL1       -0.2695
     22 C           6.5330   -4.4268   30.3802 C.3     1  UNL1        0.0938
     23 C           6.7610   -5.2389   29.1399 C.3     1  UNL1        0.1081
     24 N           7.9442   -4.9534   28.2633 N.pl3   1  UNL1       -0.3046
     25 C           8.8995   -3.8557   28.6270 C.3     1  UNL1        0.1081
     26 C           8.6716   -3.0434   29.8674 C.3     1  UNL1        0.0938
     27 C           8.1721   -5.7656   27.0230 C.ar    1  UNL1        0.0493
     28 C           8.8741   -7.0883   27.1111 C.ar    1  UNL1        0.0146
     29 C           9.1020   -7.9005   25.8708 C.ar    1  UNL1        0.0028
     30 C           8.6280   -7.3900   24.5424 C.ar    1  UNL1        0.0192
     31 C           7.9260   -6.0673   24.4543 C.ar    1  UNL1        0.0821
     32 N           7.4520   -5.5569   23.1258 N.ar    1  UNL1       -0.2496
     33 C           6.7500   -4.2341   23.0378 C.ar    1  UNL1        0.0593
     34 C           6.2760   -3.7237   21.7093 C.3     1  UNL1        0.0521
     35 C           6.5221   -3.4220   24.2780 C.ar    1  UNL1        0.0148
     36 C           6.9961   -3.9324   25.6065 C.ar    1  UNL1        0.0039
     37 C           7.6981   -5.2551   25.6946 C.ar    1  UNL1        0.0310
@<TRIPOS>BOND
     1    15    16    1
     2    16    17   am
     3    17    18    2
     4    17     2    1
     5     2     3   ar
     6     3     4   ar
     7     4     5   ar
     8     5     6   ar
     9     6     7    1
    10     7     8    1
    11     8     9    1
    12     9    10   ar
    13    10     1    1
    14     1    20    1
    15    20    21    1
    16    21    22    1
    17    22    23    1
    18    23    24    1
    19    24    27    1
    20    27    28   ar
    21    28    29   ar
    22    29    30   ar
    23    30    31   ar
    24    31    32   ar
    25    32    33   ar
    26    33    34    1
    27    33    35   ar
    28    35    36   ar
    29    36    37   ar
    30    24    25    1
    31    25    26    1
    32    10    11   ar
    33    11    12   ar
    34    12    13   ar
    35    13    14   ar
    36     6     2   ar
    37    14     9   ar
    38    14     5    1
    39    26    21    1
    40    37    27   ar
    41    37    31   ar
    42    16    19    1
@<TRIPOS>MOLECULE
*****
 37 42 0 0 0
SMALL
GASTEIGER

@<TRIPOS>ATOM
      1 C           0.1944    1.1392   25.3599 C.3     1  UNL1        0.0468
      2 C           3.3045   -0.0177   31.4184 C.ar    1  UNL1        0.1516
      3 N           3.0774    1.1525   32.3289 N.ar    1  UNL1       -0.2192
      4 C           2.2495    2.1613   31.5895 C.ar    1  UNL1        0.1828
      5 N           1.9649    1.6147   30.2220 N.ar    1  UNL1       -0.2851
      6 C           2.6170    0.2680   30.1163 C.ar    1  UNL1        0.1087
      7 C           2.5004   -0.5243   28.8478 C.3     1  UNL1        0.2510
      8 O           1.7317    0.0302   27.6852 O.3     1  UNL1       -0.4678
      9 C           1.0797    1.3770   27.7910 C.ar    1  UNL1        0.1511
     10 C           0.3110    1.9315   26.6284 C.ar    1  UNL1        0.0146
     11 C          -0.3411    3.2782   26.7341 C.ar    1  UNL1       -0.0011
     12 C          -0.2245    4.0703   28.0025 C.ar    1  UNL1        0.0014
     13 C           0.5442    3.5158   29.1651 C.ar    1  UNL1        0.0206
     14 C           1.1962    2.1692   29.0594 C.ar    1  UNL1        0.0989
     15 C           6.0853   -2.8464   31.2930 C.3     1  UNL1        0.1110
     16 N           5.3072   -1.6080   30.9598 N.am    1  UNL1       -0.2979
     17 C           4.0826   -1.2561   31.7515 C.2     1  UNL1        0.2649
     18 O           3.6362   -2.1425   32.8762 O.2     1  UNL1       -0.2684
     19 H           5.6002   -1.0262   30.2217 H       1  UNL1        0.1498
     20 C           0.6009    1.7524   24.0527 C.3     1  UNL1        0.0770
     21 N           1.3947    0.9517   23.0634 N.3     1  UNL1       -0.2695
     22 C           2.7340    0.3973   23.4496 C.3     1  UNL1        0.0938
     23 C           3.5278   -0.4033   22.4603 C.3     1  UNL1        0.1081
     24 N           2.9825   -0.6496   21.0848 N.pl3   1  UNL1       -0.3046
     25 C           1.6433   -0.0952   20.6986 C.3     1  UNL1        0.1081
     26 C           0.8494    0.7055   21.6879 C.3     1  UNL1        0.0938
     27 C           3.7764   -1.4502   20.0955 C.ar    1  UNL1        0.0493
     28 C           3.6865   -2.9475   20.0979 C.ar    1  UNL1        0.0146
     29 C           4.4804   -3.7481   19.1086 C.ar    1  UNL1        0.0028
     30 C           5.3641   -3.0515   18.1169 C.ar    1  UNL1        0.0192
     31 C           5.4540   -1.5542   18.1144 C.ar    1  UNL1        0.0821
     32 N           6.3378   -0.8576   17.1226 N.ar    1  UNL1       -0.2496
     33 C           6.4277    0.6398   17.1201 C.ar    1  UNL1        0.0593
     34 C           7.3114    1.3364   16.1283 C.3     1  UNL1        0.0521
     35 C           5.6338    1.4404   18.1094 C.ar    1  UNL1        0.0148
     36 C           4.7500    0.7438   19.1012 C.ar    1  UNL1        0.0039
     37 C           4.6601   -0.7535   19.1037 C.ar    1  UNL1        0.0310
@<TRIPOS>BOND
     1    15    16    1
     2    16    17   am
     3    17    18    2
     4    17     2    1
     5     2     3   ar
     6     3     4   ar
     7     4     5   ar
     8     5     6   ar
     9     6     7    1
    10     7     8    1
    11     8     9    1
    12     9    10   ar
    13    10     1    1
    14     1    20    1
    15    20    21    1
    16    21    22    1
    17    22    23    1
    18    23    24    1
    19    24    27    1
    20    27    28   ar
    21    28    29   ar
    22    29    30   ar
    23    30    31   ar
    24    31    32   ar
    25    32    33   ar
    26    33    34    1
    27    33    35   ar
    28    35    36   ar
    29    36    37   ar
    30    24    25    1
    31    25    26    1
    32    10    11   ar
    33    11    12   ar
    34    12    13   ar
    35    13    14   ar
    36     6     2   ar
    37    14     9   ar
    38    14     5    1
    39    26    21    1
    40    37    27   ar
    41    37    31   ar
    42    16    19    1
@<TRIPOS>MOLECULE
*****
 37 42 0 0 0
SMALL
GASTEIGER

@<TRIPOS>ATOM
      1 C           7.6599   -5.7736   24.2420 C.3     1  UNL1        0.0468
      2 C           6.7337   -4.1890   30.9013 C.ar    1  UNL1        0.1516
      3 N           7.3051   -5.2788   31.7591 N.ar    1  UNL1       -0.2192
      4 C           7.8768   -6.3295   30.8540 C.ar    1  UNL1        0.1828
      5 N           7.6588   -5.8890   29.4368 N.ar    1  UNL1       -0.2851
      6 C           6.9524   -4.5661   29.4661 C.ar    1  UNL1        0.1087
      7 C           6.5994   -3.8758   28.1820 C.3     1  UNL1        0.2510
      8 O           6.9529   -4.5084   26.8686 O.3     1  UNL1       -0.4678
      9 C           7.6594   -5.8313   26.8394 C.ar    1  UNL1        0.1511
     10 C           8.0129   -6.4639   25.5261 C.ar    1  UNL1        0.0146
     11 C           8.7193   -7.7868   25.4968 C.ar    1  UNL1       -0.0011
     12 C           9.0722   -8.4771   26.7809 C.ar    1  UNL1        0.0014
     13 C           8.7187   -7.8445   28.0942 C.ar    1  UNL1        0.0206
     14 C           8.0123   -6.5216   28.1235 C.ar    1  UNL1        0.0989
     15 C           4.3996   -1.7676   33.0080 C.3     1  UNL1        0.1110
     16 N           5.0716   -3.0154   32.5168 N.am    1  UNL1       -0.2979
     17 C           6.0618   -2.9411   31.3925 C.2     1  UNL1        0.2649
     18 O           6.3800   -1.6190   30.7595 O.2     1  UNL1       -0.2684
     19 H           4.8627   -3.8832   32.9323 H       1  UNL1        0.1498
     20 C           8.5423   -4.6838   23.7093 C.3     1  UNL1        0.0770
     21 N           8.0376   -3.7690   22.6330 N.3     1  UNL1       -0.2695
     22 C           8.0324   -2.2849   22.8515 C.3     1  UNL1        0.0938
     23 C           7.5277   -1.3701   21.7752 C.3     1  UNL1        0.1081
     24 N           7.0282   -1.9393   20.4804 N.pl3   1  UNL1       -0.3046
     25 C           7.0335   -3.4233   20.2618 C.3     1  UNL1        0.1081
     26 C           7.5381   -4.3381   21.3381 C.3     1  UNL1        0.0938
     27 C           6.5236   -1.0245   19.4041 C.ar    1  UNL1        0.0493
     28 C           7.4632   -0.5141   18.3520 C.ar    1  UNL1        0.0146
     29 C           6.9585    0.4007   17.2758 C.ar    1  UNL1        0.0028
     30 C           5.5143    0.8051   17.2515 C.ar    1  UNL1        0.0192
     31 C           4.5747    0.2948   18.3034 C.ar    1  UNL1        0.0821
     32 N           3.1305    0.6992   18.2791 N.ar    1  UNL1       -0.2496
     33 C           2.1909    0.1888   19.3312 C.ar    1  UNL1        0.0593
     34 C           0.7466    0.5933   19.3069 C.3     1  UNL1        0.0521
     35 C           2.6955   -0.7260   20.4075 C.ar    1  UNL1        0.0148
     36 C           4.1398   -1.1304   20.4318 C.ar    1  UNL1        0.0039
     37 C           5.0793   -0.6201   19.3798 C.ar    1  UNL1        0.0310
@<TRIPOS>BOND
     1    15    16    1
     2    16    17   am
     3    17    18    2
     4    17     2    1
     5     2     3   ar
     6     3     4   ar
     7     4     5   ar
     8     5     6   ar
     9     6     7    1
    10     7     8    1
    11     8     9    1
    12     9    10   ar
    13    10     1    1
    14     1    20    1
    15    20    21    1
    16    21    22    1
    17    22    23    1
    18    23    24    1
    19    24    27    1
    20    27    28   ar
    21    28    29   ar
    22    29    30   ar
    23    30    31   ar
    24    31    32   ar
    25    32    33   ar
    26    33    34    1
    27    33    35   ar
    28    35    36   ar
    29    36    37   ar
    30    24    25    1
    31    25    26    1
    32    10    11   ar
    33    11    12   ar
    34    12    13   ar
    35    13    14   ar
    36     6     2   ar
    37    14     9   ar
    38    14     5    1
    39    26    21    1
    40    37    27   ar
    41    37    31   ar
    42    16    19    1
@<TRIPOS>MOLECULE
*****
 37 42 0 0 0
SMALL
GASTEIGER

@<TRIPOS>ATOM
      1 C           0.7636    1.8617   24.0498 C.3     1  UNL1        0.0468
      2 C           5.6083   -3.0614   23.9649 C.ar    1  UNL1        0.1516
      3 N           5.6692   -3.6800   22.5998 N.ar    1  UNL1       -0.2192
      4 C           4.6472   -3.0009   21.7371 C.ar    1  UNL1        0.1828
      5 N           3.9546   -1.9625   22.5691 N.ar    1  UNL1       -0.2851
      6 C           4.5487   -1.9999   23.9459 C.ar    1  UNL1        0.1087
      7 C           4.0479   -1.0626   25.0046 C.3     1  UNL1        0.2510
      8 O           2.9531   -0.0878   24.6863 O.3     1  UNL1       -0.4678
      9 C           2.3591   -0.0504   23.3094 C.ar    1  UNL1        0.1511
     10 C           1.2643    0.9243   22.9911 C.ar    1  UNL1        0.0146
     11 C           0.6703    0.9617   21.6143 C.ar    1  UNL1       -0.0011
     12 C           1.1710    0.0244   20.5558 C.ar    1  UNL1        0.0014
     13 C           2.2658   -0.9504   20.8740 C.ar    1  UNL1        0.0206
     14 C           2.8598   -0.9878   22.2508 C.ar    1  UNL1        0.0989
     15 C           7.3012   -5.2260   26.8282 C.3     1  UNL1        0.1110
     16 N           6.4516   -4.8493   25.6508 N.am    1  UNL1       -0.2979
     17 C           6.4579   -3.4381   25.1423 C.2     1  UNL1        0.2649
     18 O           7.3139   -2.4037   25.8112 O.2     1  UNL1       -0.2684
     19 H           5.8898   -5.5282   25.2118 H       1  UNL1        0.1498
     20 C          -0.1392    1.3542   25.1348 C.3     1  UNL1        0.0770
     21 N           0.2205    1.5750   26.5742 N.3     1  UNL1       -0.2695
     22 C          -0.6302    0.9840   27.6591 C.3     1  UNL1        0.0938
     23 C          -0.2705    1.2048   29.0985 C.3     1  UNL1        0.1081
     24 N           0.9400    2.0166   29.4530 N.pl3   1  UNL1       -0.3046
     25 C           1.7907    2.6076   28.3682 C.3     1  UNL1        0.1081
     26 C           1.4310    2.3868   26.9287 C.3     1  UNL1        0.0938
     27 C           1.2997    2.2374   30.8924 C.ar    1  UNL1        0.0493
     28 C           0.7682    3.4348   31.6231 C.ar    1  UNL1        0.0146
     29 C           1.1279    3.6556   33.0625 C.ar    1  UNL1        0.0028
     30 C           2.0191    2.6791   33.7712 C.ar    1  UNL1        0.0192
     31 C           2.5506    1.4818   33.0405 C.ar    1  UNL1        0.0821
     32 N           3.4417    0.5053   33.7492 N.ar    1  UNL1       -0.2496
     33 C           3.9732   -0.6921   33.0184 C.ar    1  UNL1        0.0593
     34 C           4.8644   -1.6686   33.7271 C.3     1  UNL1        0.0521
     35 C           3.6135   -0.9129   31.5791 C.ar    1  UNL1        0.0148
     36 C           2.7223    0.0636   30.8704 C.ar    1  UNL1        0.0039
     37 C           2.1909    1.2609   31.6011 C.ar    1  UNL1        0.0310
@<TRIPOS>BOND
     1    15    16    1
     2    16    17   am
     3    17    18    2
     4    17     2    1
     5     2     3   ar
     6     3     4   ar
     7     4     5   ar
     8     5     6   ar
     9     6     7    1
    10     7     8    1
    11     8     9    1
    12     9    10   ar
    13    10     1    1
    14     1    20    1
    15    20    21    1
    16    21    22    1
    17    22    23    1
    18    23    24    1
    19    24    27    1
    20    27    28   ar
    21    28    29   ar
    22    29    30   ar
    23    30    31   ar
    24    31    32   ar
    25    32    33   ar
    26    33    34    1
    27    33    35   ar
    28    35    36   ar
    29    36    37   ar
    30    24    25    1
    31    25    26    1
    32    10    11   ar
    33    11    12   ar
    34    12    13   ar
    35    13    14   ar
    36     6     2   ar
    37    14     9   ar
    38    14     5    1
    39    26    21    1
    40    37    27   ar
    41    37    31   ar
    42    16    19    1
@<TRIPOS>MOLECULE
*****
 37 42 0 0 0
SMALL
GASTEIGER

@<TRIPOS>ATOM
      1 C           7.6973   -3.0526   27.9947 C.3     1  UNL1        0.0468
      2 C           1.7075    0.0670   29.4459 C.ar    1  UNL1        0.1516
      3 N           1.6974    0.4854   30.8864 N.ar    1  UNL1       -0.2192
      4 C           3.0030    0.0721   31.4983 C.ar    1  UNL1        0.1828
      5 N           3.8201   -0.6017   30.4361 N.ar    1  UNL1       -0.2851
      6 C           3.0194   -0.6049   29.1677 C.ar    1  UNL1        0.1087
      7 C           3.5884   -1.2192   27.9231 C.3     1  UNL1        0.2510
      8 O           4.9580   -1.8303   27.9470 O.3     1  UNL1       -0.4678
      9 C           5.7587   -1.8272   29.2154 C.ar    1  UNL1        0.1511
     10 C           7.1284   -2.4383   29.2393 C.ar    1  UNL1        0.0146
     11 C           7.9290   -2.4351   30.5077 C.ar    1  UNL1       -0.0011
     12 C           7.3601   -1.8208   31.7522 C.ar    1  UNL1        0.0014
     13 C           5.9904   -1.2097   31.7283 C.ar    1  UNL1        0.0206
     14 C           5.1897   -1.2128   30.4600 C.ar    1  UNL1        0.0989
     15 C          -0.3143    1.4447   26.3212 C.3     1  UNL1        0.1110
     16 N           0.7931    1.2291   27.3098 N.am    1  UNL1       -0.2979
     17 C           0.6002    0.2826   28.4574 C.2     1  UNL1        0.2649
     18 O          -0.7000   -0.4483   28.6163 O.2     1  UNL1       -0.2684
     19 H           1.6464    1.7088   27.2054 H       1  UNL1        0.1498
     20 C           8.0923   -2.1797   26.8405 C.3     1  UNL1        0.0770
     21 N           7.4025   -2.3289   25.5170 N.3     1  UNL1       -0.2695
     22 C           6.4813   -3.4883   25.2777 C.3     1  UNL1        0.0938
     23 C           5.7915   -3.6375   23.9542 C.3     1  UNL1        0.1081
     24 N           6.0228   -2.6272   22.8698 N.pl3   1  UNL1       -0.3046
     25 C           6.9440   -1.4679   23.1089 C.3     1  UNL1        0.1081
     26 C           7.6339   -1.3187   24.4326 C.3     1  UNL1        0.0938
     27 C           5.3330   -2.7764   21.5462 C.ar    1  UNL1        0.0493
     28 C           5.8907   -3.7072   20.5105 C.ar    1  UNL1        0.0146
     29 C           5.2009   -3.8563   19.1869 C.ar    1  UNL1        0.0028
     30 C           3.9534   -3.0747   18.8990 C.ar    1  UNL1        0.0192
     31 C           3.3957   -2.1440   19.9347 C.ar    1  UNL1        0.0821
     32 N           2.1482   -1.3624   19.6468 N.ar    1  UNL1       -0.2496
     33 C           1.5906   -0.4316   20.6825 C.ar    1  UNL1        0.0593
     34 C           0.3431    0.3500   20.3946 C.3     1  UNL1        0.0521
     35 C           2.2804   -0.2825   22.0061 C.ar    1  UNL1        0.0148
     36 C           3.5279   -1.0641   22.2940 C.ar    1  UNL1        0.0039
     37 C           4.0855   -1.9948   21.2583 C.ar    1  UNL1        0.0310
@<TRIPOS>BOND
     1    15    16    1
     2    16    17   am
     3    17    18    2
     4    17     2    1
     5     2     3   ar
     6     3     4   ar
     7     4     5   ar
     8     5     6   ar
     9     6     7    1
    10     7     8    1
    11     8     9    1
    12     9    10   ar
    13    10     1    1
    14     1    20    1
    15    20    21    1
    16    21    22    1
    17    22    23    1
    18    23    24    1
    19    24    27    1
    20    27    28   ar
    21    28    29   ar
    22    29    30   ar
    23    30    31   ar
    24    31    32   ar
    25    32    33   ar
    26    33    34    1
    27    33    35   ar
    28    35    36   ar
    29    36    37   ar
    30    24    25    1
    31    25    26    1
    32    10    11   ar
    33    11    12   ar
    34    12    13   ar
    35    13    14   ar
    36     6     2   ar
    37    14     9   ar
    38    14     5    1
    39    26    21    1
    40    37    27   ar
    41    37    31   ar
    42    16    19    1
