@<TRIPOS>MOLECULE
*****
 26 28 0 0 0
SMALL
GASTEIGER

@<TRIPOS>ATOM
      1 C           7.0922   -3.8088   29.6503 C.ar    1  UNL1        0.0505
      2 C           7.1353   -4.4920   30.9850 C.ar    1  UNL1        0.0148
      3 C           6.5024   -3.8434   32.1803 C.ar    1  UNL1        0.0058
      4 C           5.8264   -2.5117   32.0409 C.ar    1  UNL1        0.0538
      5 C           5.7833   -1.8285   30.7062 C.ar    1  UNL1        0.0058
      6 C           6.4162   -2.4771   29.5109 C.ar    1  UNL1        0.0148
      7 C           6.9331   -5.4134   27.6132 C.2     1  UNL1        0.2492
      8 O           5.5080   -5.7208   27.9666 O.2     1  UNL1       -0.2698
      9 N           7.7251   -4.4574   28.4550 N.am    1  UNL1       -0.2804
     10 H           8.6604   -4.2557   28.2231 H       1  UNL1        0.1552
     11 C           8.4076   -8.0080   27.9194 C.3     1  UNL1        0.0312
     12 C           8.3032   -7.3593   26.5710 C.ar    1  UNL1       -0.0175
     13 C           8.9361   -8.0079   25.3757 C.ar    1  UNL1       -0.0041
     14 C           8.8318   -7.3591   24.0272 C.ar    1  UNL1       -0.0003
     15 C           8.0945   -6.0619   23.8741 C.ar    1  UNL1        0.0001
     16 C           7.4616   -5.4133   25.0694 C.ar    1  UNL1        0.0042
     17 C           7.5660   -6.0620   26.4178 C.ar    1  UNL1        0.0497
     18 C           5.1934   -1.8631   33.2363 C.2     1  UNL1        0.2509
     19 O           3.9105   -2.4056   33.7925 O.2     1  UNL1       -0.2698
     20 N           5.8436   -0.6718   33.8753 N.am    1  UNL1       -0.2606
     21 H           6.6857   -0.3157   33.5101 H       1  UNL1        0.1571
     22 C           5.2107   -0.0232   35.0705 C.ar    1  UNL1        0.1658
     23 N           5.4646   -0.3802   36.5051 N.ar    1  UNL1       -0.2224
     24 C           4.6236    0.5187   37.3623 C.ar    1  UNL1        0.1079
     25 C           3.8500    1.4313   36.4575 C.ar    1  UNL1        0.0588
     26 S           4.2128    1.0964   35.0411 S.2     1  UNL1       -0.0508
@<TRIPOS>BOND
     1    11    12    1
     2    12    13   ar
     3    13    14   ar
     4    14    15   ar
     5    15    16   ar
     6    16    17   ar
     7    17     7    1
     8     7     8    2
     9     7     9   am
    10     9     1    1
    11     1     2   ar
    12     2     3   ar
    13     3     4   ar
    14     4    18    1
    15    18    19    2
    16    18    20   am
    17    20    22    1
    18    22    23   ar
    19    23    24   ar
    20    24    25   ar
    21    25    26   ar
    22     4     5   ar
    23     5     6   ar
    24    17    12   ar
    25     6     1   ar
    26    26    22   ar
    27     9    10    1
    28    20    21    1
@<TRIPOS>MOLECULE
*****
 26 28 0 0 0
SMALL
GASTEIGER

@<TRIPOS>ATOM
      1 C          -8.6802  -19.3515   21.7908 C.ar    1  UNL1        0.0505
      2 C          -8.4150  -19.2928   20.3156 C.ar    1  UNL1        0.0148
      3 C          -7.0040  -19.2626   19.8078 C.ar    1  UNL1        0.0058
      4 C          -5.8580  -19.2911   20.7753 C.ar    1  UNL1        0.0538
      5 C          -6.1232  -19.3498   22.2505 C.ar    1  UNL1        0.0058
      6 C          -7.5343  -19.3800   22.7583 C.ar    1  UNL1        0.0148
      7 C         -10.6173  -18.2423   23.1202 C.2     1  UNL1        0.2492
      8 O          -9.7322  -17.0727   23.4342 O.2     1  UNL1       -0.2698
      9 N         -10.0914  -19.3817   22.2986 N.am    1  UNL1       -0.2804
     10 H         -10.6723  -20.1493   22.0925 H       1  UNL1        0.1552
     11 C         -12.8773  -17.4383   21.3186 C.3     1  UNL1        0.0312
     12 C         -13.1585  -17.8705   22.7272 C.ar    1  UNL1       -0.0175
     13 C         -14.5696  -17.9007   23.2349 C.ar    1  UNL1       -0.0041
     14 C         -14.8507  -18.3329   24.6435 C.ar    1  UNL1       -0.0003
     15 C         -13.7207  -18.7349   25.5444 C.ar    1  UNL1        0.0001
     16 C         -12.3097  -18.7047   25.0366 C.ar    1  UNL1        0.0042
     17 C         -12.0285  -18.2725   23.6280 C.ar    1  UNL1        0.0497
     18 C          -4.4468  -19.2609   20.2675 C.2     1  UNL1        0.2509
     19 O          -3.9376  -20.3743   19.4009 O.2     1  UNL1       -0.2698
     20 N          -3.5450  -18.1173   20.6264 N.am    1  UNL1       -0.2606
     21 H          -3.8792  -17.3866   21.1952 H       1  UNL1        0.1571
     22 C          -2.1339  -18.0871   20.1187 C.ar    1  UNL1        0.1658
     23 N          -0.9047  -18.4230   20.9102 N.ar    1  UNL1       -0.2224
     24 C           0.2847  -18.2591   20.0110 C.ar    1  UNL1        0.1079
     25 C          -0.2094  -17.8220   18.6638 C.ar    1  UNL1        0.0588
     26 S          -1.7041  -17.7156   18.7304 S.2     1  UNL1       -0.0508
@<TRIPOS>BOND
     1    11    12    1
     2    12    13   ar
     3    13    14   ar
     4    14    15   ar
     5    15    16   ar
     6    16    17   ar
     7    17     7    1
     8     7     8    2
     9     7     9   am
    10     9     1    1
    11     1     2   ar
    12     2     3   ar
    13     3     4   ar
    14     4    18    1
    15    18    19    2
    16    18    20   am
    17    20    22    1
    18    22    23   ar
    19    23    24   ar
    20    24    25   ar
    21    25    26   ar
    22     4     5   ar
    23     5     6   ar
    24    17    12   ar
    25     6     1   ar
    26    26    22   ar
    27     9    10    1
    28    20    21    1
@<TRIPOS>MOLECULE
*****
 26 28 0 0 0
SMALL
GASTEIGER

@<TRIPOS>ATOM
      1 C           6.1503   -2.3616   32.0283 C.ar    1  UNL1        0.0505
      2 C           7.1581   -1.4982   32.7275 C.ar    1  UNL1        0.0148
      3 C           6.7582   -0.7099   33.9394 C.ar    1  UNL1        0.0058
      4 C           5.3506   -0.7850   34.4521 C.ar    1  UNL1        0.0538
      5 C           4.3428   -1.6485   33.7529 C.ar    1  UNL1        0.0058
      6 C           4.7426   -2.4367   32.5410 C.ar    1  UNL1        0.0148
      7 C           6.7404   -4.6344   30.9165 C.2     1  UNL1        0.2492
      8 O           6.5307   -5.3307   32.2284 O.2     1  UNL1       -0.2698
      9 N           6.5502   -3.1499   30.8164 N.am    1  UNL1       -0.2804
     10 H           6.6878   -2.6929   29.9553 H       1  UNL1        0.1552
     11 C           9.1269   -6.4489   31.0275 C.3     1  UNL1        0.0312
     12 C           8.3335   -6.3299   29.7600 C.ar    1  UNL1       -0.0175
     13 C           8.7334   -7.1182   28.5481 C.ar    1  UNL1       -0.0041
     14 C           7.9400   -6.9992   27.2807 C.ar    1  UNL1       -0.0003
     15 C           6.7467   -6.0920   27.2252 C.ar    1  UNL1        0.0001
     16 C           6.3469   -5.3038   28.4371 C.ar    1  UNL1        0.0042
     17 C           7.1403   -5.4227   29.7045 C.ar    1  UNL1        0.0497
     18 C           4.9507    0.0033   35.6640 C.2     1  UNL1        0.2509
     19 O           5.5240   -0.3424   37.0063 O.2     1  UNL1       -0.2698
     20 N           3.9775    1.1373   35.5336 N.am    1  UNL1       -0.2606
     21 H           3.6013    1.3641   34.6525 H       1  UNL1        0.1571
     22 C           3.5776    1.9255   36.7454 C.ar    1  UNL1        0.1658
     23 N           2.3354    1.7198   37.5606 N.ar    1  UNL1       -0.2224
     24 C           2.3397    2.7251   38.6739 C.ar    1  UNL1        0.1079
     25 C           3.5847    3.5522   38.5467 C.ar    1  UNL1        0.0588
     26 S           4.3497    3.0580   37.3549 S.2     1  UNL1       -0.0508
@<TRIPOS>BOND
     1    11    12    1
     2    12    13   ar
     3    13    14   ar
     4    14    15   ar
     5    15    16   ar
     6    16    17   ar
     7    17     7    1
     8     7     8    2
     9     7     9   am
    10     9     1    1
    11     1     2   ar
    12     2     3   ar
    13     3     4   ar
    14     4    18    1
    15    18    19    2
    16    18    20   am
    17    20    22    1
    18    22    23   ar
    19    23    24   ar
    20    24    25   ar
    21    25    26   ar
    22     4     5   ar
    23     5     6   ar
    24    17    12   ar
    25     6     1   ar
    26    26    22   ar
    27     9    10    1
    28    20    21    1
@<TRIPOS>MOLECULE
*****
 26 28 0 0 0
SMALL
GASTEIGER

@<TRIPOS>ATOM
      1 C           5.2099   -0.6878   34.1254 C.ar    1  UNL1        0.0505
      2 C           6.5997   -0.3573   33.6678 C.ar    1  UNL1        0.0148
      3 C           7.3362   -1.3014   32.7644 C.ar    1  UNL1        0.0058
      4 C           6.6829   -2.5759   32.3185 C.ar    1  UNL1        0.0538
      5 C           5.2931   -2.9063   32.7760 C.ar    1  UNL1        0.0058
      6 C           4.5566   -1.9622   33.6795 C.ar    1  UNL1        0.0148
      7 C           4.8537    0.3596   36.4762 C.2     1  UNL1        0.2492
      8 O           5.9705   -0.4812   37.0200 O.2     1  UNL1       -0.2698
      9 N           4.4734    0.2564   35.0289 N.am    1  UNL1       -0.2804
     10 H           3.7404    0.8083   34.6719 H       1  UNL1        0.1552
     11 C           5.9328    3.1156   36.9665 C.3     1  UNL1        0.0312
     12 C           4.6567    2.6817   37.6248 C.ar    1  UNL1       -0.0175
     13 C           3.9202    3.6257   38.5283 C.ar    1  UNL1       -0.0041
     14 C           2.6442    3.1919   39.1866 C.ar    1  UNL1       -0.0003
     15 C           2.1046    1.8139   38.9414 C.ar    1  UNL1        0.0001
     16 C           2.8411    0.8699   38.0380 C.ar    1  UNL1        0.0042
     17 C           4.1172    1.3038   37.3797 C.ar    1  UNL1        0.0497
     18 C           7.4194   -3.5200   31.4149 C.2     1  UNL1        0.2509
     19 O           8.8401   -3.2335   31.0285 O.2     1  UNL1       -0.2698
     20 N           6.7351   -4.7506   30.8979 N.am    1  UNL1       -0.2606
     21 H           5.8026   -4.9386   31.1516 H       1  UNL1        0.1571
     22 C           7.4715   -5.6947   29.9945 C.ar    1  UNL1        0.1658
     23 N           8.6012   -6.5969   30.3943 N.ar    1  UNL1       -0.2224
     24 C           9.0354   -7.3622   29.1795 C.ar    1  UNL1        0.1079
     25 C           8.1742   -6.9330   28.0288 C.ar    1  UNL1        0.0588
     26 S           7.2076   -5.9024   28.5325 S.2     1  UNL1       -0.0508
@<TRIPOS>BOND
     1    11    12    1
     2    12    13   ar
     3    13    14   ar
     4    14    15   ar
     5    15    16   ar
     6    16    17   ar
     7    17     7    1
     8     7     8    2
     9     7     9   am
    10     9     1    1
    11     1     2   ar
    12     2     3   ar
    13     3     4   ar
    14     4    18    1
    15    18    19    2
    16    18    20   am
    17    20    22    1
    18    22    23   ar
    19    23    24   ar
    20    24    25   ar
    21    25    26   ar
    22     4     5   ar
    23     5     6   ar
    24    17    12   ar
    25     6     1   ar
    26    26    22   ar
    27     9    10    1
    28    20    21    1
@<TRIPOS>MOLECULE
*****
 26 28 0 0 0
SMALL
GASTEIGER

@<TRIPOS>ATOM
      1 C           4.0692   -0.3548   33.0502 C.ar    1  UNL1        0.0505
      2 C           4.5760    0.0187   31.6887 C.ar    1  UNL1        0.0148
      3 C           5.4424   -0.9367   30.9229 C.ar    1  UNL1        0.0058
      4 C           5.8020   -2.2656   31.5186 C.ar    1  UNL1        0.0538
      5 C           5.2951   -2.6390   32.8801 C.ar    1  UNL1        0.0058
      6 C           4.4287   -1.6836   33.6459 C.ar    1  UNL1        0.0148
      7 C           3.8298    1.6562   34.6777 C.2     1  UNL1        0.2492
      8 O           5.3234    1.7563   34.7737 O.2     1  UNL1       -0.2698
      9 N           3.2027    0.6007   33.8160 N.am    1  UNL1       -0.2804
     10 H           2.2224    0.5350   33.7531 H       1  UNL1        0.1552
     11 C           3.4016    1.2638   37.6210 C.3     1  UNL1        0.0312
     12 C           2.7492    2.4155   36.9152 C.ar    1  UNL1       -0.0175
     13 C           1.8828    3.3709   37.6809 C.ar    1  UNL1       -0.0041
     14 C           1.2305    4.5225   36.9750 C.ar    1  UNL1       -0.0003
     15 C           1.4446    4.7187   35.5034 C.ar    1  UNL1        0.0001
     16 C           2.3110    3.7633   34.7377 C.ar    1  UNL1        0.0042
     17 C           2.9633    2.6116   35.4436 C.ar    1  UNL1        0.0497
     18 C           6.6685   -3.2210   30.7528 C.2     1  UNL1        0.2509
     19 O           7.6372   -2.7019   29.7321 O.2     1  UNL1       -0.2698
     20 N           6.5661   -4.6957   31.0077 N.am    1  UNL1       -0.2606
     21 H           5.9302   -5.0364   31.6777 H       1  UNL1        0.1571
     22 C           7.4325   -5.6511   30.2420 C.ar    1  UNL1        0.1658
     23 N           7.1697   -6.1634   28.8569 N.ar    1  UNL1       -0.2224
     24 C           8.2886   -7.0910   28.4857 C.ar    1  UNL1        0.1079
     25 C           9.2429   -7.1519   29.6414 C.ar    1  UNL1        0.0588
     26 S           8.7138   -6.2620   30.7268 S.2     1  UNL1       -0.0508
@<TRIPOS>BOND
     1    11    12    1
     2    12    13   ar
     3    13    14   ar
     4    14    15   ar
     5    15    16   ar
     6    16    17   ar
     7    17     7    1
     8     7     8    2
     9     7     9   am
    10     9     1    1
    11     1     2   ar
    12     2     3   ar
    13     3     4   ar
    14     4    18    1
    15    18    19    2
    16    18    20   am
    17    20    22    1
    18    22    23   ar
    19    23    24   ar
    20    24    25   ar
    21    25    26   ar
    22     4     5   ar
    23     5     6   ar
    24    17    12   ar
    25     6     1   ar
    26    26    22   ar
    27     9    10    1
    28    20    21    1
@<TRIPOS>MOLECULE
*****
 26 28 0 0 0
SMALL
GASTEIGER

@<TRIPOS>ATOM
      1 C         -14.3579   -1.2704   18.9376 C.ar    1  UNL1        0.0505
      2 C         -13.9461    0.1144   18.5341 C.ar    1  UNL1        0.0148
      3 C         -14.8018    1.2892   18.9048 C.ar    1  UNL1        0.0058
      4 C         -16.0693    1.0792   19.6791 C.ar    1  UNL1        0.0538
      5 C         -16.4810   -0.3056   20.0826 C.ar    1  UNL1        0.0058
      6 C         -15.6253   -1.4804   19.7118 C.ar    1  UNL1        0.0148
      7 C         -12.9929   -3.3687   19.6335 C.2     1  UNL1        0.2492
      8 O         -13.3396   -3.1173   21.0711 O.2     1  UNL1       -0.2698
      9 N         -13.5021   -2.4453   18.5667 N.am    1  UNL1       -0.2804
     10 H         -13.2746   -2.6103   17.6232 H       1  UNL1        0.1552
     11 C         -14.1868   -6.1187   19.5231 C.3     1  UNL1        0.0312
     12 C         -12.7341   -5.9185   19.2075 C.ar    1  UNL1       -0.0175
     13 C         -11.8783   -7.0933   18.8367 C.ar    1  UNL1       -0.0041
     14 C         -10.4256   -6.8931   18.5211 C.ar    1  UNL1       -0.0003
     15 C          -9.8287   -5.5181   18.5763 C.ar    1  UNL1        0.0001
     16 C         -10.6845   -4.3434   18.9471 C.ar    1  UNL1        0.0042
     17 C         -12.1372   -4.5436   19.2627 C.ar    1  UNL1        0.0497
     18 C         -16.9250    2.2541   20.0499 C.2     1  UNL1        0.2509
     19 O         -17.4391    3.1741   18.9825 O.2     1  UNL1       -0.2698
     20 N         -17.2668    2.5088   21.4881 N.am    1  UNL1       -0.2606
     21 H         -16.9294    1.9050   22.1886 H       1  UNL1        0.1571
     22 C         -18.1225    3.6836   21.8589 C.ar    1  UNL1        0.1658
     23 N         -17.6291    5.0259   22.3115 N.ar    1  UNL1       -0.2224
     24 C         -18.8235    5.8942   22.5746 C.ar    1  UNL1        0.1079
     25 C         -20.0552    5.0887   22.2845 C.ar    1  UNL1        0.0588
     26 S         -19.6219    3.7224   21.8422 S.2     1  UNL1       -0.0508
@<TRIPOS>BOND
     1    11    12    1
     2    12    13   ar
     3    13    14   ar
     4    14    15   ar
     5    15    16   ar
     6    16    17   ar
     7    17     7    1
     8     7     8    2
     9     7     9   am
    10     9     1    1
    11     1     2   ar
    12     2     3   ar
    13     3     4   ar
    14     4    18    1
    15    18    19    2
    16    18    20   am
    17    20    22    1
    18    22    23   ar
    19    23    24   ar
    20    24    25   ar
    21    25    26   ar
    22     4     5   ar
    23     5     6   ar
    24    17    12   ar
    25     6     1   ar
    26    26    22   ar
    27     9    10    1
    28    20    21    1
@<TRIPOS>MOLECULE
*****
 26 28 0 0 0
SMALL
GASTEIGER

@<TRIPOS>ATOM
      1 C           0.7079    1.7488   22.8668 C.ar    1  UNL1        0.0505
      2 C           0.5752    1.2534   24.2764 C.ar    1  UNL1        0.0148
      3 C          -0.4197    1.8865   25.2033 C.ar    1  UNL1        0.0058
      4 C          -1.2819    3.0150   24.7207 C.ar    1  UNL1        0.0538
      5 C          -1.1491    3.5105   23.3111 C.ar    1  UNL1        0.0058
      6 C          -0.1542    2.8774   22.3842 C.ar    1  UNL1        0.0148
      7 C           1.2301    0.2486   20.8109 C.2     1  UNL1        0.2492
      8 O          -0.2377    0.0147   20.6088 O.2     1  UNL1       -0.2698
      9 N           1.7029    1.1157   21.9398 N.am    1  UNL1       -0.2804
     10 H           2.6663    1.2692   22.0724 H       1  UNL1        0.1552
     11 C           2.1058    1.6971   18.3340 C.3     1  UNL1        0.0312
     12 C           2.6629    0.3397   18.6455 C.ar    1  UNL1       -0.0175
     13 C           3.6578   -0.2935   17.7186 C.ar    1  UNL1       -0.0041
     14 C           4.2149   -1.6509   18.0301 C.ar    1  UNL1       -0.0003
     15 C           3.7771   -2.3752   19.2685 C.ar    1  UNL1        0.0001
     16 C           2.7821   -1.7420   20.1954 C.ar    1  UNL1        0.0042
     17 C           2.2251   -0.3846   19.8839 C.ar    1  UNL1        0.0497
     18 C          -2.2768    3.6482   25.6477 C.2     1  UNL1        0.2509
     19 O          -2.5394    3.0414   26.9941 O.2     1  UNL1       -0.2698
     20 N          -3.0093    4.8882   25.2282 N.am    1  UNL1       -0.2606
     21 H          -2.8369    5.2865   24.3445 H       1  UNL1        0.1571
     22 C          -4.0042    5.5214   26.1551 C.ar    1  UNL1        0.1658
     23 N          -5.4217    5.0774   26.3636 N.ar    1  UNL1       -0.2224
     24 C          -6.0499    5.9913   27.3736 C.ar    1  UNL1        0.1079
     25 C          -5.0206    7.0002   27.7893 C.ar    1  UNL1        0.0588
     26 S          -3.7563    6.7097   27.0362 S.2     1  UNL1       -0.0508
@<TRIPOS>BOND
     1    11    12    1
     2    12    13   ar
     3    13    14   ar
     4    14    15   ar
     5    15    16   ar
     6    16    17   ar
     7    17     7    1
     8     7     8    2
     9     7     9   am
    10     9     1    1
    11     1     2   ar
    12     2     3   ar
    13     3     4   ar
    14     4    18    1
    15    18    19    2
    16    18    20   am
    17    20    22    1
    18    22    23   ar
    19    23    24   ar
    20    24    25   ar
    21    25    26   ar
    22     4     5   ar
    23     5     6   ar
    24    17    12   ar
    25     6     1   ar
    26    26    22   ar
    27     9    10    1
    28    20    21    1
@<TRIPOS>MOLECULE
*****
 26 28 0 0 0
SMALL
GASTEIGER

@<TRIPOS>ATOM
      1 C           1.6881    1.6119   20.3099 C.ar    1  UNL1        0.0505
      2 C           0.8832    2.1987   19.1884 C.ar    1  UNL1        0.0148
      3 C          -0.4323    2.8597   19.4753 C.ar    1  UNL1        0.0058
      4 C          -0.9430    2.9339   20.8837 C.ar    1  UNL1        0.0538
      5 C          -0.1381    2.3471   22.0052 C.ar    1  UNL1        0.0058
      6 C           1.1774    1.6861   21.7183 C.ar    1  UNL1        0.0148
      7 C           3.0719   -0.5364   19.8409 C.2     1  UNL1        0.2492
      8 O           1.8244   -1.3628   19.9457 O.2     1  UNL1       -0.2698
      9 N           3.0037    0.9509   20.0229 N.am    1  UNL1       -0.2804
     10 H           3.8225    1.4933   19.9541 H       1  UNL1        0.1552
     11 C           4.0404   -0.7850   17.0124 C.3     1  UNL1        0.0312
     12 C           4.8717   -1.3217   18.1397 C.ar    1  UNL1       -0.0175
     13 C           6.1873   -1.9827   17.8528 C.ar    1  UNL1       -0.0041
     14 C           7.0186   -2.5194   18.9801 C.ar    1  UNL1       -0.0003
     15 C           6.5344   -2.3951   20.3943 C.ar    1  UNL1        0.0001
     16 C           5.2188   -1.7341   20.6812 C.ar    1  UNL1        0.0042
     17 C           4.3875   -1.1974   19.5539 C.ar    1  UNL1        0.0497
     18 C          -2.2586    3.5949   21.1707 C.2     1  UNL1        0.2509
     19 O          -2.2934    4.9988   21.6979 O.2     1  UNL1       -0.2698
     20 N          -3.5394    2.8520   20.9304 N.am    1  UNL1       -0.2606
     21 H          -3.5165    1.9306   20.5844 H       1  UNL1        0.1571
     22 C          -4.8550    3.5130   21.2173 C.ar    1  UNL1        0.1658
     23 N          -5.7210    4.2231   20.2195 N.ar    1  UNL1       -0.2224
     24 C          -6.9368    4.7289   20.9379 C.ar    1  UNL1        0.1079
     25 C          -6.8221    4.3313   22.3798 C.ar    1  UNL1        0.0588
     26 S          -5.5355    3.5798   22.5524 S.2     1  UNL1       -0.0508
@<TRIPOS>BOND
     1    11    12    1
     2    12    13   ar
     3    13    14   ar
     4    14    15   ar
     5    15    16   ar
     6    16    17   ar
     7    17     7    1
     8     7     8    2
     9     7     9   am
    10     9     1    1
    11     1     2   ar
    12     2     3   ar
    13     3     4   ar
    14     4    18    1
    15    18    19    2
    16    18    20   am
    17    20    22    1
    18    22    23   ar
    19    23    24   ar
    20    24    25   ar
    21    25    26   ar
    22     4     5   ar
    23     5     6   ar
    24    17    12   ar
    25     6     1   ar
    26    26    22   ar
    27     9    10    1
    28    20    21    1
@<TRIPOS>MOLECULE
*****
 26 28 0 0 0
SMALL
GASTEIGER

@<TRIPOS>ATOM
      1 C           4.2290   -2.8449   21.8414 C.ar    1  UNL1        0.0505
      2 C           3.6944   -1.7770   22.7490 C.ar    1  UNL1        0.0148
      3 C           2.7879   -0.7137   22.2036 C.ar    1  UNL1        0.0058
      4 C           2.4159   -0.7184   20.7505 C.ar    1  UNL1        0.0538
      5 C           2.9505   -1.7863   19.8428 C.ar    1  UNL1        0.0058
      6 C           3.8570   -2.8495   20.3883 C.ar    1  UNL1        0.0148
      7 C           6.5307   -3.5583   22.8127 C.2     1  UNL1        0.2492
      8 O           7.0192   -2.1452   22.6930 O.2     1  UNL1       -0.2698
      9 N           5.1356   -3.9082   22.3869 N.am    1  UNL1       -0.2804
     10 H           4.8150   -4.8357   22.4655 H       1  UNL1        0.1552
     11 C           8.5524   -4.8681   21.0247 C.3     1  UNL1        0.0312
     12 C           8.4481   -5.2765   22.4642 C.ar    1  UNL1       -0.0175
     13 C           9.3547   -6.3397   23.0098 C.ar    1  UNL1       -0.0041
     14 C           9.2504   -6.7481   24.4493 C.ar    1  UNL1       -0.0003
     15 C           8.2396   -6.0932   25.3434 C.ar    1  UNL1        0.0001
     16 C           7.3330   -5.0300   24.7978 C.ar    1  UNL1        0.0042
     17 C           7.4373   -4.6216   23.3583 C.ar    1  UNL1        0.0497
     18 C           1.5093    0.3449   20.2049 C.2     1  UNL1        0.2509
     19 O           1.1756    0.3683   18.7428 O.2     1  UNL1       -0.2698
     20 N           0.9364    1.3848   21.1217 N.am    1  UNL1       -0.2606
     21 H           1.1554    1.3695   22.0814 H       1  UNL1        0.1571
     22 C           0.0298    2.4481   20.5762 C.ar    1  UNL1        0.1658
     23 N          -1.4677    2.4588   20.6616 N.ar    1  UNL1       -0.2224
     24 C          -1.9615    3.7047   19.9878 C.ar    1  UNL1        0.1079
     25 C          -0.7691    4.4639   19.4859 C.ar    1  UNL1        0.0588
     26 S           0.4616    3.6873   19.8496 S.2     1  UNL1       -0.0508
@<TRIPOS>BOND
     1    11    12    1
     2    12    13   ar
     3    13    14   ar
     4    14    15   ar
     5    15    16   ar
     6    16    17   ar
     7    17     7    1
     8     7     8    2
     9     7     9   am
    10     9     1    1
    11     1     2   ar
    12     2     3   ar
    13     3     4   ar
    14     4    18    1
    15    18    19    2
    16    18    20   am
    17    20    22    1
    18    22    23   ar
    19    23    24   ar
    20    24    25   ar
    21    25    26   ar
    22     4     5   ar
    23     5     6   ar
    24    17    12   ar
    25     6     1   ar
    26    26    22   ar
    27     9    10    1
    28    20    21    1
