@<TRIPOS>MOLECULE
*****
 42 47 0 0 0
SMALL
GASTEIGER

@<TRIPOS>ATOM
      1 N           1.3048    2.0503   29.9858 N.am    1  UNL1       -0.1907
      2 C           2.3378    0.9667   30.0792 C.2     1  UNL1        0.3220
      3 O           2.7347    0.0297   28.9773 O.2     1  UNL1       -0.2512
      4 N           2.9041    0.9845   31.4681 N.am    1  UNL1       -0.2212
      5 C           2.2212    2.0793   32.2332 C.3     1  UNL1        0.1391
      6 C           1.4565    3.2031   32.8673 C.3     1  UNL1        0.0449
      7 C           1.7164    3.5740   34.2973 C.3     1  UNL1        0.0746
      8 N           2.7409    2.8210   35.0931 N.3     1  UNL1       -0.2676
      9 C           3.5055    1.6971   34.4590 C.3     1  UNL1        0.0746
     10 C           3.2457    1.3262   33.0290 C.3     1  UNL1        0.0449
     11 C           1.2327    2.7379   31.3171 C.2     1  UNL1        0.2529
     12 O           0.3306    3.8831   31.6702 O.2     1  UNL1       -0.2724
     13 C          -1.1473    3.0610   26.3506 C.ar    1  UNL1       -0.0002
     14 C          -1.1123    1.6519   26.8636 C.ar    1  UNL1        0.0013
     15 C          -0.2949    1.3150   28.0754 C.ar    1  UNL1        0.0154
     16 C           0.4874    2.3872   28.7741 C.ar    1  UNL1        0.0622
     17 C           0.4524    3.7963   28.2611 C.ar    1  UNL1        0.0154
     18 C          -0.3650    4.1331   27.0493 C.ar    1  UNL1        0.0013
     19 C          -4.0143    3.8896   26.6580 C.3     1  UNL1        0.0310
     20 C          -3.3981    3.8122   25.2926 C.ar    1  UNL1       -0.0218
     21 C          -4.2156    4.1491   24.0807 C.ar    1  UNL1       -0.0031
     22 C          -3.5995    4.0717   22.7153 C.ar    1  UNL1        0.0137
     23 C          -2.1660    3.6574   22.5616 C.ar    1  UNL1        0.0011
     24 C          -1.3486    3.3205   23.7733 C.ar    1  UNL1       -0.0003
     25 C          -1.9647    3.3979   25.1388 C.ar    1  UNL1       -0.0040
     26 C          -4.4169    4.4086   21.5035 C.2     1  UNL1        0.0729
     27 O          -4.9668    5.7935   21.3311 O.co2   1  UNL1       -0.5446
     28 O          -4.6843    3.3606   20.4641 O.co2   1  UNL1       -0.5446
     29 C           3.9668    0.0686   31.9988 C.ar    1  UNL1        0.1583
     30 C           5.4128    0.4497   31.8811 C.ar    1  UNL1        0.1335
     31 N           6.4754   -0.4663   32.4119 N.ar    1  UNL1       -0.2378
     32 C           6.0921   -1.7635   33.0603 C.ar    1  UNL1        0.1196
     33 C           4.6462   -2.1446   33.1780 C.ar    1  UNL1        0.1210
     34 N           3.5835   -1.2286   32.6472 N.ar    1  UNL1       -0.2255
     35 C           3.0007    3.1919   36.5232 C.3     1  UNL1        0.1183
     36 C           2.2567    2.4976   37.6251 C.ar    1  UNL1        0.0712
     37 N           0.9607    3.0622   38.1268 N.ar    1  UNL1       -0.2471
     38 C           0.2167    2.3679   39.2288 C.ar    1  UNL1        0.0985
     39 C           0.7687    1.1089   39.8291 C.ar    1  UNL1        0.0203
     40 C           2.0647    0.5443   39.3275 C.ar    1  UNL1       -0.0015
     41 C           2.8087    1.2386   38.2255 C.ar    1  UNL1       -0.0069
     42 C           4.1046    0.6740   37.7239 C.3     1  UNL1        0.0323
@<TRIPOS>UNITY_ATOM_ATTR
27 1
charge -1
@<TRIPOS>BOND
     1    19    20    1
     2    20    21   ar
     3    21    22   ar
     4    22    26    1
     5    26    27   ar
     6    26    28   ar
     7    22    23   ar
     8    23    24   ar
     9    24    25   ar
    10    25    13    1
    11    13    14   ar
    12    14    15   ar
    13    15    16   ar
    14    16     1    1
    15     1     2   am
    16     2     3    2
    17     2     4   am
    18     4    29    1
    19    29    30   ar
    20    30    31   ar
    21    31    32   ar
    22    32    33   ar
    23    33    34   ar
    24     4     5    1
    25     5     6    1
    26     6     7    1
    27     7     8    1
    28     8    35    1
    29    35    36    1
    30    36    37   ar
    31    37    38   ar
    32    38    39   ar
    33    39    40   ar
    34    40    41   ar
    35    41    42    1
    36     8     9    1
    37     9    10    1
    38     5    11    1
    39    11    12    2
    40    16    17   ar
    41    17    18   ar
    42    25    20   ar
    43    18    13   ar
    44    11     1   am
    45    34    29   ar
    46    10     5    1
    47    41    36   ar
@<TRIPOS>MOLECULE
*****
 42 47 0 0 0
SMALL
GASTEIGER

@<TRIPOS>ATOM
      1 N           2.1041    1.0082   30.4863 N.am    1  UNL1       -0.1907
      2 C           3.1702   -0.0184   30.2416 C.2     1  UNL1        0.3220
      3 O           3.4358   -0.7214   28.9435 O.2     1  UNL1       -0.2512
      4 N           3.9238   -0.2184   31.5230 N.am    1  UNL1       -0.2212
      5 C           3.3237    0.6845   32.5597 C.3     1  UNL1        0.1391
      6 C           2.6236    1.6351   33.4849 C.3     1  UNL1        0.0449
      7 C           3.0697    1.7583   34.9117 C.3     1  UNL1        0.0746
      8 N           4.2159    0.9308   35.4132 N.3     1  UNL1       -0.2676
      9 C           4.9160   -0.0198   34.4880 C.3     1  UNL1        0.0746
     10 C           4.4699   -0.1429   33.0612 C.3     1  UNL1        0.0449
     11 C           2.1990    1.4426   31.9189 C.2     1  UNL1        0.2529
     12 O           1.3231    2.4570   32.5925 O.2     1  UNL1       -0.2724
     13 C          -0.8583    2.5194   27.4548 C.ar    1  UNL1       -0.0002
     14 C           0.1902    3.4414   28.0032 C.ar    1  UNL1        0.0013
     15 C           1.1776    2.9377   29.0137 C.ar    1  UNL1        0.0154
     16 C           1.1167    1.5120   29.4758 C.ar    1  UNL1        0.0622
     17 C           0.0683    0.5900   28.9274 C.ar    1  UNL1        0.0154
     18 C          -0.9192    1.0938   27.9169 C.ar    1  UNL1        0.0013
     19 C          -0.1826    2.4488   24.5326 C.3     1  UNL1        0.0310
     20 C          -1.5079    2.9878   24.9833 C.ar    1  UNL1       -0.0218
     21 C          -2.4954    3.4916   23.9727 C.ar    1  UNL1       -0.0031
     22 C          -3.8207    4.0307   24.4232 C.ar    1  UNL1        0.0137
     23 C          -4.1585    4.0660   25.8843 C.ar    1  UNL1        0.0011
     24 C          -3.1711    3.5623   26.8948 C.ar    1  UNL1       -0.0003
     25 C          -1.8457    3.0232   26.4443 C.ar    1  UNL1       -0.0040
     26 C          -4.8082    4.5344   23.4127 C.2     1  UNL1        0.0729
     27 O          -6.1735    3.9192   23.3270 O.co2   1  UNL1       -0.5446
     28 O          -4.4303    5.6533   22.4879 O.co2   1  UNL1       -0.5446
     29 C           5.0755   -1.1566   31.7312 C.ar    1  UNL1        0.1583
     30 C           4.8370   -2.5203   32.3088 C.ar    1  UNL1        0.1335
     31 N           5.9888   -3.4584   32.5171 N.ar    1  UNL1       -0.2378
     32 C           7.3790   -3.0330   32.1477 C.ar    1  UNL1        0.1196
     33 C           7.6174   -1.6694   31.5701 C.ar    1  UNL1        0.1210
     34 N           6.4657   -0.7312   31.3619 N.ar    1  UNL1       -0.2255
     35 C           4.6620    1.0541   36.8401 C.3     1  UNL1        0.1183
     36 C           4.4076    2.3229   37.5985 C.ar    1  UNL1        0.0712
     37 N           5.2765    3.5232   37.3653 N.ar    1  UNL1       -0.2471
     38 C           5.0221    4.7920   38.1238 C.ar    1  UNL1        0.0985
     39 C           3.8988    4.8606   39.1155 C.ar    1  UNL1        0.0203
     40 C           3.0299    3.6604   39.3487 C.ar    1  UNL1       -0.0015
     41 C           3.2843    2.3915   38.5903 C.ar    1  UNL1       -0.0069
     42 C           2.4154    1.1913   38.8235 C.3     1  UNL1        0.0323
@<TRIPOS>UNITY_ATOM_ATTR
27 1
charge -1
@<TRIPOS>BOND
     1    19    20    1
     2    20    21   ar
     3    21    22   ar
     4    22    26    1
     5    26    27   ar
     6    26    28   ar
     7    22    23   ar
     8    23    24   ar
     9    24    25   ar
    10    25    13    1
    11    13    14   ar
    12    14    15   ar
    13    15    16   ar
    14    16     1    1
    15     1     2   am
    16     2     3    2
    17     2     4   am
    18     4    29    1
    19    29    30   ar
    20    30    31   ar
    21    31    32   ar
    22    32    33   ar
    23    33    34   ar
    24     4     5    1
    25     5     6    1
    26     6     7    1
    27     7     8    1
    28     8    35    1
    29    35    36    1
    30    36    37   ar
    31    37    38   ar
    32    38    39   ar
    33    39    40   ar
    34    40    41   ar
    35    41    42    1
    36     8     9    1
    37     9    10    1
    38     5    11    1
    39    11    12    2
    40    16    17   ar
    41    17    18   ar
    42    25    20   ar
    43    18    13   ar
    44    11     1   am
    45    34    29   ar
    46    10     5    1
    47    41    36   ar
@<TRIPOS>MOLECULE
*****
 42 47 0 0 0
SMALL
GASTEIGER

@<TRIPOS>ATOM
      1 N           2.0071    0.3269   23.4820 N.am    1  UNL1       -0.1907
      2 C           2.1940   -0.0591   22.0445 C.2     1  UNL1        0.3220
      3 O           1.3082    0.3406   20.9020 O.2     1  UNL1       -0.2512
      4 N           3.4222   -0.9150   21.9503 N.am    1  UNL1       -0.2212
      5 C           3.9945   -1.0581   23.3296 C.3     1  UNL1        0.1391
      6 C           4.4480   -1.1111   24.7583 C.3     1  UNL1        0.0449
      7 C           5.6787   -1.8856   25.1263 C.3     1  UNL1        0.0746
      8 N           6.4559   -2.6072   24.0655 N.3     1  UNL1       -0.2676
      9 C           6.0024   -2.5541   22.6367 C.3     1  UNL1        0.0746
     10 C           4.7717   -1.7796   22.2687 C.3     1  UNL1        0.0449
     11 C           3.1199   -0.2905   24.2761 C.2     1  UNL1        0.2529
     12 O           3.3225   -0.1628   25.7569 O.2     1  UNL1       -0.2724
     13 C          -1.3094    2.8873   25.1235 C.ar    1  UNL1       -0.0002
     14 C          -0.7969    1.7233   25.9187 C.ar    1  UNL1        0.0013
     15 C           0.3086    0.8698   25.3715 C.ar    1  UNL1        0.0154
     16 C           0.9016    1.1804   24.0291 C.ar    1  UNL1        0.0622
     17 C           0.3891    2.3443   23.2340 C.ar    1  UNL1        0.0154
     18 C          -0.7164    3.1978   23.7811 C.ar    1  UNL1        0.0013
     19 C          -0.7117    4.9629   27.2056 C.3     1  UNL1        0.0310
     20 C          -2.1161    4.7785   26.7117 C.ar    1  UNL1       -0.0218
     21 C          -3.2216    5.6321   27.2589 C.ar    1  UNL1       -0.0031
     22 C          -4.6259    5.4478   26.7650 C.ar    1  UNL1        0.0137
     23 C          -4.9247    4.4100   25.7239 C.ar    1  UNL1        0.0011
     24 C          -3.8192    3.5565   25.1767 C.ar    1  UNL1       -0.0003
     25 C          -2.4149    3.7408   25.6706 C.ar    1  UNL1       -0.0040
     26 C          -5.7314    6.3013   27.3122 C.2     1  UNL1        0.0729
     27 O          -6.6039    5.7816   28.4161 O.co2   1  UNL1       -0.5446
     28 O          -5.9645    7.6745   26.7554 O.co2   1  UNL1       -0.5446
     29 C           3.9803   -1.5215   20.6971 C.ar    1  UNL1        0.1583
     30 C           4.9741   -0.7582   19.8726 C.ar    1  UNL1        0.1335
     31 N           5.5321   -1.3647   18.6193 N.ar    1  UNL1       -0.2378
     32 C           5.0964   -2.7345   18.1904 C.ar    1  UNL1        0.1196
     33 C           4.1026   -3.4978   19.0149 C.ar    1  UNL1        0.1210
     34 N           3.5446   -2.8913   20.2682 N.ar    1  UNL1       -0.2255
     35 C           7.6866   -3.3817   24.4335 C.3     1  UNL1        0.1183
     36 C           7.5642   -4.7893   24.9372 C.ar    1  UNL1        0.0712
     37 N           6.8941   -5.0599   26.2516 N.ar    1  UNL1       -0.2471
     38 C           6.7718   -6.4676   26.7553 C.ar    1  UNL1        0.0985
     39 C           7.3195   -7.6045   25.9445 C.ar    1  UNL1        0.0203
     40 C           7.9896   -7.3339   24.6301 C.ar    1  UNL1       -0.0015
     41 C           8.1120   -5.9263   24.1264 C.ar    1  UNL1       -0.0069
     42 C           8.7821   -5.6557   22.8120 C.3     1  UNL1        0.0323
@<TRIPOS>UNITY_ATOM_ATTR
27 1
charge -1
@<TRIPOS>BOND
     1    19    20    1
     2    20    21   ar
     3    21    22   ar
     4    22    26    1
     5    26    27   ar
     6    26    28   ar
     7    22    23   ar
     8    23    24   ar
     9    24    25   ar
    10    25    13    1
    11    13    14   ar
    12    14    15   ar
    13    15    16   ar
    14    16     1    1
    15     1     2   am
    16     2     3    2
    17     2     4   am
    18     4    29    1
    19    29    30   ar
    20    30    31   ar
    21    31    32   ar
    22    32    33   ar
    23    33    34   ar
    24     4     5    1
    25     5     6    1
    26     6     7    1
    27     7     8    1
    28     8    35    1
    29    35    36    1
    30    36    37   ar
    31    37    38   ar
    32    38    39   ar
    33    39    40   ar
    34    40    41   ar
    35    41    42    1
    36     8     9    1
    37     9    10    1
    38     5    11    1
    39    11    12    2
    40    16    17   ar
    41    17    18   ar
    42    25    20   ar
    43    18    13   ar
    44    11     1   am
    45    34    29   ar
    46    10     5    1
    47    41    36   ar
@<TRIPOS>MOLECULE
*****
 42 47 0 0 0
SMALL
GASTEIGER

@<TRIPOS>ATOM
      1 N           2.3451    2.3211   30.0620 N.am    1  UNL1       -0.1907
      2 C           1.4082    3.4887   30.1560 C.2     1  UNL1        0.3220
      3 O           0.6288    4.0872   29.0227 O.2     1  UNL1       -0.2512
      4 N           1.3874    3.9528   31.5822 N.am    1  UNL1       -0.2212
      5 C           2.3116    3.0719   32.3698 C.3     1  UNL1        0.1391
      6 C           3.2643    2.1151   33.0230 C.3     1  UNL1        0.0449
      7 C           3.5469    2.2236   34.4921 C.3     1  UNL1        0.0746
      8 N           2.8768    3.2891   35.3080 N.3     1  UNL1       -0.2676
      9 C           1.9241    4.2460   34.6549 C.3     1  UNL1        0.0746
     10 C           1.6415    4.1374   33.1858 C.3     1  UNL1        0.0449
     11 C           2.9035    2.0635   31.4302 C.2     1  UNL1        0.2529
     12 O           3.8819    0.9866   31.7948 O.2     1  UNL1       -0.2724
     13 C           3.3114   -0.0012   26.3307 C.ar    1  UNL1       -0.0002
     14 C           2.6734   -0.6916   27.4996 C.ar    1  UNL1        0.0013
     15 C           2.3513    0.0825   28.7434 C.ar    1  UNL1        0.0154
     16 C           2.6672    1.5470   28.8182 C.ar    1  UNL1        0.0622
     17 C           3.3051    2.2373   27.6493 C.ar    1  UNL1        0.0154
     18 C           3.6272    1.4632   26.4055 C.ar    1  UNL1        0.0013
     19 C           1.8548    0.5913   23.7757 C.3     1  UNL1        0.0310
     20 C           2.9051   -0.4791   23.8095 C.ar    1  UNL1       -0.0218
     21 C           3.2272   -1.2532   22.5656 C.ar    1  UNL1       -0.0031
     22 C           4.2776   -2.3236   22.5992 C.ar    1  UNL1        0.0137
     23 C           5.0059   -2.6198   23.8768 C.ar    1  UNL1        0.0011
     24 C           4.6838   -1.8457   25.1205 C.ar    1  UNL1       -0.0003
     25 C           3.6334   -0.7753   25.0869 C.ar    1  UNL1       -0.0040
     26 C           4.5996   -3.0977   21.3555 C.2     1  UNL1        0.0729
     27 O           3.9924   -2.6962   20.0439 O.co2   1  UNL1       -0.5446
     28 O           5.5289   -4.2732   21.4232 O.co2   1  UNL1       -0.5446
     29 C           0.5837    5.0967   32.1257 C.ar    1  UNL1        0.1583
     30 C           1.1109    6.4975   32.0269 C.ar    1  UNL1        0.1335
     31 N           0.3071    7.6415   32.5703 N.ar    1  UNL1       -0.2378
     32 C          -1.0239    7.3847   33.2126 C.ar    1  UNL1        0.1196
     33 C          -1.5511    5.9839   33.3114 C.ar    1  UNL1        0.1210
     34 N          -0.7473    4.8399   32.7679 N.ar    1  UNL1       -0.2255
     35 C           3.1595    3.3976   36.7772 C.3     1  UNL1        0.1183
     36 C           2.3563    2.5943   37.7568 C.ar    1  UNL1        0.0712
     37 N           1.0366    3.1115   38.2474 N.ar    1  UNL1       -0.2471
     38 C           0.2334    2.3081   39.2270 C.ar    1  UNL1        0.0985
     39 C           0.7501    0.9876   39.7161 C.ar    1  UNL1        0.0203
     40 C           2.0699    0.4704   39.2255 C.ar    1  UNL1       -0.0015
     41 C           2.8730    1.2737   38.2459 C.ar    1  UNL1       -0.0069
     42 C           4.1928    0.7565   37.7553 C.3     1  UNL1        0.0323
@<TRIPOS>UNITY_ATOM_ATTR
27 1
charge -1
@<TRIPOS>BOND
     1    19    20    1
     2    20    21   ar
     3    21    22   ar
     4    22    26    1
     5    26    27   ar
     6    26    28   ar
     7    22    23   ar
     8    23    24   ar
     9    24    25   ar
    10    25    13    1
    11    13    14   ar
    12    14    15   ar
    13    15    16   ar
    14    16     1    1
    15     1     2   am
    16     2     3    2
    17     2     4   am
    18     4    29    1
    19    29    30   ar
    20    30    31   ar
    21    31    32   ar
    22    32    33   ar
    23    33    34   ar
    24     4     5    1
    25     5     6    1
    26     6     7    1
    27     7     8    1
    28     8    35    1
    29    35    36    1
    30    36    37   ar
    31    37    38   ar
    32    38    39   ar
    33    39    40   ar
    34    40    41   ar
    35    41    42    1
    36     8     9    1
    37     9    10    1
    38     5    11    1
    39    11    12    2
    40    16    17   ar
    41    17    18   ar
    42    25    20   ar
    43    18    13   ar
    44    11     1   am
    45    34    29   ar
    46    10     5    1
    47    41    36   ar
@<TRIPOS>MOLECULE
*****
 42 47 0 0 0
SMALL
GASTEIGER

@<TRIPOS>ATOM
      1 N           4.9172   -1.1120   27.9596 N.am    1  UNL1       -0.1907
      2 C           6.0619   -2.0190   27.6172 C.2     1  UNL1        0.3220
      3 O           7.0916   -2.5394   28.5756 O.2     1  UNL1       -0.2512
      4 N           5.9960   -2.3142   26.1480 N.am    1  UNL1       -0.2212
      5 C           4.8106   -1.5896   25.5823 C.3     1  UNL1        0.1391
      6 C           3.5987   -0.8120   25.1620 C.3     1  UNL1        0.0449
      7 C           3.1575   -0.8277   23.7285 C.3     1  UNL1        0.0746
      8 N           3.9282   -1.6210   22.7152 N.3     1  UNL1       -0.2676
      9 C           5.1401   -2.3986   23.1355 C.3     1  UNL1        0.0746
     10 C           5.5813   -2.3829   24.5690 C.3     1  UNL1        0.0449
     11 C           4.1438   -0.8467   26.7019 C.2     1  UNL1        0.2529
     12 O           2.9189    0.0111   26.5845 O.2     1  UNL1       -0.2724
     13 C           3.9696    0.5253   32.0426 C.ar    1  UNL1       -0.0002
     14 C           5.2775    0.8561   31.3869 C.ar    1  UNL1        0.0013
     15 C           5.5934    0.3103   30.0259 C.ar    1  UNL1        0.0154
     16 C           4.6013   -0.5662   29.3206 C.ar    1  UNL1        0.0622
     17 C           3.2935   -0.8970   29.9762 C.ar    1  UNL1        0.0154
     18 C           2.9776   -0.3513   31.3372 C.ar    1  UNL1        0.0013
     19 C           5.2141   -0.7065   34.4786 C.3     1  UNL1        0.0310
     20 C           4.2760    0.4551   34.6215 C.ar    1  UNL1       -0.0218
     21 C           3.9601    1.0009   35.9826 C.ar    1  UNL1       -0.0031
     22 C           3.0220    2.1626   36.1256 C.ar    1  UNL1        0.0137
     23 C           2.3997    2.7785   34.9076 C.ar    1  UNL1        0.0011
     24 C           2.7155    2.2327   33.5466 C.ar    1  UNL1       -0.0003
     25 C           3.6537    1.0710   33.4036 C.ar    1  UNL1       -0.0040
     26 C           2.7061    2.7083   37.4866 C.2     1  UNL1        0.0729
     27 O           3.8045    2.9061   38.4888 O.co2   1  UNL1       -0.5446
     28 O           1.2918    3.0564   37.8455 O.co2   1  UNL1       -0.5446
     29 C           6.9482   -3.1815   25.3793 C.ar    1  UNL1        0.1583
     30 C           8.1761   -2.5821   24.7604 C.ar    1  UNL1        0.1335
     31 N           9.1283   -3.4496   23.9917 N.ar    1  UNL1       -0.2378
     32 C           8.8527   -4.9165   23.8420 C.ar    1  UNL1        0.1196
     33 C           7.6249   -5.5159   24.4610 C.ar    1  UNL1        0.1210
     34 N           6.6727   -4.6484   25.2297 N.ar    1  UNL1       -0.2255
     35 C           3.4870   -1.6366   21.2816 C.3     1  UNL1        0.1183
     36 C           4.5061   -1.7189   20.1841 C.ar    1  UNL1        0.0712
     37 N           5.4837   -0.5992   19.9829 N.ar    1  UNL1       -0.2471
     38 C           6.5029   -0.6815   18.8853 C.ar    1  UNL1        0.0985
     39 C           6.5444   -1.8835   17.9890 C.ar    1  UNL1        0.0203
     40 C           5.5668   -3.0032   18.1902 C.ar    1  UNL1       -0.0015
     41 C           4.5477   -2.9210   19.2877 C.ar    1  UNL1       -0.0069
     42 C           3.5700   -4.0407   19.4889 C.3     1  UNL1        0.0323
@<TRIPOS>UNITY_ATOM_ATTR
27 1
charge -1
@<TRIPOS>BOND
     1    19    20    1
     2    20    21   ar
     3    21    22   ar
     4    22    26    1
     5    26    27   ar
     6    26    28   ar
     7    22    23   ar
     8    23    24   ar
     9    24    25   ar
    10    25    13    1
    11    13    14   ar
    12    14    15   ar
    13    15    16   ar
    14    16     1    1
    15     1     2   am
    16     2     3    2
    17     2     4   am
    18     4    29    1
    19    29    30   ar
    20    30    31   ar
    21    31    32   ar
    22    32    33   ar
    23    33    34   ar
    24     4     5    1
    25     5     6    1
    26     6     7    1
    27     7     8    1
    28     8    35    1
    29    35    36    1
    30    36    37   ar
    31    37    38   ar
    32    38    39   ar
    33    39    40   ar
    34    40    41   ar
    35    41    42    1
    36     8     9    1
    37     9    10    1
    38     5    11    1
    39    11    12    2
    40    16    17   ar
    41    17    18   ar
    42    25    20   ar
    43    18    13   ar
    44    11     1   am
    45    34    29   ar
    46    10     5    1
    47    41    36   ar
@<TRIPOS>MOLECULE
*****
 42 47 0 0 0
SMALL
GASTEIGER

@<TRIPOS>ATOM
      1 N           2.4456    1.1724   26.5086 N.am    1  UNL1       -0.1907
      2 C           1.8693    1.8562   25.3043 C.2     1  UNL1        0.3220
      3 O           1.0623    3.1206   25.3102 O.2     1  UNL1       -0.2512
      4 N           2.2416    1.0536   24.0930 N.am    1  UNL1       -0.2212
      5 C           3.0481   -0.1263   24.5486 C.3     1  UNL1        0.1391
      6 C           3.8365   -1.2515   25.1503 C.3     1  UNL1        0.0449
      7 C           4.4153   -2.3176   24.2680 C.3     1  UNL1        0.0746
      8 N           4.2055   -2.2584   22.7839 N.3     1  UNL1       -0.2676
      9 C           3.4171   -1.1332   22.1822 C.3     1  UNL1        0.0746
     10 C           2.8384   -0.0671   23.0645 C.3     1  UNL1        0.0449
     11 C           3.1741   -0.0529   26.0415 C.2     1  UNL1        0.2529
     12 O           3.9011   -1.0327   26.9142 O.2     1  UNL1       -0.2724
     13 C           2.0571    2.5539   30.7735 C.ar    1  UNL1       -0.0002
     14 C           1.0874    1.5534   30.2180 C.ar    1  UNL1        0.0013
     15 C           1.2168    1.0929   28.7963 C.ar    1  UNL1        0.0154
     16 C           2.3161    1.6329   27.9302 C.ar    1  UNL1        0.0622
     17 C           3.2858    2.6333   28.4858 C.ar    1  UNL1        0.0154
     18 C           3.1563    3.0938   29.9074 C.ar    1  UNL1        0.0013
     19 C           3.1776    0.8834   32.9994 C.3     1  UNL1        0.0310
     20 C           2.4879    2.1792   33.3081 C.ar    1  UNL1       -0.0218
     21 C           2.3584    2.6397   34.7298 C.ar    1  UNL1       -0.0031
     22 C           1.6687    3.9354   35.0386 C.ar    1  UNL1        0.0137
     23 C           1.1084    4.7707   33.9256 C.ar    1  UNL1        0.0011
     24 C           1.2379    4.3102   32.5040 C.ar    1  UNL1       -0.0003
     25 C           1.9276    3.0144   32.1952 C.ar    1  UNL1       -0.0040
     26 C           1.5392    4.3959   36.4603 C.2     1  UNL1        0.0729
     27 O           1.3296    3.3943   37.5569 O.co2   1  UNL1       -0.5446
     28 O           1.6194    5.8581   36.7853 O.co2   1  UNL1       -0.5446
     29 C           1.8724    1.3745   22.6750 C.ar    1  UNL1        0.1583
     30 C           2.7710    2.2414   21.8438 C.ar    1  UNL1        0.1335
     31 N           2.4017    2.5622   20.4258 N.ar    1  UNL1       -0.2378
     32 C           1.1338    2.0162   19.8390 C.ar    1  UNL1        0.1196
     33 C           0.2352    1.1493   20.6702 C.ar    1  UNL1        0.1210
     34 N           0.6045    0.8285   22.0882 N.ar    1  UNL1       -0.2255
     35 C           4.7843   -3.3245   21.9016 C.3     1  UNL1        0.1183
     36 C           5.4436   -2.9506   20.6072 C.ar    1  UNL1        0.0712
     37 N           6.7631   -2.2372   20.6162 N.ar    1  UNL1       -0.2471
     38 C           7.4224   -1.8633   19.3217 C.ar    1  UNL1        0.0985
     39 C           6.7622   -2.2027   18.0183 C.ar    1  UNL1        0.0203
     40 C           5.4428   -2.9161   18.0093 C.ar    1  UNL1       -0.0015
     41 C           4.7834   -3.2900   19.3037 C.ar    1  UNL1       -0.0069
     42 C           3.4640   -4.0034   19.2947 C.3     1  UNL1        0.0323
@<TRIPOS>UNITY_ATOM_ATTR
27 1
charge -1
@<TRIPOS>BOND
     1    19    20    1
     2    20    21   ar
     3    21    22   ar
     4    22    26    1
     5    26    27   ar
     6    26    28   ar
     7    22    23   ar
     8    23    24   ar
     9    24    25   ar
    10    25    13    1
    11    13    14   ar
    12    14    15   ar
    13    15    16   ar
    14    16     1    1
    15     1     2   am
    16     2     3    2
    17     2     4   am
    18     4    29    1
    19    29    30   ar
    20    30    31   ar
    21    31    32   ar
    22    32    33   ar
    23    33    34   ar
    24     4     5    1
    25     5     6    1
    26     6     7    1
    27     7     8    1
    28     8    35    1
    29    35    36    1
    30    36    37   ar
    31    37    38   ar
    32    38    39   ar
    33    39    40   ar
    34    40    41   ar
    35    41    42    1
    36     8     9    1
    37     9    10    1
    38     5    11    1
    39    11    12    2
    40    16    17   ar
    41    17    18   ar
    42    25    20   ar
    43    18    13   ar
    44    11     1   am
    45    34    29   ar
    46    10     5    1
    47    41    36   ar
@<TRIPOS>MOLECULE
*****
 42 47 0 0 0
SMALL
GASTEIGER

@<TRIPOS>ATOM
      1 N           6.3411   -2.3348   29.6585 N.am    1  UNL1       -0.1907
      2 C           6.8627   -3.7248   29.4443 C.2     1  UNL1        0.3220
      3 O           7.1430   -4.7361   30.5159 O.2     1  UNL1       -0.2512
      4 N           7.0547   -3.9258   27.9703 N.am    1  UNL1       -0.2212
      5 C           6.6518   -2.6600   27.2734 C.3     1  UNL1        0.1391
      6 C           6.2163   -1.3362   26.7188 C.3     1  UNL1        0.0449
      7 C           6.2488   -1.0959   25.2385 C.3     1  UNL1        0.0746
      8 N           6.7167   -2.1796   24.3129 N.3     1  UNL1       -0.2676
      9 C           7.1522   -3.5035   24.8675 C.3     1  UNL1        0.0746
     10 C           7.1197   -3.7437   26.3478 C.3     1  UNL1        0.0449
     11 C           6.2108   -1.6767   28.3168 C.2     1  UNL1        0.2529
     12 O           5.7248   -0.2805   28.0630 O.2     1  UNL1       -0.2724
     13 C           5.3427   -0.4668   33.6288 C.ar    1  UNL1       -0.0002
     14 C           4.6699   -1.7399   33.2085 C.ar    1  UNL1        0.0013
     15 C           5.0027   -2.3625   31.8851 C.ar    1  UNL1        0.0154
     16 C           6.0083   -1.7121   30.9819 C.ar    1  UNL1        0.0622
     17 C           6.6811   -0.4391   31.4022 C.ar    1  UNL1        0.0154
     18 C           6.3483    0.1835   32.7257 C.ar    1  UNL1        0.0013
     19 C           3.1344    1.5546   33.8226 C.3     1  UNL1        0.0310
     20 C           3.9058    1.1665   35.0491 C.ar    1  UNL1       -0.0218
     21 C           3.5729    1.7892   36.3726 C.ar    1  UNL1       -0.0031
     22 C           4.3443    1.4012   37.5992 C.ar    1  UNL1        0.0137
     23 C           5.4484    0.3904   37.5023 C.ar    1  UNL1        0.0011
     24 C           5.7812   -0.2322   36.1788 C.ar    1  UNL1       -0.0003
     25 C           5.0099    0.1558   34.9523 C.ar    1  UNL1       -0.0040
     26 C           4.0115    2.0238   38.9226 C.2     1  UNL1        0.0729
     27 O           2.5846    2.3297   39.2700 O.co2   1  UNL1       -0.5446
     28 O           5.1055    2.3406   39.8988 O.co2   1  UNL1       -0.5446
     29 C           7.5608   -5.1735   27.3091 C.ar    1  UNL1        0.1583
     30 C           9.0300   -5.3492   27.0635 C.ar    1  UNL1        0.1335
     31 N           9.5360   -6.5969   26.4023 N.ar    1  UNL1       -0.2378
     32 C           8.5727   -7.6690   25.9867 C.ar    1  UNL1        0.1196
     33 C           7.1034   -7.4934   26.2323 C.ar    1  UNL1        0.1210
     34 N           6.5975   -6.2456   26.8935 N.ar    1  UNL1       -0.2255
     35 C           6.7491   -1.9393   22.8326 C.3     1  UNL1        0.1183
     36 C           5.5384   -1.3945   22.1345 C.ar    1  UNL1        0.0712
     37 N           5.4288    0.0762   21.8606 N.ar    1  UNL1       -0.2471
     38 C           4.2180    0.6209   21.1625 C.ar    1  UNL1        0.0985
     39 C           3.1169   -0.3051   20.7383 C.ar    1  UNL1        0.0203
     40 C           3.2264   -1.7758   21.0122 C.ar    1  UNL1       -0.0015
     41 C           4.4371   -2.3205   21.7102 C.ar    1  UNL1       -0.0069
     42 C           4.5467   -3.7912   21.9841 C.3     1  UNL1        0.0323
@<TRIPOS>UNITY_ATOM_ATTR
27 1
charge -1
@<TRIPOS>BOND
     1    19    20    1
     2    20    21   ar
     3    21    22   ar
     4    22    26    1
     5    26    27   ar
     6    26    28   ar
     7    22    23   ar
     8    23    24   ar
     9    24    25   ar
    10    25    13    1
    11    13    14   ar
    12    14    15   ar
    13    15    16   ar
    14    16     1    1
    15     1     2   am
    16     2     3    2
    17     2     4   am
    18     4    29    1
    19    29    30   ar
    20    30    31   ar
    21    31    32   ar
    22    32    33   ar
    23    33    34   ar
    24     4     5    1
    25     5     6    1
    26     6     7    1
    27     7     8    1
    28     8    35    1
    29    35    36    1
    30    36    37   ar
    31    37    38   ar
    32    38    39   ar
    33    39    40   ar
    34    40    41   ar
    35    41    42    1
    36     8     9    1
    37     9    10    1
    38     5    11    1
    39    11    12    2
    40    16    17   ar
    41    17    18   ar
    42    25    20   ar
    43    18    13   ar
    44    11     1   am
    45    34    29   ar
    46    10     5    1
    47    41    36   ar
@<TRIPOS>MOLECULE
*****
 42 47 0 0 0
SMALL
GASTEIGER

@<TRIPOS>ATOM
      1 N           2.4765    1.0962   26.3163 N.am    1  UNL1       -0.1907
      2 C           1.7167    2.2416   25.7154 C.2     1  UNL1        0.3220
      3 O           1.1802    3.4296   26.4573 O.2     1  UNL1       -0.2512
      4 N           1.5879    1.9903   24.2422 N.am    1  UNL1       -0.2212
      5 C           2.2679    0.6896   23.9325 C.3     1  UNL1        0.1391
      6 C           2.9815   -0.6204   23.7761 C.3     1  UNL1        0.0449
      7 C           3.0928   -1.2568   22.4223 C.3     1  UNL1        0.0746
      8 N           2.4906   -0.5831   21.2251 N.3     1  UNL1       -0.2676
      9 C           1.7770    0.7270   21.3816 C.3     1  UNL1        0.0746
     10 C           1.6657    1.3633   22.7353 C.3     1  UNL1        0.0449
     11 C           2.8171    0.1370   25.2144 C.2     1  UNL1        0.2529
     12 O           3.5740   -1.1489   25.3675 O.2     1  UNL1       -0.2724
     13 C           3.5458    0.6211   30.6614 C.ar    1  UNL1       -0.0002
     14 C           4.3287    1.5626   29.7950 C.ar    1  UNL1        0.0013
     15 C           3.9722    1.7210   28.3466 C.ar    1  UNL1        0.0154
     16 C           2.8329    0.9378   27.7647 C.ar    1  UNL1        0.0622
     17 C           2.0501   -0.0037   28.6310 C.ar    1  UNL1        0.0154
     18 C           2.4066   -0.1620   30.0794 C.ar    1  UNL1        0.0013
     19 C           5.3860   -1.5872   31.5205 C.3     1  UNL1        0.0310
     20 C           4.8223   -0.6414   32.5393 C.ar    1  UNL1       -0.0218
     21 C           5.1788   -0.7999   33.9878 C.ar    1  UNL1       -0.0031
     22 C           4.6152    0.1458   35.0066 C.ar    1  UNL1        0.0137
     23 C           3.6952    1.2500   34.5770 C.ar    1  UNL1        0.0011
     24 C           3.3387    1.4084   33.1287 C.ar    1  UNL1       -0.0003
     25 C           3.9023    0.4627   32.1098 C.ar    1  UNL1       -0.0040
     26 C           4.9717   -0.0125   36.4550 C.2     1  UNL1        0.0729
     27 O           6.2876   -0.6201   36.8414 O.co2   1  UNL1       -0.5446
     28 O           4.0123    0.4366   37.5170 O.co2   1  UNL1       -0.5446
     29 C           0.8998    2.8829   23.2524 C.ar    1  UNL1        0.1583
     30 C           1.6639    3.9822   22.5758 C.ar    1  UNL1        0.1335
     31 N           0.9758    4.8747   21.5860 N.ar    1  UNL1       -0.2378
     32 C          -0.4766    4.6681   21.2727 C.ar    1  UNL1        0.1196
     33 C          -1.2407    3.5688   21.9492 C.ar    1  UNL1        0.1210
     34 N          -0.5525    2.6763   22.9390 N.ar    1  UNL1       -0.2255
     35 C           2.6020   -1.2195   19.8713 C.3     1  UNL1        0.1183
     36 C           3.9531   -1.4958   19.2813 C.ar    1  UNL1        0.0712
     37 N           4.9131   -0.3679   19.0448 N.ar    1  UNL1       -0.2471
     38 C           6.2643   -0.6443   18.4548 C.ar    1  UNL1        0.0985
     39 C           6.6553   -2.0486   18.1013 C.ar    1  UNL1        0.0203
     40 C           5.6952   -3.1766   18.3379 C.ar    1  UNL1       -0.0015
     41 C           4.3441   -2.9002   18.9278 C.ar    1  UNL1       -0.0069
     42 C           3.3840   -4.0281   19.1643 C.3     1  UNL1        0.0323
@<TRIPOS>UNITY_ATOM_ATTR
27 1
charge -1
@<TRIPOS>BOND
     1    19    20    1
     2    20    21   ar
     3    21    22   ar
     4    22    26    1
     5    26    27   ar
     6    26    28   ar
     7    22    23   ar
     8    23    24   ar
     9    24    25   ar
    10    25    13    1
    11    13    14   ar
    12    14    15   ar
    13    15    16   ar
    14    16     1    1
    15     1     2   am
    16     2     3    2
    17     2     4   am
    18     4    29    1
    19    29    30   ar
    20    30    31   ar
    21    31    32   ar
    22    32    33   ar
    23    33    34   ar
    24     4     5    1
    25     5     6    1
    26     6     7    1
    27     7     8    1
    28     8    35    1
    29    35    36    1
    30    36    37   ar
    31    37    38   ar
    32    38    39   ar
    33    39    40   ar
    34    40    41   ar
    35    41    42    1
    36     8     9    1
    37     9    10    1
    38     5    11    1
    39    11    12    2
    40    16    17   ar
    41    17    18   ar
    42    25    20   ar
    43    18    13   ar
    44    11     1   am
    45    34    29   ar
    46    10     5    1
    47    41    36   ar
@<TRIPOS>MOLECULE
*****
 42 47 0 0 0
SMALL
GASTEIGER

@<TRIPOS>ATOM
      1 N           2.3981    0.8843   25.2625 N.am    1  UNL1       -0.1907
      2 C           1.7943    1.5235   24.0472 C.2     1  UNL1        0.3220
      3 O           0.9417    2.7574   24.0316 O.2     1  UNL1       -0.2512
      4 N           2.1931    0.7121   22.8503 N.am    1  UNL1       -0.2212
      5 C           3.0433   -0.4286   23.3258 C.3     1  UNL1        0.1391
      6 C           3.8738   -1.5125   23.9464 C.3     1  UNL1        0.0449
      7 C           4.4892   -2.5733   23.0828 C.3     1  UNL1        0.0746
      8 N           4.2740   -2.5502   21.5984 N.3     1  UNL1       -0.2676
      9 C           3.4435   -1.4662   20.9778 C.3     1  UNL1        0.0746
     10 C           2.8281   -0.4054   21.8415 C.3     1  UNL1        0.0449
     11 C           3.1700   -0.3222   24.8166 C.2     1  UNL1        0.2529
     12 O           3.9343   -1.2579   25.7056 O.2     1  UNL1       -0.2724
     13 C           1.9691    2.3319   29.5017 C.ar    1  UNL1       -0.0002
     14 C           0.8285    1.6249   28.8315 C.ar    1  UNL1        0.0013
     15 C           0.9714    1.1424   27.4184 C.ar    1  UNL1        0.0154
     16 C           2.2551    1.3669   26.6756 C.ar    1  UNL1        0.0622
     17 C           3.3957    2.0738   27.3457 C.ar    1  UNL1        0.0154
     18 C           3.2527    2.5563   28.7588 C.ar    1  UNL1        0.0013
     19 C           2.7882    0.5619   31.7813 C.3     1  UNL1        0.0310
     20 C           2.2357    1.9294   32.0545 C.ar    1  UNL1       -0.0218
     21 C           2.0927    2.4119   33.4676 C.ar    1  UNL1       -0.0031
     22 C           1.5402    3.7794   33.7409 C.ar    1  UNL1        0.0137
     23 C           1.1306    4.6644   32.6010 C.ar    1  UNL1        0.0011
     24 C           1.2736    4.1819   31.1880 C.ar    1  UNL1       -0.0003
     25 C           1.8261    2.8144   30.9147 C.ar    1  UNL1       -0.0040
     26 C           1.3972    4.2619   35.1539 C.2     1  UNL1        0.0729
     27 O           0.8590    5.6352   35.4266 O.co2   1  UNL1       -0.5446
     28 O           1.7924    3.3712   36.2942 O.co2   1  UNL1       -0.5446
     29 C           1.8091    0.9922   21.4276 C.ar    1  UNL1        0.1583
     30 C           0.5474    0.4099   20.8627 C.ar    1  UNL1        0.1335
     31 N           0.1635    0.6900   19.4400 N.ar    1  UNL1       -0.2378
     32 C           1.0412    1.5524   18.5821 C.ar    1  UNL1        0.1196
     33 C           2.3029    2.1347   19.1470 C.ar    1  UNL1        0.1210
     34 N           2.6868    1.8546   20.5697 N.ar    1  UNL1       -0.2255
     35 C           4.8894   -3.6111   20.7348 C.3     1  UNL1        0.1183
     36 C           6.3797   -3.6806   20.5796 C.ar    1  UNL1        0.0712
     37 N           7.1816   -4.6063   21.4457 N.ar    1  UNL1       -0.2471
     38 C           8.6720   -4.6758   21.2904 C.ar    1  UNL1        0.0985
     39 C           9.3604   -3.8198   20.2691 C.ar    1  UNL1        0.0203
     40 C           8.5585   -2.8941   19.4030 C.ar    1  UNL1       -0.0015
     41 C           7.0682   -2.8245   19.5582 C.ar    1  UNL1       -0.0069
     42 C           6.2663   -1.8989   18.6920 C.3     1  UNL1        0.0323
@<TRIPOS>UNITY_ATOM_ATTR
27 1
charge -1
@<TRIPOS>BOND
     1    19    20    1
     2    20    21   ar
     3    21    22   ar
     4    22    26    1
     5    26    27   ar
     6    26    28   ar
     7    22    23   ar
     8    23    24   ar
     9    24    25   ar
    10    25    13    1
    11    13    14   ar
    12    14    15   ar
    13    15    16   ar
    14    16     1    1
    15     1     2   am
    16     2     3    2
    17     2     4   am
    18     4    29    1
    19    29    30   ar
    20    30    31   ar
    21    31    32   ar
    22    32    33   ar
    23    33    34   ar
    24     4     5    1
    25     5     6    1
    26     6     7    1
    27     7     8    1
    28     8    35    1
    29    35    36    1
    30    36    37   ar
    31    37    38   ar
    32    38    39   ar
    33    39    40   ar
    34    40    41   ar
    35    41    42    1
    36     8     9    1
    37     9    10    1
    38     5    11    1
    39    11    12    2
    40    16    17   ar
    41    17    18   ar
    42    25    20   ar
    43    18    13   ar
    44    11     1   am
    45    34    29   ar
    46    10     5    1
    47    41    36   ar
