@<TRIPOS>MOLECULE
*****
 32 37 0 0 0
SMALL
GASTEIGER

@<TRIPOS>ATOM
      1 N           2.8459   -0.6326   21.0801 N.pl3   1  UNL1       -0.3046
      2 C           3.3749   -0.3772   22.4603 C.3     1  UNL1        0.1081
      3 C           2.5680    0.4275   23.4358 C.3     1  UNL1        0.0938
      4 N           1.2322    0.9768   23.0309 N.3     1  UNL1       -0.2695
      5 C           0.7033    0.7215   21.6508 C.3     1  UNL1        0.0938
      6 C           1.5101   -0.0833   20.6754 C.3     1  UNL1        0.1081
      7 C           7.2170    1.3342   16.1531 C.3     1  UNL1        0.0521
      8 C           6.3259    0.6414   17.1410 C.ar    1  UNL1        0.0593
      9 C           5.5191    1.4461   18.1165 C.ar    1  UNL1        0.0148
     10 C           4.6280    0.7531   19.1044 C.ar    1  UNL1        0.0039
     11 C           4.5438   -0.7444   19.1168 C.ar    1  UNL1        0.0310
     12 C           3.6527   -1.4373   20.1047 C.ar    1  UNL1        0.0493
     13 C           3.5684   -2.9349   20.1172 C.ar    1  UNL1        0.0146
     14 C           4.3753   -3.7396   19.1416 C.ar    1  UNL1        0.0028
     15 C           5.2664   -3.0467   18.1538 C.ar    1  UNL1        0.0192
     16 C           5.3506   -1.5491   18.1414 C.ar    1  UNL1        0.0821
     17 N           6.2417   -0.8562   17.1535 N.ar    1  UNL1       -0.2496
     18 C           0.4254    1.7816   24.0064 C.3     1  UNL1        0.0770
     19 C          -0.4775    2.8729   23.5126 C.3     1  UNL1        0.0468
     20 C          -1.7067    3.2387   24.2904 C.ar    1  UNL1        0.0146
     21 C          -1.6586    3.2899   25.7887 C.ar    1  UNL1       -0.0011
     22 C          -2.8878    3.6558   26.5666 C.ar    1  UNL1        0.0014
     23 C          -4.1653    3.9704   25.8461 C.ar    1  UNL1        0.0206
     24 C          -4.2135    3.9192   24.3477 C.ar    1  UNL1        0.0989
     25 C          -2.9842    3.5534   23.5699 C.ar    1  UNL1        0.1511
     26 O          -3.0324    3.5022   22.0716 O.3     1  UNL1       -0.4678
     27 C          -4.3099    3.8168   21.3510 C.3     1  UNL1        0.2509
     28 C          -5.5391    4.1826   22.1289 C.ar    1  UNL1        0.1057
     29 C          -6.9304    4.5404   21.6973 C.ar    1  UNL1        0.1174
     30 N          -7.7421    4.8127   22.9289 N.ar    1  UNL1       -0.2223
     31 C          -6.8525    4.6233   24.1217 C.ar    1  UNL1        0.1827
     32 N          -5.4909    4.2338   23.6272 N.ar    1  UNL1       -0.2852
@<TRIPOS>BOND
     1     7     8    1
     2     8     9   ar
     3     9    10   ar
     4    10    11   ar
     5    11    12   ar
     6    12     1    1
     7     1     2    1
     8     2     3    1
     9     3     4    1
    10     4    18    1
    11    18    19    1
    12    19    20    1
    13    20    21   ar
    14    21    22   ar
    15    22    23   ar
    16    23    24   ar
    17    24    25   ar
    18    25    26    1
    19    26    27    1
    20    27    28    1
    21    28    29   ar
    22    29    30   ar
    23    30    31   ar
    24    31    32   ar
    25     4     5    1
    26     5     6    1
    27    12    13   ar
    28    13    14   ar
    29    14    15   ar
    30    15    16   ar
    31    16    17   ar
    32    17     8   ar
    33    16    11   ar
    34     6     1    1
    35    25    20   ar
    36    32    28   ar
    37    32    24    1
@<TRIPOS>MOLECULE
*****
 32 37 0 0 0
SMALL
GASTEIGER

@<TRIPOS>ATOM
      1 N           2.8231   -0.6029   19.9513 N.pl3   1  UNL1       -0.3046
      2 C           1.3370   -0.7400   20.1027 C.3     1  UNL1        0.1081
      3 C           0.4708    0.4842   20.1404 C.3     1  UNL1        0.0938
      4 N           1.0908    1.8453   20.0268 N.3     1  UNL1       -0.2695
      5 C           2.5768    1.9824   19.8754 C.3     1  UNL1        0.0938
      6 C           3.4429    0.7583   19.8377 C.3     1  UNL1        0.1081
      7 C           6.2220   -3.8663   24.9560 C.3     1  UNL1        0.0521
      8 C           5.5888   -3.3565   23.6954 C.ar    1  UNL1        0.0593
      9 C           4.7226   -2.1324   23.7332 C.ar    1  UNL1        0.0148
     10 C           4.0894   -1.6226   22.4725 C.ar    1  UNL1        0.0039
     11 C           4.3224   -2.3368   21.1743 C.ar    1  UNL1        0.0310
     12 C           3.6892   -1.8269   19.9136 C.ar    1  UNL1        0.0493
     13 C           3.9222   -2.5411   18.6152 C.ar    1  UNL1        0.0146
     14 C           4.7884   -3.7652   18.5776 C.ar    1  UNL1        0.0028
     15 C           5.4216   -4.2751   19.8382 C.ar    1  UNL1        0.0192
     16 C           5.1885   -3.5608   21.1365 C.ar    1  UNL1        0.0821
     17 N           5.8217   -4.0707   22.3971 N.ar    1  UNL1       -0.2496
     18 C           0.2247    3.0694   20.0645 C.3     1  UNL1        0.0770
     19 C          -1.2393    2.9433   20.3662 C.3     1  UNL1        0.0468
     20 C          -1.7418    3.1869   21.7583 C.ar    1  UNL1        0.0146
     21 C          -0.7994    3.0997   22.9219 C.ar    1  UNL1       -0.0011
     22 C          -1.3019    3.3432   24.3141 C.ar    1  UNL1        0.0014
     23 C          -2.7470    3.6740   24.5426 C.ar    1  UNL1        0.0206
     24 C          -3.6896    3.7612   23.3790 C.ar    1  UNL1        0.0989
     25 C          -3.1870    3.5177   21.9868 C.ar    1  UNL1        0.1511
     26 O          -4.1295    3.6049   20.8232 O.3     1  UNL1       -0.4678
     27 C          -5.5747    3.9356   21.0517 C.3     1  UNL1        0.2509
     28 C          -6.0772    4.1792   22.4439 C.ar    1  UNL1        0.1057
     29 C          -7.4380    4.5215   22.9741 C.ar    1  UNL1        0.1174
     30 N          -7.3364    4.6459   24.4655 N.ar    1  UNL1       -0.2223
     31 C          -5.9129    4.3804   24.8570 C.ar    1  UNL1        0.1827
     32 N          -5.1347    4.0920   23.6075 N.ar    1  UNL1       -0.2852
@<TRIPOS>BOND
     1     7     8    1
     2     8     9   ar
     3     9    10   ar
     4    10    11   ar
     5    11    12   ar
     6    12     1    1
     7     1     2    1
     8     2     3    1
     9     3     4    1
    10     4    18    1
    11    18    19    1
    12    19    20    1
    13    20    21   ar
    14    21    22   ar
    15    22    23   ar
    16    23    24   ar
    17    24    25   ar
    18    25    26    1
    19    26    27    1
    20    27    28    1
    21    28    29   ar
    22    29    30   ar
    23    30    31   ar
    24    31    32   ar
    25     4     5    1
    26     5     6    1
    27    12    13   ar
    28    13    14   ar
    29    14    15   ar
    30    15    16   ar
    31    16    17   ar
    32    17     8   ar
    33    16    11   ar
    34     6     1    1
    35    25    20   ar
    36    32    28   ar
    37    32    24    1
@<TRIPOS>MOLECULE
*****
 32 37 0 0 0
SMALL
GASTEIGER

@<TRIPOS>ATOM
      1 N           2.8475    1.1796   20.5326 N.pl3   1  UNL1       -0.3046
      2 C           1.3631    1.1669   20.3165 C.3     1  UNL1        0.1081
      3 C           0.4426    1.6317   21.4059 C.3     1  UNL1        0.0938
      4 N           1.0065    2.1091   22.7113 N.3     1  UNL1       -0.2695
      5 C           2.4908    2.1218   22.9273 C.3     1  UNL1        0.0938
      6 C           3.4113    1.6570   21.8380 C.3     1  UNL1        0.1081
      7 C           4.7611   -5.1495   18.6537 C.3     1  UNL1        0.0521
      8 C           4.5128   -3.6834   18.8511 C.ar    1  UNL1        0.0593
      9 C           3.5923   -3.2187   19.9404 C.ar    1  UNL1        0.0148
     10 C           3.3441   -1.7525   20.1378 C.ar    1  UNL1        0.0039
     11 C           4.0162   -0.7513   19.2459 C.ar    1  UNL1        0.0310
     12 C           3.7680    0.7148   19.4432 C.ar    1  UNL1        0.0493
     13 C           4.4401    1.7162   18.5513 C.ar    1  UNL1        0.0146
     14 C           5.3607    1.2513   17.4619 C.ar    1  UNL1        0.0028
     15 C           5.6090   -0.2148   17.2645 C.ar    1  UNL1        0.0192
     16 C           4.9367   -1.2161   18.1565 C.ar    1  UNL1        0.0821
     17 N           5.1850   -2.6821   17.9591 N.ar    1  UNL1       -0.2496
     18 C           0.0860    2.5739   23.8007 C.3     1  UNL1        0.0770
     19 C          -0.7635    3.7930   23.5954 C.3     1  UNL1        0.0468
     20 C          -2.2314    3.6471   23.3232 C.ar    1  UNL1        0.0146
     21 C          -3.1883    3.4426   24.4599 C.ar    1  UNL1       -0.0011
     22 C          -4.6561    3.2967   24.1876 C.ar    1  UNL1        0.0014
     23 C          -5.1670    3.3552   22.7785 C.ar    1  UNL1        0.0206
     24 C          -4.2100    3.5597   21.6417 C.ar    1  UNL1        0.0989
     25 C          -2.7422    3.7056   21.9140 C.ar    1  UNL1        0.1511
     26 O          -1.7852    3.9101   20.7772 O.3     1  UNL1       -0.4678
     27 C          -2.2960    3.9686   19.3680 C.3     1  UNL1        0.2509
     28 C          -3.7639    3.8227   19.0958 C.ar    1  UNL1        0.1057
     29 C          -4.5546    3.8379   17.8212 C.ar    1  UNL1        0.1174
     30 N          -6.0003    3.6428   18.1703 N.ar    1  UNL1       -0.2223
     31 C          -6.1031    3.5071   19.6606 C.ar    1  UNL1        0.1827
     32 N          -4.7208    3.6182   20.2326 N.ar    1  UNL1       -0.2852
@<TRIPOS>BOND
     1     7     8    1
     2     8     9   ar
     3     9    10   ar
     4    10    11   ar
     5    11    12   ar
     6    12     1    1
     7     1     2    1
     8     2     3    1
     9     3     4    1
    10     4    18    1
    11    18    19    1
    12    19    20    1
    13    20    21   ar
    14    21    22   ar
    15    22    23   ar
    16    23    24   ar
    17    24    25   ar
    18    25    26    1
    19    26    27    1
    20    27    28    1
    21    28    29   ar
    22    29    30   ar
    23    30    31   ar
    24    31    32   ar
    25     4     5    1
    26     5     6    1
    27    12    13   ar
    28    13    14   ar
    29    14    15   ar
    30    15    16   ar
    31    16    17   ar
    32    17     8   ar
    33    16    11   ar
    34     6     1    1
    35    25    20   ar
    36    32    28   ar
    37    32    24    1
@<TRIPOS>MOLECULE
*****
 32 37 0 0 0
SMALL
GASTEIGER

@<TRIPOS>ATOM
      1 N           8.3062   -5.5319   28.0040 N.pl3   1  UNL1       -0.3046
      2 C           7.1088   -5.9078   28.8255 C.3     1  UNL1        0.1081
      3 C           6.9232   -5.3203   30.1932 C.3     1  UNL1        0.0938
      4 N           7.9350   -4.3569   30.7391 N.3     1  UNL1       -0.2695
      5 C           9.1323   -3.9809   29.9176 C.3     1  UNL1        0.0938
      6 C           9.3179   -4.5684   28.5500 C.3     1  UNL1        0.1081
      7 C           5.9260   -3.5149   21.8789 C.3     1  UNL1        0.0521
      8 C           6.5674   -4.1660   23.0683 C.ar    1  UNL1        0.0593
      9 C           6.3818   -3.5785   24.4359 C.ar    1  UNL1        0.0148
     10 C           7.0233   -4.2297   25.6253 C.ar    1  UNL1        0.0039
     11 C           7.8503   -5.4682   25.4470 C.ar    1  UNL1        0.0310
     12 C           8.4919   -6.1194   26.6364 C.ar    1  UNL1        0.0493
     13 C           9.3190   -7.3580   26.4581 C.ar    1  UNL1        0.0146
     14 C           9.5046   -7.9454   25.0904 C.ar    1  UNL1        0.0028
     15 C           8.8631   -7.2943   23.9010 C.ar    1  UNL1        0.0192
     16 C           8.0360   -6.0557   24.0794 C.ar    1  UNL1        0.0821
     17 N           7.3945   -5.4046   22.8900 N.ar    1  UNL1       -0.2496
     18 C           7.7493   -3.7693   32.1068 C.3     1  UNL1        0.0770
     19 C           7.6158   -2.2846   32.2735 C.3     1  UNL1        0.0468
     20 C           6.2559   -1.6618   32.3859 C.ar    1  UNL1        0.0146
     21 C           5.7107   -1.2891   33.7326 C.ar    1  UNL1       -0.0011
     22 C           4.3507   -0.6663   33.8450 C.ar    1  UNL1        0.0014
     23 C           3.5360   -0.4163   32.6107 C.ar    1  UNL1        0.0206
     24 C           4.0812   -0.7890   31.2639 C.ar    1  UNL1        0.0989
     25 C           5.4411   -1.4118   31.1515 C.ar    1  UNL1        0.1511
     26 O           5.9863   -1.7845   29.8048 O.3     1  UNL1       -0.4678
     27 C           5.1716   -1.5345   28.5703 C.3     1  UNL1        0.2509
     28 C           3.8116   -0.9117   28.6827 C.ar    1  UNL1        0.1057
     29 C           2.7860   -0.5476   27.6505 C.ar    1  UNL1        0.1174
     30 N           1.6070    0.0501   28.3593 N.ar    1  UNL1       -0.2223
     31 C           1.9038    0.0555   29.8296 C.ar    1  UNL1        0.1827
     32 N           3.2664   -0.5390   30.0295 N.ar    1  UNL1       -0.2852
@<TRIPOS>BOND
     1     7     8    1
     2     8     9   ar
     3     9    10   ar
     4    10    11   ar
     5    11    12   ar
     6    12     1    1
     7     1     2    1
     8     2     3    1
     9     3     4    1
    10     4    18    1
    11    18    19    1
    12    19    20    1
    13    20    21   ar
    14    21    22   ar
    15    22    23   ar
    16    23    24   ar
    17    24    25   ar
    18    25    26    1
    19    26    27    1
    20    27    28    1
    21    28    29   ar
    22    29    30   ar
    23    30    31   ar
    24    31    32   ar
    25     4     5    1
    26     5     6    1
    27    12    13   ar
    28    13    14   ar
    29    14    15   ar
    30    15    16   ar
    31    16    17   ar
    32    17     8   ar
    33    16    11   ar
    34     6     1    1
    35    25    20   ar
    36    32    28   ar
    37    32    24    1
@<TRIPOS>MOLECULE
*****
 32 37 0 0 0
SMALL
GASTEIGER

@<TRIPOS>ATOM
      1 N           2.7694   -0.6907   19.9158 N.pl3   1  UNL1       -0.3046
      2 C           3.3487    0.6776   19.7102 C.3     1  UNL1        0.1081
      3 C           2.4574    1.8834   19.7514 C.3     1  UNL1        0.0938
      4 N           0.9868    1.7208   19.9982 N.3     1  UNL1       -0.2695
      5 C           0.4075    0.3526   20.2038 C.3     1  UNL1        0.0938
      6 C           1.2988   -0.8532   20.1626 C.3     1  UNL1        0.1081
      7 C           6.2403   -3.8937   24.9102 C.3     1  UNL1        0.0521
      8 C           5.5954   -3.3944   23.6513 C.ar    1  UNL1        0.0593
      9 C           4.7041   -2.1886   23.6925 C.ar    1  UNL1        0.0148
     10 C           4.0592   -1.6893   22.4335 C.ar    1  UNL1        0.0039
     11 C           4.3056   -2.3957   21.1335 C.ar    1  UNL1        0.0310
     12 C           3.6607   -1.8965   19.8746 C.ar    1  UNL1        0.0493
     13 C           3.9070   -2.6029   18.5745 C.ar    1  UNL1        0.0146
     14 C           4.7984   -3.8088   18.5334 C.ar    1  UNL1        0.0028
     15 C           5.4433   -4.3081   19.7923 C.ar    1  UNL1        0.0192
     16 C           5.1968   -3.6015   21.0923 C.ar    1  UNL1        0.0821
     17 N           5.8417   -4.1008   22.3512 N.ar    1  UNL1       -0.2496
     18 C           0.0955    2.9266   20.0394 C.3     1  UNL1        0.0770
     19 C          -0.9097    3.0789   21.1423 C.3     1  UNL1        0.0468
     20 C          -2.3351    3.4140   20.8169 C.ar    1  UNL1        0.0146
     21 C          -2.7827    3.4785   19.3868 C.ar    1  UNL1       -0.0011
     22 C          -4.2081    3.8136   19.0614 C.ar    1  UNL1        0.0014
     23 C          -5.1860    4.0842   20.1662 C.ar    1  UNL1        0.0206
     24 C          -4.7384    4.0197   21.5965 C.ar    1  UNL1        0.0989
     25 C          -3.3130    3.6846   21.9219 C.ar    1  UNL1        0.1511
     26 O          -2.8654    3.6201   23.3520 O.3     1  UNL1       -0.4678
     27 C          -3.8432    3.8907   24.4569 C.3     1  UNL1        0.2509
     28 C          -5.2686    4.2258   24.1315 C.ar    1  UNL1        0.1057
     29 C          -6.4498    4.5385   25.0015 C.ar    1  UNL1        0.1174
     30 N          -7.6275    4.7962   24.1089 N.ar    1  UNL1       -0.2223
     31 C          -7.1741    4.6428   22.6873 C.ar    1  UNL1        0.1827
     32 N          -5.7162    4.2903   22.7013 N.ar    1  UNL1       -0.2852
@<TRIPOS>BOND
     1     7     8    1
     2     8     9   ar
     3     9    10   ar
     4    10    11   ar
     5    11    12   ar
     6    12     1    1
     7     1     2    1
     8     2     3    1
     9     3     4    1
    10     4    18    1
    11    18    19    1
    12    19    20    1
    13    20    21   ar
    14    21    22   ar
    15    22    23   ar
    16    23    24   ar
    17    24    25   ar
    18    25    26    1
    19    26    27    1
    20    27    28    1
    21    28    29   ar
    22    29    30   ar
    23    30    31   ar
    24    31    32   ar
    25     4     5    1
    26     5     6    1
    27    12    13   ar
    28    13    14   ar
    29    14    15   ar
    30    15    16   ar
    31    16    17   ar
    32    17     8   ar
    33    16    11   ar
    34     6     1    1
    35    25    20   ar
    36    32    28   ar
    37    32    24    1
@<TRIPOS>MOLECULE
*****
 32 37 0 0 0
SMALL
GASTEIGER

@<TRIPOS>ATOM
      1 N           2.5282   -0.4492   20.5623 N.pl3   1  UNL1       -0.3046
      2 C           1.1513   -0.1946   20.0245 C.3     1  UNL1        0.1081
      3 C           0.1839    0.6439   20.8063 C.3     1  UNL1        0.0938
      4 N           0.5936    1.2277   22.1260 N.3     1  UNL1       -0.2695
      5 C           1.9704    0.9730   22.6637 C.3     1  UNL1        0.0938
      6 C           2.9378    0.1346   21.8819 C.3     1  UNL1        0.1081
      7 C           7.3401    1.3214   15.9840 C.3     1  UNL1        0.0521
      8 C           6.3790    0.6691   16.9331 C.ar    1  UNL1        0.0593
      9 C           5.4116    1.5076   17.7149 C.ar    1  UNL1        0.0148
     10 C           4.4505    0.8553   18.6640 C.ar    1  UNL1        0.0039
     11 C           4.4567   -0.6353   18.8313 C.ar    1  UNL1        0.0310
     12 C           3.4956   -1.2876   19.7804 C.ar    1  UNL1        0.0493
     13 C           3.5018   -2.7782   19.9477 C.ar    1  UNL1        0.0146
     14 C           4.4692   -3.6166   19.1658 C.ar    1  UNL1        0.0028
     15 C           5.4304   -2.9644   18.2167 C.ar    1  UNL1        0.0192
     16 C           5.4241   -1.4737   18.0495 C.ar    1  UNL1        0.0821
     17 N           6.3852   -0.8215   17.1004 N.ar    1  UNL1       -0.2496
     18 C          -0.3738    2.0661   22.9078 C.3     1  UNL1        0.0770
     19 C          -0.7726    3.4204   22.4010 C.3     1  UNL1        0.0468
     20 C          -2.0963    3.6066   21.7205 C.ar    1  UNL1        0.0146
     21 C          -2.2015    3.4586   20.2316 C.ar    1  UNL1       -0.0011
     22 C          -3.5252    3.6448   19.5511 C.ar    1  UNL1        0.0014
     23 C          -4.7437    3.9791   20.3595 C.ar    1  UNL1        0.0206
     24 C          -4.6385    4.1272   21.8485 C.ar    1  UNL1        0.0989
     25 C          -3.3148    3.9409   22.5290 C.ar    1  UNL1        0.1511
     26 O          -3.2095    4.0890   24.0179 O.3     1  UNL1       -0.4678
     27 C          -4.4280    4.4233   24.8264 C.3     1  UNL1        0.2509
     28 C          -5.7517    4.6095   24.1459 C.ar    1  UNL1        0.1057
     29 C          -7.1151    4.9411   24.6763 C.ar    1  UNL1        0.1174
     30 N          -8.0629    4.9979   23.5151 N.ar    1  UNL1       -0.2223
     31 C          -7.2853    4.7015   22.2670 C.ar    1  UNL1        0.1827
     32 N          -5.8569    4.4614   22.6569 N.ar    1  UNL1       -0.2852
@<TRIPOS>BOND
     1     7     8    1
     2     8     9   ar
     3     9    10   ar
     4    10    11   ar
     5    11    12   ar
     6    12     1    1
     7     1     2    1
     8     2     3    1
     9     3     4    1
    10     4    18    1
    11    18    19    1
    12    19    20    1
    13    20    21   ar
    14    21    22   ar
    15    22    23   ar
    16    23    24   ar
    17    24    25   ar
    18    25    26    1
    19    26    27    1
    20    27    28    1
    21    28    29   ar
    22    29    30   ar
    23    30    31   ar
    24    31    32   ar
    25     4     5    1
    26     5     6    1
    27    12    13   ar
    28    13    14   ar
    29    14    15   ar
    30    15    16   ar
    31    16    17   ar
    32    17     8   ar
    33    16    11   ar
    34     6     1    1
    35    25    20   ar
    36    32    28   ar
    37    32    24    1
@<TRIPOS>MOLECULE
*****
 32 37 0 0 0
SMALL
GASTEIGER

@<TRIPOS>ATOM
      1 N           2.2707    0.2795   21.1321 N.pl3   1  UNL1       -0.3046
      2 C           0.7871    0.1363   20.9629 C.3     1  UNL1        0.1081
      3 C           0.0041    1.2116   20.2696 C.3     1  UNL1        0.0938
      4 N           0.7047    2.4300   19.7456 N.3     1  UNL1       -0.2695
      5 C           2.1881    2.5732   19.9148 C.3     1  UNL1        0.0938
      6 C           2.9712    1.4980   20.6081 C.3     1  UNL1        0.1081
      7 C           4.9170   -5.6027   18.7559 C.3     1  UNL1        0.0521
      8 C           4.4512   -4.4010   19.5233 C.ar    1  UNL1        0.0593
      9 C           3.6682   -3.3257   18.8300 C.ar    1  UNL1        0.0148
     10 C           3.2023   -2.1240   19.5974 C.ar    1  UNL1        0.0039
     11 C           3.5195   -1.9975   21.0580 C.ar    1  UNL1        0.0310
     12 C           3.0537   -0.7958   21.8254 C.ar    1  UNL1        0.0493
     13 C           3.3709   -0.6693   23.2860 C.ar    1  UNL1        0.0146
     14 C           4.1540   -1.7447   23.9792 C.ar    1  UNL1        0.0028
     15 C           4.6198   -2.9464   23.2119 C.ar    1  UNL1        0.0192
     16 C           4.3026   -3.0728   21.7512 C.ar    1  UNL1        0.0821
     17 N           4.7684   -4.2745   20.9839 N.ar    1  UNL1       -0.2496
     18 C          -0.0784    3.5054   19.0523 C.3     1  UNL1        0.0770
     19 C          -0.8426    4.5142   19.8574 C.3     1  UNL1        0.0468
     20 C          -2.1500    4.1357   20.4879 C.ar    1  UNL1        0.0146
     21 C          -3.3007    3.7050   19.6275 C.ar    1  UNL1       -0.0011
     22 C          -4.6081    3.3266   20.2580 C.ar    1  UNL1        0.0014
     23 C          -4.7647    3.3788   21.7489 C.ar    1  UNL1        0.0206
     24 C          -3.6140    3.8096   22.6093 C.ar    1  UNL1        0.0989
     25 C          -2.3066    4.1880   21.9788 C.ar    1  UNL1        0.1511
     26 O          -1.1559    4.6187   22.8391 O.3     1  UNL1       -0.4678
     27 C          -1.3125    4.6710   24.3301 C.3     1  UNL1        0.2509
     28 C          -2.6199    4.2926   24.9606 C.ar    1  UNL1        0.1057
     29 C          -3.0681    4.2466   26.3913 C.ar    1  UNL1        0.1174
     30 N          -4.4959    3.7874   26.4151 N.ar    1  UNL1       -0.2223
     31 C          -4.9301    3.5496   24.9991 C.ar    1  UNL1        0.1827
     32 N          -3.7706    3.8618   24.1002 N.ar    1  UNL1       -0.2852
@<TRIPOS>BOND
     1     7     8    1
     2     8     9   ar
     3     9    10   ar
     4    10    11   ar
     5    11    12   ar
     6    12     1    1
     7     1     2    1
     8     2     3    1
     9     3     4    1
    10     4    18    1
    11    18    19    1
    12    19    20    1
    13    20    21   ar
    14    21    22   ar
    15    22    23   ar
    16    23    24   ar
    17    24    25   ar
    18    25    26    1
    19    26    27    1
    20    27    28    1
    21    28    29   ar
    22    29    30   ar
    23    30    31   ar
    24    31    32   ar
    25     4     5    1
    26     5     6    1
    27    12    13   ar
    28    13    14   ar
    29    14    15   ar
    30    15    16   ar
    31    16    17   ar
    32    17     8   ar
    33    16    11   ar
    34     6     1    1
    35    25    20   ar
    36    32    28   ar
    37    32    24    1
@<TRIPOS>MOLECULE
*****
 32 37 0 0 0
SMALL
GASTEIGER

@<TRIPOS>ATOM
      1 N           3.0484    1.7690   20.0939 N.pl3   1  UNL1       -0.3046
      2 C           1.6231    2.0310   19.7066 C.3     1  UNL1        0.1081
      3 C           0.6727    2.6270   20.7024 C.3     1  UNL1        0.0938
      4 N           1.1477    2.9611   22.0855 N.3     1  UNL1       -0.2695
      5 C           2.5729    2.6991   22.4728 C.3     1  UNL1        0.0938
      6 C           3.5233    2.1031   21.4770 C.3     1  UNL1        0.1081
      7 C           4.5839   -4.7854   18.7041 C.3     1  UNL1        0.0521
      8 C           4.4376   -3.2958   18.8027 C.ar    1  UNL1        0.0593
      9 C           3.4872   -2.6998   19.7984 C.ar    1  UNL1        0.0148
     10 C           3.3410   -1.2101   19.8969 C.ar    1  UNL1        0.0039
     11 C           4.1450   -0.3166   18.9997 C.ar    1  UNL1        0.0310
     12 C           3.9988    1.1730   19.0982 C.ar    1  UNL1        0.0493
     13 C           4.8029    2.0666   18.2010 C.ar    1  UNL1        0.0146
     14 C           5.7533    1.4705   17.2053 C.ar    1  UNL1        0.0028
     15 C           5.8996   -0.0191   17.1067 C.ar    1  UNL1        0.0192
     16 C           5.0954   -0.9126   18.0040 C.ar    1  UNL1        0.0821
     17 N           5.2417   -2.4022   17.9055 N.ar    1  UNL1       -0.2496
     18 C           0.1973    3.5571   23.0813 C.3     1  UNL1        0.0770
     19 C          -0.5842    2.6647   23.9994 C.3     1  UNL1        0.0468
     20 C          -1.8465    3.1651   24.6367 C.ar    1  UNL1        0.0146
     21 C          -1.9075    3.3686   26.1214 C.ar    1  UNL1       -0.0011
     22 C          -3.1698    3.8689   26.7587 C.ar    1  UNL1        0.0014
     23 C          -4.3712    4.1658   25.9110 C.ar    1  UNL1        0.0206
     24 C          -4.3103    3.9623   24.4261 C.ar    1  UNL1        0.0989
     25 C          -3.0479    3.4619   23.7889 C.ar    1  UNL1        0.1511
     26 O          -2.9870    3.2584   22.3041 O.3     1  UNL1       -0.4678
     27 C          -4.1884    3.5552   21.4564 C.3     1  UNL1        0.2509
     28 C          -5.4507    4.0556   22.0936 C.ar    1  UNL1        0.1057
     29 C          -6.7847    4.4304   21.5192 C.ar    1  UNL1        0.1174
     30 N          -7.6701    4.8656   22.6491 N.ar    1  UNL1       -0.2223
     31 C          -6.8833    4.7598   23.9218 C.ar    1  UNL1        0.1827
     32 N          -5.5117    4.2591   23.5785 N.ar    1  UNL1       -0.2852
@<TRIPOS>BOND
     1     7     8    1
     2     8     9   ar
     3     9    10   ar
     4    10    11   ar
     5    11    12   ar
     6    12     1    1
     7     1     2    1
     8     2     3    1
     9     3     4    1
    10     4    18    1
    11    18    19    1
    12    19    20    1
    13    20    21   ar
    14    21    22   ar
    15    22    23   ar
    16    23    24   ar
    17    24    25   ar
    18    25    26    1
    19    26    27    1
    20    27    28    1
    21    28    29   ar
    22    29    30   ar
    23    30    31   ar
    24    31    32   ar
    25     4     5    1
    26     5     6    1
    27    12    13   ar
    28    13    14   ar
    29    14    15   ar
    30    15    16   ar
    31    16    17   ar
    32    17     8   ar
    33    16    11   ar
    34     6     1    1
    35    25    20   ar
    36    32    28   ar
    37    32    24    1
@<TRIPOS>MOLECULE
*****
 32 37 0 0 0
SMALL
GASTEIGER

@<TRIPOS>ATOM
      1 N           2.7198   -0.5478   20.0581 N.pl3   1  UNL1       -0.3046
      2 C           3.1750    0.8814   20.0468 C.3     1  UNL1        0.1081
      3 C           2.1770    1.9879   20.2197 C.3     1  UNL1        0.0938
      4 N           0.7238    1.6649   20.4038 N.3     1  UNL1       -0.2695
      5 C           0.2686    0.2358   20.4151 C.3     1  UNL1        0.0938
      6 C           1.2666   -0.8706   20.2423 C.3     1  UNL1        0.1081
      7 C           6.3679   -4.0814   24.6900 C.3     1  UNL1        0.0521
      8 C           5.7054   -3.4746   23.4889 C.ar    1  UNL1        0.0593
      9 C           4.7074   -2.3682   23.6617 C.ar    1  UNL1        0.0148
     10 C           4.0449   -1.7614   22.4604 C.ar    1  UNL1        0.0039
     11 C           4.3803   -2.2610   21.0865 C.ar    1  UNL1        0.0310
     12 C           3.7178   -1.6542   19.8853 C.ar    1  UNL1        0.0493
     13 C           4.0532   -2.1538   18.5113 C.ar    1  UNL1        0.0146
     14 C           5.0513   -3.2602   18.3385 C.ar    1  UNL1        0.0028
     15 C           5.7138   -3.8670   19.5397 C.ar    1  UNL1        0.0192
     16 C           5.3783   -3.3674   20.9137 C.ar    1  UNL1        0.0821
     17 N           6.0408   -3.9742   22.1149 N.ar    1  UNL1       -0.2496
     18 C          -0.2743    2.7714   20.5767 C.3     1  UNL1        0.0770
     19 C          -0.1227    3.7488   21.7044 C.3     1  UNL1        0.0468
     20 C          -0.6304    3.4004   23.0721 C.ar    1  UNL1        0.0146
     21 C          -2.0195    3.7935   23.4791 C.ar    1  UNL1       -0.0011
     22 C          -2.5272    3.4451   24.8469 C.ar    1  UNL1        0.0014
     23 C          -1.6458    2.7036   25.8077 C.ar    1  UNL1        0.0206
     24 C          -0.2566    2.3105   25.4007 C.ar    1  UNL1        0.0989
     25 C           0.2511    2.6588   24.0329 C.ar    1  UNL1        0.1511
     26 O           1.6402    2.2658   23.6260 O.3     1  UNL1       -0.4678
     27 C           2.5218    1.5242   24.5868 C.3     1  UNL1        0.2509
     28 C           2.0141    1.1758   25.9546 C.ar    1  UNL1        0.1057
     29 C           2.6486    0.4559   27.1074 C.ar    1  UNL1        0.1174
     30 N           1.6516    0.4041   28.2269 N.ar    1  UNL1       -0.2223
     31 C           0.4008    1.0920   27.7659 C.ar    1  UNL1        0.1827
     32 N           0.6249    1.5690   26.3615 N.ar    1  UNL1       -0.2852
@<TRIPOS>BOND
     1     7     8    1
     2     8     9   ar
     3     9    10   ar
     4    10    11   ar
     5    11    12   ar
     6    12     1    1
     7     1     2    1
     8     2     3    1
     9     3     4    1
    10     4    18    1
    11    18    19    1
    12    19    20    1
    13    20    21   ar
    14    21    22   ar
    15    22    23   ar
    16    23    24   ar
    17    24    25   ar
    18    25    26    1
    19    26    27    1
    20    27    28    1
    21    28    29   ar
    22    29    30   ar
    23    30    31   ar
    24    31    32   ar
    25     4     5    1
    26     5     6    1
    27    12    13   ar
    28    13    14   ar
    29    14    15   ar
    30    15    16   ar
    31    16    17   ar
    32    17     8   ar
    33    16    11   ar
    34     6     1    1
    35    25    20   ar
    36    32    28   ar
    37    32    24    1
