@<TRIPOS>MOLECULE
*****
 43 47 0 0 0
SMALL
GASTEIGER

@<TRIPOS>ATOM
      1 C           2.5692    1.2447   24.1442 C.ar    1  UNL1        0.0551
      2 C           3.8739    0.6588   24.5961 C.ar    1  UNL1        0.0160
      3 C           4.0564    0.2491   26.0275 C.ar    1  UNL1        0.0788
      4 N           2.9341    0.4253   27.0069 N.ar    1  UNL1       -0.2434
      5 C           1.6293    1.0112   26.5550 C.ar    1  UNL1        0.1087
      6 C           0.5070    1.1875   27.5345 C.ar    1  UNL1        0.1576
      7 F           0.6895    0.7778   28.9659 F       1  UNL1       -0.2026
      8 C          -0.7977    1.7734   27.0826 C.ar    1  UNL1        0.0312
      9 C          -0.9802    2.1831   25.6512 C.ar    1  UNL1        0.0024
     10 C           0.1421    2.0069   24.6718 C.ar    1  UNL1        0.0018
     11 C           1.4468    1.4210   25.1237 C.ar    1  UNL1        0.0241
     12 C           5.3612   -0.3369   26.4793 C.ar    1  UNL1        0.0174
     13 C           6.4448    0.5590   27.0018 C.ar    1  UNL1        0.0015
     14 C           7.7496   -0.0269   27.4537 C.ar    1  UNL1        0.0000
     15 C           7.9707   -1.5089   27.3830 C.ar    1  UNL1        0.0000
     16 C           6.8871   -2.4048   26.8606 C.ar    1  UNL1        0.0000
     17 C           5.5824   -1.8188   26.4087 C.ar    1  UNL1        0.0015
     18 N           1.9879    0.6360   21.6862 N.am    1  UNL1       -0.2206
     19 C           2.3867    1.6544   22.7128 C.2     1  UNL1        0.2617
     20 O           2.6029    3.0824   22.3080 O.2     1  UNL1       -0.2686
     21 H           1.8460   -0.3013   21.9518 H       1  UNL1        0.1738
     22 C           0.4944    1.6142   19.7987 C.2     1  UNL1        0.4250
     23 O          -0.6342    1.7729   20.7740 O.2     1  UNL1       -0.2242
     24 N           1.8054    1.0457   20.2548 N.am    1  UNL1       -0.1519
     25 C           2.9340    0.8869   19.2795 C.ar    1  UNL1        0.0760
     26 C           4.0677    1.8690   19.2781 C.ar    1  UNL1        0.0167
     27 C           5.1963    1.7103   18.3028 C.ar    1  UNL1        0.0013
     28 C           5.1911    0.5694   17.3290 C.ar    1  UNL1        0.0001
     29 C           4.0573   -0.4127   17.3304 C.ar    1  UNL1        0.0013
     30 C           2.9287   -0.2539   18.3057 C.ar    1  UNL1        0.0167
     31 C          -0.0052    3.4507   18.0302 C.3     1  UNL1        0.2574
     32 O           0.3119    2.0239   18.3673 O.3     1  UNL1       -0.4292
     33 C           4.9963    0.4825   23.6166 C.3     1  UNL1        0.1009
     34 N           4.9509   -0.6350   22.6171 N.3     1  UNL1       -0.2665
     35 C           4.1265   -1.8570   22.8952 C.3     1  UNL1        0.0899
     36 C           4.0812   -2.9745   21.8957 C.3     1  UNL1        0.0896
     37 N           4.8602   -2.8701   20.6181 N.3     1  UNL1       -0.2728
     38 C           5.6845   -1.6482   20.3400 C.3     1  UNL1        0.0896
     39 C           5.7299   -0.5306   21.3395 C.3     1  UNL1        0.0899
     40 C           4.8148   -3.9877   19.6186 C.3     1  UNL1        0.0456
     41 C           3.8804   -4.7486   20.5118 C.3     1  UNL1        0.0160
     42 C           5.7492   -3.2268   18.7254 C.3     1  UNL1        0.0160
     43 C           4.7694   -5.1052   18.6191 C.3     1  UNL1        0.0160
@<TRIPOS>BOND
     1    31    32    1
     2    32    22    1
     3    22    23    2
     4    22    24   am
     5    24    18    1
     6    18    19   am
     7    19    20    2
     8    19     1    1
     9     1     2   ar
    10     2    33    1
    11    33    34    1
    12    34    35    1
    13    35    36    1
    14    36    37    1
    15    37    40    1
    16    40    41    1
    17    40    42    1
    18    40    43    1
    19    37    38    1
    20    38    39    1
    21     2     3   ar
    22     3    12    1
    23    12    13   ar
    24    13    14   ar
    25    14    15   ar
    26    15    16   ar
    27    16    17   ar
    28     3     4   ar
    29     4     5   ar
    30     5     6   ar
    31     6     7    1
    32     6     8   ar
    33     8     9   ar
    34     9    10   ar
    35    10    11   ar
    36    24    25    1
    37    25    26   ar
    38    26    27   ar
    39    27    28   ar
    40    28    29   ar
    41    29    30   ar
    42    11     1   ar
    43    30    25   ar
    44    39    34    1
    45    17    12   ar
    46    11     5   ar
    47    18    21    1
@<TRIPOS>MOLECULE
*****
 43 47 0 0 0
SMALL
GASTEIGER

@<TRIPOS>ATOM
      1 C           6.2644   -2.2701   28.9504 C.ar    1  UNL1        0.0551
      2 C           6.0234   -1.5082   30.2198 C.ar    1  UNL1        0.0160
      3 C           6.2349   -2.1753   31.5466 C.ar    1  UNL1        0.0788
      4 N           6.6874   -3.6042   31.6040 N.ar    1  UNL1       -0.2434
      5 C           6.9285   -4.3662   30.3345 C.ar    1  UNL1        0.1087
      6 C           7.3810   -5.7951   30.3919 C.ar    1  UNL1        0.1576
      7 F           7.5925   -6.4621   31.7187 F       1  UNL1       -0.2026
      8 C           7.6221   -6.5570   29.1225 C.ar    1  UNL1        0.0312
      9 C           7.4106   -5.8899   27.7957 C.ar    1  UNL1        0.0024
     10 C           6.9580   -4.4610   27.7384 C.ar    1  UNL1        0.0018
     11 C           6.7170   -3.6991   29.0078 C.ar    1  UNL1        0.0241
     12 C           5.9938   -1.4133   32.8160 C.ar    1  UNL1        0.0174
     13 C           4.6506   -1.4702   33.4813 C.ar    1  UNL1        0.0015
     14 C           4.4096   -0.7082   34.7507 C.ar    1  UNL1        0.0000
     15 C           5.5118    0.1105   35.3548 C.ar    1  UNL1        0.0000
     16 C           6.8549    0.1673   34.6895 C.ar    1  UNL1        0.0000
     17 C           7.0959   -0.5946   33.4201 C.ar    1  UNL1        0.0015
     18 N           4.7414   -1.7506   26.9106 N.am    1  UNL1       -0.2206
     19 C           6.0529   -1.6031   27.6237 C.2     1  UNL1        0.2617
     20 O           7.1528   -0.7885   27.0099 O.2     1  UNL1       -0.2686
     21 H           4.0195   -2.2852   27.3135 H       1  UNL1        0.1738
     22 C           4.9376   -1.7813   24.3201 C.2     1  UNL1        0.4250
     23 O           5.5568   -3.1461   24.3832 O.2     1  UNL1       -0.2242
     24 N           4.5299   -1.0836   25.5839 N.am    1  UNL1       -0.1519
     25 C           3.9107    0.2812   25.5208 C.ar    1  UNL1        0.0760
     26 C           4.7657    1.5014   25.6942 C.ar    1  UNL1        0.0167
     27 C           4.1465    2.8662   25.6311 C.ar    1  UNL1        0.0013
     28 C           2.6724    3.0108   25.3947 C.ar    1  UNL1        0.0001
     29 C           1.8174    1.7905   25.2213 C.ar    1  UNL1        0.0013
     30 C           2.4365    0.4258   25.2843 C.ar    1  UNL1        0.0167
     31 C           3.5109   -1.4387   22.1761 C.3     1  UNL1        0.2574
     32 O           4.7261   -1.1143   22.9934 O.3     1  UNL1       -0.4292
     33 C           5.5708   -0.0792   30.1625 C.3     1  UNL1        0.1009
     34 N           4.1679    0.2469   29.7436 N.3     1  UNL1       -0.2665
     35 C           3.8397    1.6146   29.2222 C.3     1  UNL1        0.0899
     36 C           2.4368    1.9408   28.8033 C.3     1  UNL1        0.0896
     37 N           1.3621    0.8993   28.9057 N.3     1  UNL1       -0.2728
     38 C           1.6904   -0.4684   29.4270 C.3     1  UNL1        0.0896
     39 C           3.0933   -0.7945   29.8460 C.3     1  UNL1        0.0899
     40 C          -0.0407    1.2254   28.4867 C.3     1  UNL1        0.0456
     41 C          -0.4212   -0.2177   28.6371 C.3     1  UNL1        0.0160
     42 C           0.3397    2.6686   28.3364 C.3     1  UNL1        0.0160
     43 C          -1.4436    1.5516   28.0678 C.3     1  UNL1        0.0160
@<TRIPOS>BOND
     1    31    32    1
     2    32    22    1
     3    22    23    2
     4    22    24   am
     5    24    18    1
     6    18    19   am
     7    19    20    2
     8    19     1    1
     9     1     2   ar
    10     2    33    1
    11    33    34    1
    12    34    35    1
    13    35    36    1
    14    36    37    1
    15    37    40    1
    16    40    41    1
    17    40    42    1
    18    40    43    1
    19    37    38    1
    20    38    39    1
    21     2     3   ar
    22     3    12    1
    23    12    13   ar
    24    13    14   ar
    25    14    15   ar
    26    15    16   ar
    27    16    17   ar
    28     3     4   ar
    29     4     5   ar
    30     5     6   ar
    31     6     7    1
    32     6     8   ar
    33     8     9   ar
    34     9    10   ar
    35    10    11   ar
    36    24    25    1
    37    25    26   ar
    38    26    27   ar
    39    27    28   ar
    40    28    29   ar
    41    29    30   ar
    42    11     1   ar
    43    30    25   ar
    44    39    34    1
    45    17    12   ar
    46    11     5   ar
    47    18    21    1
@<TRIPOS>MOLECULE
*****
 43 47 0 0 0
SMALL
GASTEIGER

@<TRIPOS>ATOM
      1 C           3.4012    0.0558   22.7281 C.ar    1  UNL1        0.0551
      2 C           2.8452    1.1473   21.8623 C.ar    1  UNL1        0.0160
      3 C           2.6111    0.9000   20.4015 C.ar    1  UNL1        0.0788
      4 N           2.9330   -0.4388   19.8064 N.ar    1  UNL1       -0.2434
      5 C           3.4891   -1.5303   20.6722 C.ar    1  UNL1        0.1087
      6 C           3.8110   -2.8690   20.0771 C.ar    1  UNL1        0.1576
      7 F           3.5769   -3.1163   18.6163 F       1  UNL1       -0.2026
      8 C           4.3670   -3.9604   20.9429 C.ar    1  UNL1        0.0312
      9 C           4.6011   -3.7131   22.4037 C.ar    1  UNL1        0.0024
     10 C           4.2792   -2.3744   22.9988 C.ar    1  UNL1        0.0018
     11 C           3.7232   -1.2830   22.1330 C.ar    1  UNL1        0.0241
     12 C           2.0551    1.9915   19.5357 C.ar    1  UNL1        0.0174
     13 C           2.9176    3.1571   19.1519 C.ar    1  UNL1        0.0015
     14 C           2.3616    4.2486   18.2862 C.ar    1  UNL1        0.0000
     15 C           0.9430    4.1743   17.8042 C.ar    1  UNL1        0.0000
     16 C           0.0806    3.0087   18.1880 C.ar    1  UNL1        0.0000
     17 C           0.6366    1.9172   19.0537 C.ar    1  UNL1        0.0015
     18 N           2.7342   -0.3259   25.2099 N.am    1  UNL1       -0.2206
     19 C           3.6353    0.3031   24.1889 C.2     1  UNL1        0.2617
     20 O           4.7704    1.1794   24.6288 O.2     1  UNL1       -0.2686
     21 H           1.9891   -0.9011   24.9212 H       1  UNL1        0.1738
     22 C           4.0101   -0.8674   27.4074 C.2     1  UNL1        0.4250
     23 O           4.8177   -1.9033   26.6833 O.2     1  UNL1       -0.2242
     24 N           2.9683   -0.0786   26.6707 N.am    1  UNL1       -0.1519
     25 C           2.1606    0.9574   27.3949 C.ar    1  UNL1        0.0760
     26 C           0.8116    0.6050   27.9479 C.ar    1  UNL1        0.0167
     27 C           0.0039    1.6410   28.6721 C.ar    1  UNL1        0.0013
     28 C           0.5453    3.0293   28.8432 C.ar    1  UNL1        0.0001
     29 C           1.8944    3.3817   28.2902 C.ar    1  UNL1        0.0013
     30 C           2.7021    2.3457   27.5661 C.ar    1  UNL1        0.0167
     31 C           5.3604    0.2807   29.3070 C.3     1  UNL1        0.2574
     32 O           4.2442   -0.6201   28.8683 O.3     1  UNL1       -0.4292
     33 C           2.5233    2.4861   22.4574 C.3     1  UNL1        0.1009
     34 N           1.1585    2.7472   23.0221 N.3     1  UNL1       -0.2665
     35 C           0.8129    2.2677   24.4007 C.3     1  UNL1        0.0899
     36 C          -0.5519    2.5288   24.9655 C.3     1  UNL1        0.0896
     37 N          -1.5713    3.2695   24.1516 N.3     1  UNL1       -0.2728
     38 C          -1.2258    3.7490   22.7729 C.3     1  UNL1        0.0896
     39 C           0.1392    3.4878   22.2082 C.3     1  UNL1        0.0899
     40 C          -2.9362    3.5306   24.7163 C.3     1  UNL1        0.0456
     41 C          -3.4920    3.6308   23.3267 C.3     1  UNL1        0.0160
     42 C          -2.3804    3.4303   26.1059 C.3     1  UNL1        0.0160
     43 C          -4.3010    3.7917   25.2810 C.3     1  UNL1        0.0160
@<TRIPOS>BOND
     1    31    32    1
     2    32    22    1
     3    22    23    2
     4    22    24   am
     5    24    18    1
     6    18    19   am
     7    19    20    2
     8    19     1    1
     9     1     2   ar
    10     2    33    1
    11    33    34    1
    12    34    35    1
    13    35    36    1
    14    36    37    1
    15    37    40    1
    16    40    41    1
    17    40    42    1
    18    40    43    1
    19    37    38    1
    20    38    39    1
    21     2     3   ar
    22     3    12    1
    23    12    13   ar
    24    13    14   ar
    25    14    15   ar
    26    15    16   ar
    27    16    17   ar
    28     3     4   ar
    29     4     5   ar
    30     5     6   ar
    31     6     7    1
    32     6     8   ar
    33     8     9   ar
    34     9    10   ar
    35    10    11   ar
    36    24    25    1
    37    25    26   ar
    38    26    27   ar
    39    27    28   ar
    40    28    29   ar
    41    29    30   ar
    42    11     1   ar
    43    30    25   ar
    44    39    34    1
    45    17    12   ar
    46    11     5   ar
    47    18    21    1
@<TRIPOS>MOLECULE
*****
 43 47 0 0 0
SMALL
GASTEIGER

@<TRIPOS>ATOM
      1 C           6.9423   -3.2488   24.9950 C.ar    1  UNL1        0.0551
      2 C           6.9420   -2.6888   23.6034 C.ar    1  UNL1        0.0160
      3 C           7.3020   -3.5667   22.4416 C.ar    1  UNL1        0.0788
      4 N           7.6622   -5.0046   22.6714 N.ar    1  UNL1       -0.2434
      5 C           7.6625   -5.5646   24.0630 C.ar    1  UNL1        0.1087
      6 C           8.0228   -7.0024   24.2928 C.ar    1  UNL1        0.1576
      7 F           8.3827   -7.8803   23.1311 F       1  UNL1       -0.2026
      8 C           8.0230   -7.5623   25.6844 C.ar    1  UNL1        0.0312
      9 C           7.6630   -6.6844   26.8461 C.ar    1  UNL1        0.0024
     10 C           7.3028   -5.2466   26.6164 C.ar    1  UNL1        0.0018
     11 C           7.3025   -4.6866   25.2248 C.ar    1  UNL1        0.0241
     12 C           7.3017   -3.0068   21.0500 C.ar    1  UNL1        0.0174
     13 C           6.1549   -3.2932   20.1266 C.ar    1  UNL1        0.0015
     14 C           6.1547   -2.7333   18.7350 C.ar    1  UNL1        0.0000
     15 C           7.3012   -1.8868   18.2670 C.ar    1  UNL1        0.0000
     16 C           8.4479   -1.6003   19.1905 C.ar    1  UNL1        0.0000
     17 C           8.4482   -2.1603   20.5820 C.ar    1  UNL1        0.0015
     18 N           5.2439   -2.5143   26.8188 N.am    1  UNL1       -0.2206
     19 C           6.5823   -2.3708   26.1567 C.2     1  UNL1        0.2617
     20 O           7.5606   -1.3495   26.6564 O.2     1  UNL1       -0.2686
     21 H           4.6018   -3.1846   26.4908 H       1  UNL1        0.1738
     22 C           5.5085   -1.8757   29.3232 C.2     1  UNL1        0.4250
     23 O           6.4929   -2.9928   29.5041 O.2     1  UNL1       -0.2242
     24 N           4.8839   -1.6364   27.9805 N.am    1  UNL1       -0.1519
     25 C           3.8994   -0.5193   27.7997 C.ar    1  UNL1        0.0760
     26 C           4.3121    0.7366   27.0909 C.ar    1  UNL1        0.0167
     27 C           3.3276    1.8538   26.9100 C.ar    1  UNL1        0.0013
     28 C           1.9305    1.7151   27.4379 C.ar    1  UNL1        0.0001
     29 C           1.5178    0.4592   28.1467 C.ar    1  UNL1        0.0013
     30 C           2.5023   -0.6580   28.3276 C.ar    1  UNL1        0.0167
     31 C           4.8144   -1.6104   31.8128 C.3     1  UNL1        0.2574
     32 O           5.1485   -0.9978   30.4850 O.3     1  UNL1       -0.4292
     33 C           6.5817   -1.2509   23.3736 C.3     1  UNL1        0.1009
     34 N           5.4862   -0.8967   22.4122 N.3     1  UNL1       -0.2665
     35 C           4.1515   -1.5738   22.5134 C.3     1  UNL1        0.0899
     36 C           3.0560   -1.2196   21.5521 C.3     1  UNL1        0.0896
     37 N           3.2950   -0.1881   20.4895 N.3     1  UNL1       -0.2728
     38 C           4.6297    0.4890   20.3883 C.3     1  UNL1        0.0896
     39 C           5.7253    0.1347   21.3497 C.3     1  UNL1        0.0899
     40 C           2.1995    0.1661   19.5281 C.3     1  UNL1        0.0456
     41 C           3.2060    0.8010   18.6151 C.3     1  UNL1        0.0160
     42 C           1.1930   -0.4688   20.4412 C.3     1  UNL1        0.0160
     43 C           1.1039    0.5204   18.5668 C.3     1  UNL1        0.0160
@<TRIPOS>BOND
     1    31    32    1
     2    32    22    1
     3    22    23    2
     4    22    24   am
     5    24    18    1
     6    18    19   am
     7    19    20    2
     8    19     1    1
     9     1     2   ar
    10     2    33    1
    11    33    34    1
    12    34    35    1
    13    35    36    1
    14    36    37    1
    15    37    40    1
    16    40    41    1
    17    40    42    1
    18    40    43    1
    19    37    38    1
    20    38    39    1
    21     2     3   ar
    22     3    12    1
    23    12    13   ar
    24    13    14   ar
    25    14    15   ar
    26    15    16   ar
    27    16    17   ar
    28     3     4   ar
    29     4     5   ar
    30     5     6   ar
    31     6     7    1
    32     6     8   ar
    33     8     9   ar
    34     9    10   ar
    35    10    11   ar
    36    24    25    1
    37    25    26   ar
    38    26    27   ar
    39    27    28   ar
    40    28    29   ar
    41    29    30   ar
    42    11     1   ar
    43    30    25   ar
    44    39    34    1
    45    17    12   ar
    46    11     5   ar
    47    18    21    1
@<TRIPOS>MOLECULE
*****
 43 47 0 0 0
SMALL
GASTEIGER

@<TRIPOS>ATOM
      1 C           6.4401   -2.6959   27.0028 C.ar    1  UNL1        0.0551
      2 C           6.4605   -1.8351   28.2310 C.ar    1  UNL1        0.0160
      3 C           6.8947   -2.4135   29.5451 C.ar    1  UNL1        0.0788
      4 N           7.3085   -3.8527   29.6311 N.ar    1  UNL1       -0.2434
      5 C           7.2881   -4.7136   28.4028 C.ar    1  UNL1        0.1087
      6 C           7.7019   -6.1528   28.4888 C.ar    1  UNL1        0.1576
      7 F           8.1361   -6.7312   29.8029 F       1  UNL1       -0.2026
      8 C           7.6815   -7.0136   27.2606 C.ar    1  UNL1        0.0312
      9 C           7.2473   -6.4352   25.9464 C.ar    1  UNL1        0.0024
     10 C           6.8335   -4.9960   25.8605 C.ar    1  UNL1        0.0018
     11 C           6.8539   -4.1352   27.0887 C.ar    1  UNL1        0.0241
     12 C           6.9151   -1.5526   30.7734 C.ar    1  UNL1        0.0174
     13 C           5.7577   -1.5791   31.7271 C.ar    1  UNL1        0.0015
     14 C           5.7782   -0.7182   32.9553 C.ar    1  UNL1        0.0000
     15 C           6.9560    0.1692   33.2297 C.ar    1  UNL1        0.0000
     16 C           8.1134    0.1957   32.2759 C.ar    1  UNL1        0.0000
     17 C           8.0929   -0.6652   31.0478 C.ar    1  UNL1        0.0015
     18 N           4.5487   -2.0679   25.3359 N.am    1  UNL1       -0.2206
     19 C           6.0059   -2.1176   25.6887 C.2     1  UNL1        0.2617
     20 O           7.0287   -1.5889   24.7273 O.2     1  UNL1       -0.2686
     21 H           3.8774   -2.4148   25.9669 H       1  UNL1        0.1738
     22 C           4.1053   -2.3473   22.7913 C.2     1  UNL1        0.4250
     23 O           4.5302   -3.7834   22.8749 O.2     1  UNL1       -0.2242
     24 N           4.1145   -1.4895   24.0218 N.am    1  UNL1       -0.1519
     25 C           3.6896   -0.0534   23.9382 C.ar    1  UNL1        0.0760
     26 C           4.7230    1.0324   23.8829 C.ar    1  UNL1        0.0167
     27 C           4.2981    2.4686   23.7992 C.ar    1  UNL1        0.0013
     28 C           2.8398    2.8189   23.7709 C.ar    1  UNL1        0.0001
     29 C           1.8064    1.7329   23.8262 C.ar    1  UNL1        0.0013
     30 C           2.2314    0.2968   23.9098 C.ar    1  UNL1        0.0167
     31 C           3.8869   -2.5416   20.2097 C.3     1  UNL1        0.2574
     32 O           3.6711   -1.7689   21.4771 O.3     1  UNL1       -0.4292
     33 C           6.0467   -0.3958   28.1451 C.3     1  UNL1        0.1009
     34 N           4.5914   -0.0351   28.1027 N.3     1  UNL1       -0.2665
     35 C           3.5723   -0.9569   28.7043 C.3     1  UNL1        0.0899
     36 C           2.1170   -0.5962   28.6619 C.3     1  UNL1        0.0896
     37 N           1.6806    0.6863   28.0178 N.3     1  UNL1       -0.2728
     38 C           2.6996    1.6081   27.4161 C.3     1  UNL1        0.0896
     39 C           4.1550    1.2473   27.4586 C.3     1  UNL1        0.0899
     40 C           0.2253    1.0470   27.9753 C.3     1  UNL1        0.0456
     41 C          -0.1034   -0.1866   28.7628 C.3     1  UNL1        0.0160
     42 C           0.5540    2.2806   27.1878 C.3     1  UNL1        0.0160
     43 C          -1.2301    1.4077   27.9329 C.3     1  UNL1        0.0160
@<TRIPOS>BOND
     1    31    32    1
     2    32    22    1
     3    22    23    2
     4    22    24   am
     5    24    18    1
     6    18    19   am
     7    19    20    2
     8    19     1    1
     9     1     2   ar
    10     2    33    1
    11    33    34    1
    12    34    35    1
    13    35    36    1
    14    36    37    1
    15    37    40    1
    16    40    41    1
    17    40    42    1
    18    40    43    1
    19    37    38    1
    20    38    39    1
    21     2     3   ar
    22     3    12    1
    23    12    13   ar
    24    13    14   ar
    25    14    15   ar
    26    15    16   ar
    27    16    17   ar
    28     3     4   ar
    29     4     5   ar
    30     5     6   ar
    31     6     7    1
    32     6     8   ar
    33     8     9   ar
    34     9    10   ar
    35    10    11   ar
    36    24    25    1
    37    25    26   ar
    38    26    27   ar
    39    27    28   ar
    40    28    29   ar
    41    29    30   ar
    42    11     1   ar
    43    30    25   ar
    44    39    34    1
    45    17    12   ar
    46    11     5   ar
    47    18    21    1
@<TRIPOS>MOLECULE
*****
 43 47 0 0 0
SMALL
GASTEIGER

@<TRIPOS>ATOM
      1 C           2.6789    0.9812   25.6313 C.ar    1  UNL1        0.0551
      2 C           4.0677    0.4152   25.6621 C.ar    1  UNL1        0.0160
      3 C           4.5526   -0.3164   26.8786 C.ar    1  UNL1        0.0788
      4 N           3.6488   -0.4820   28.0641 N.ar    1  UNL1       -0.2434
      5 C           2.2599    0.0840   28.0334 C.ar    1  UNL1        0.1087
      6 C           1.3561   -0.0815   29.2189 C.ar    1  UNL1        0.1576
      7 F           1.8410   -0.8131   30.4353 F       1  UNL1       -0.2026
      8 C          -0.0326    0.4845   29.1881 C.ar    1  UNL1        0.0312
      9 C          -0.5175    1.2161   27.9717 C.ar    1  UNL1        0.0024
     10 C           0.3863    1.3816   26.7861 C.ar    1  UNL1        0.0018
     11 C           1.7750    0.8156   26.8170 C.ar    1  UNL1        0.0241
     12 C           5.9414   -0.8825   26.9093 C.ar    1  UNL1        0.0174
     13 C           6.1691   -2.3290   26.5844 C.ar    1  UNL1        0.0015
     14 C           7.5579   -2.8949   26.6151 C.ar    1  UNL1        0.0000
     15 C           8.7189   -2.0144   26.9709 C.ar    1  UNL1        0.0000
     16 C           8.4912   -0.5678   27.2959 C.ar    1  UNL1        0.0000
     17 C           7.1024   -0.0019   27.2651 C.ar    1  UNL1        0.0015
     18 N           1.2606    1.0361   23.4552 N.am    1  UNL1       -0.2206
     19 C           2.1940    1.7128   24.4149 C.2     1  UNL1        0.2617
     20 O           2.6425    3.1209   24.1582 O.2     1  UNL1       -0.2686
     21 H           0.9663    0.1119   23.6237 H       1  UNL1        0.1738
     22 C          -0.3344    2.7694   22.3589 C.2     1  UNL1        0.4250
     23 O          -0.9595    3.0395   23.6954 O.2     1  UNL1       -0.2242
     24 N           0.7757    1.7677   22.2388 N.am    1  UNL1       -0.1519
     25 C           1.4008    1.4976   20.9023 C.ar    1  UNL1        0.0760
     26 C           2.7131    2.1310   20.5464 C.ar    1  UNL1        0.0167
     27 C           3.3383    1.8609   19.2099 C.ar    1  UNL1        0.0013
     28 C           2.6511    0.9575   18.2293 C.ar    1  UNL1        0.0001
     29 C           1.3388    0.3241   18.5852 C.ar    1  UNL1        0.0013
     30 C           0.7136    0.5942   19.9217 C.ar    1  UNL1        0.0167
     31 C          -2.1461    3.1514   20.5363 C.3     1  UNL1        0.2574
     32 O          -0.8193    3.5010   21.1425 O.3     1  UNL1       -0.4292
     33 C           4.9716    0.5807   24.4765 C.3     1  UNL1        0.1009
     34 N           4.8992   -0.3916   23.3367 N.3     1  UNL1       -0.2665
     35 C           4.3571   -1.7720   23.5616 C.3     1  UNL1        0.0899
     36 C           4.2847   -2.7443   22.4218 C.3     1  UNL1        0.0896
     37 N           4.7544   -2.3363   21.0569 N.3     1  UNL1       -0.2728
     38 C           5.2965   -0.9559   20.8319 C.3     1  UNL1        0.0896
     39 C           5.3689    0.0165   21.9718 C.3     1  UNL1        0.0899
     40 C           4.6820   -3.3086   19.9170 C.3     1  UNL1        0.0456
     41 C           3.3623   -2.7270   19.5047 C.3     1  UNL1        0.0160
     42 C           6.0017   -3.8902   20.3294 C.3     1  UNL1        0.0160
     43 C           4.6096   -4.2809   18.7772 C.3     1  UNL1        0.0160
@<TRIPOS>BOND
     1    31    32    1
     2    32    22    1
     3    22    23    2
     4    22    24   am
     5    24    18    1
     6    18    19   am
     7    19    20    2
     8    19     1    1
     9     1     2   ar
    10     2    33    1
    11    33    34    1
    12    34    35    1
    13    35    36    1
    14    36    37    1
    15    37    40    1
    16    40    41    1
    17    40    42    1
    18    40    43    1
    19    37    38    1
    20    38    39    1
    21     2     3   ar
    22     3    12    1
    23    12    13   ar
    24    13    14   ar
    25    14    15   ar
    26    15    16   ar
    27    16    17   ar
    28     3     4   ar
    29     4     5   ar
    30     5     6   ar
    31     6     7    1
    32     6     8   ar
    33     8     9   ar
    34     9    10   ar
    35    10    11   ar
    36    24    25    1
    37    25    26   ar
    38    26    27   ar
    39    27    28   ar
    40    28    29   ar
    41    29    30   ar
    42    11     1   ar
    43    30    25   ar
    44    39    34    1
    45    17    12   ar
    46    11     5   ar
    47    18    21    1
@<TRIPOS>MOLECULE
*****
 43 47 0 0 0
SMALL
GASTEIGER

@<TRIPOS>ATOM
      1 C           2.1793    1.5043   24.2714 C.ar    1  UNL1        0.0551
      2 C           2.2732    2.0255   22.8680 C.ar    1  UNL1        0.0160
      3 C           1.1280    2.7907   22.2739 C.ar    1  UNL1        0.0788
      4 N          -0.1112    3.0346   23.0831 N.ar    1  UNL1       -0.2434
      5 C          -0.2052    2.5133   24.4866 C.ar    1  UNL1        0.1087
      6 C          -1.4444    2.7571   25.2958 C.ar    1  UNL1        0.1576
      7 F          -2.5897    3.5223   24.7017 F       1  UNL1       -0.2026
      8 C          -1.5384    2.2358   26.6991 C.ar    1  UNL1        0.0312
      9 C          -0.3931    1.4707   27.2932 C.ar    1  UNL1        0.0024
     10 C           0.8461    1.2268   26.4840 C.ar    1  UNL1        0.0018
     11 C           0.9400    1.7481   25.0807 C.ar    1  UNL1        0.0241
     12 C           1.2220    3.3120   20.8705 C.ar    1  UNL1        0.0174
     13 C           0.6480    2.5173   19.7352 C.ar    1  UNL1        0.0015
     14 C           0.7420    3.0386   18.3319 C.ar    1  UNL1        0.0000
     15 C           1.4100    4.3546   18.0639 C.ar    1  UNL1        0.0000
     16 C           1.9840    5.1493   19.1991 C.ar    1  UNL1        0.0000
     17 C           1.8900    4.6280   20.6025 C.ar    1  UNL1        0.0015
     18 N           3.2981   -0.7607   24.8784 N.am    1  UNL1       -0.2206
     19 C           3.3245    0.7391   24.8655 C.2     1  UNL1        0.2617
     20 O           4.4961    1.4736   25.4466 O.2     1  UNL1       -0.2686
     21 H           2.5292   -1.2428   24.4969 H       1  UNL1        0.1738
     22 C           4.4507   -1.8475   26.9376 C.2     1  UNL1        0.4250
     23 O           3.3128   -1.4041   27.8085 O.2     1  UNL1       -0.2242
     24 N           4.4434   -1.5258   25.4725 N.am    1  UNL1       -0.1519
     25 C           5.5813   -1.9692   24.6016 C.ar    1  UNL1        0.0760
     26 C           5.5355   -3.3114   23.9336 C.ar    1  UNL1        0.0167
     27 C           6.6735   -3.7549   23.0626 C.ar    1  UNL1        0.0013
     28 C           7.8571   -2.8561   22.8597 C.ar    1  UNL1        0.0001
     29 C           7.9027   -1.5138   23.5277 C.ar    1  UNL1        0.0013
     30 C           6.7649   -1.0704   24.3986 C.ar    1  UNL1        0.0167
     31 C           6.0531   -2.3140   28.9288 C.3     1  UNL1        0.2574
     32 O           5.5959   -2.6127   27.5317 O.3     1  UNL1       -0.4292
     33 C           3.5125    1.7817   22.0587 C.3     1  UNL1        0.1009
     34 N           3.7345    0.4473   21.4106 N.3     1  UNL1       -0.2665
     35 C           5.1299   -0.0588   21.1948 C.3     1  UNL1        0.0899
     36 C           5.3520   -1.3932   20.5467 C.3     1  UNL1        0.0896
     37 N           4.1785   -2.2216   20.1145 N.3     1  UNL1       -0.2728
     38 C           2.7830   -1.7155   20.3303 C.3     1  UNL1        0.0896
     39 C           2.5610   -0.3810   20.9784 C.3     1  UNL1        0.0899
     40 C           4.4005   -3.5560   19.4664 C.3     1  UNL1        0.0456
     41 C           4.9450   -2.8731   18.2469 C.3     1  UNL1        0.0160
     42 C           3.8560   -4.2388   20.6859 C.3     1  UNL1        0.0160
     43 C           4.6225   -4.8904   18.8183 C.3     1  UNL1        0.0160
@<TRIPOS>BOND
     1    31    32    1
     2    32    22    1
     3    22    23    2
     4    22    24   am
     5    24    18    1
     6    18    19   am
     7    19    20    2
     8    19     1    1
     9     1     2   ar
    10     2    33    1
    11    33    34    1
    12    34    35    1
    13    35    36    1
    14    36    37    1
    15    37    40    1
    16    40    41    1
    17    40    42    1
    18    40    43    1
    19    37    38    1
    20    38    39    1
    21     2     3   ar
    22     3    12    1
    23    12    13   ar
    24    13    14   ar
    25    14    15   ar
    26    15    16   ar
    27    16    17   ar
    28     3     4   ar
    29     4     5   ar
    30     5     6   ar
    31     6     7    1
    32     6     8   ar
    33     8     9   ar
    34     9    10   ar
    35    10    11   ar
    36    24    25    1
    37    25    26   ar
    38    26    27   ar
    39    27    28   ar
    40    28    29   ar
    41    29    30   ar
    42    11     1   ar
    43    30    25   ar
    44    39    34    1
    45    17    12   ar
    46    11     5   ar
    47    18    21    1
@<TRIPOS>MOLECULE
*****
 43 47 0 0 0
SMALL
GASTEIGER

@<TRIPOS>ATOM
      1 C           2.7337    1.2958   21.1962 C.ar    1  UNL1        0.0551
      2 C           2.1077    2.4358   20.4488 C.ar    1  UNL1        0.0160
      3 C           1.9770    2.3721   18.9559 C.ar    1  UNL1        0.0788
      4 N           2.4723    1.1684   18.2103 N.ar    1  UNL1       -0.2434
      5 C           3.0983    0.0284   18.9577 C.ar    1  UNL1        0.1087
      6 C           3.5935   -1.1753   18.2122 C.ar    1  UNL1        0.1576
      7 F           3.4628   -1.2390   16.7193 F       1  UNL1       -0.2026
      8 C           4.2195   -2.3152   18.9596 C.ar    1  UNL1        0.0312
      9 C           4.3502   -2.2515   20.4525 C.ar    1  UNL1        0.0024
     10 C           3.8549   -1.0478   21.1981 C.ar    1  UNL1        0.0018
     11 C           3.2290    0.0921   20.4507 C.ar    1  UNL1        0.0241
     12 C           1.3510    3.5121   18.2085 C.ar    1  UNL1        0.0174
     13 C           2.1541    4.7427   17.9076 C.ar    1  UNL1        0.0015
     14 C           1.5280    5.8826   17.1603 C.ar    1  UNL1        0.0000
     15 C           0.0989    5.7920   16.7137 C.ar    1  UNL1        0.0000
     16 C          -0.7042    4.5613   17.0146 C.ar    1  UNL1        0.0000
     17 C          -0.0782    3.4214   17.7619 C.ar    1  UNL1        0.0015
     18 N           1.8752    0.6430   23.5599 N.am    1  UNL1       -0.2206
     19 C           2.8644    1.3596   22.6891 C.2     1  UNL1        0.2617
     20 O           3.9841    2.1398   23.3114 O.2     1  UNL1       -0.2686
     21 H           1.1402    0.1308   23.1515 H       1  UNL1        0.1738
     22 C           2.9758   -0.1931   25.7598 C.2     1  UNL1        0.4250
     23 O           3.8149   -1.1565   24.9740 O.2     1  UNL1       -0.2242
     24 N           2.0059    0.7067   25.0528 N.am    1  UNL1       -0.1519
     25 C           1.1668    1.6701   25.8387 C.ar    1  UNL1        0.0760
     26 C           1.7186    3.0140   26.2118 C.ar    1  UNL1        0.0167
     27 C           0.8795    3.9775   26.9977 C.ar    1  UNL1        0.0013
     28 C          -0.5115    3.5970   27.4105 C.ar    1  UNL1        0.0001
     29 C          -1.0633    2.2530   27.0374 C.ar    1  UNL1        0.0013
     30 C          -0.2242    1.2896   26.2515 C.ar    1  UNL1        0.0167
     31 C           3.8941   -1.1771   27.9821 C.3     1  UNL1        0.2574
     32 O           3.1065   -0.1294   27.2528 O.3     1  UNL1       -0.4292
     33 C           1.6124    3.6395   21.1943 C.3     1  UNL1        0.1009
     34 N           0.2290    3.6458   21.7741 N.3     1  UNL1       -0.2665
     35 C          -0.9477    3.3001   20.9104 C.3     1  UNL1        0.0899
     36 C          -2.3311    3.3064   21.4902 C.3     1  UNL1        0.0896
     37 N          -2.5379    3.6585   22.9336 N.3     1  UNL1       -0.2728
     38 C          -1.3612    4.0042   23.7972 C.3     1  UNL1        0.0896
     39 C           0.0223    3.9979   23.2174 C.3     1  UNL1        0.0899
     40 C          -3.9213    3.6648   23.5133 C.3     1  UNL1        0.0456
     41 C          -3.3590    4.0452   24.8509 C.3     1  UNL1        0.0160
     42 C          -4.4835    3.2844   22.1758 C.3     1  UNL1        0.0160
     43 C          -5.3047    3.6711   24.0930 C.3     1  UNL1        0.0160
@<TRIPOS>BOND
     1    31    32    1
     2    32    22    1
     3    22    23    2
     4    22    24   am
     5    24    18    1
     6    18    19   am
     7    19    20    2
     8    19     1    1
     9     1     2   ar
    10     2    33    1
    11    33    34    1
    12    34    35    1
    13    35    36    1
    14    36    37    1
    15    37    40    1
    16    40    41    1
    17    40    42    1
    18    40    43    1
    19    37    38    1
    20    38    39    1
    21     2     3   ar
    22     3    12    1
    23    12    13   ar
    24    13    14   ar
    25    14    15   ar
    26    15    16   ar
    27    16    17   ar
    28     3     4   ar
    29     4     5   ar
    30     5     6   ar
    31     6     7    1
    32     6     8   ar
    33     8     9   ar
    34     9    10   ar
    35    10    11   ar
    36    24    25    1
    37    25    26   ar
    38    26    27   ar
    39    27    28   ar
    40    28    29   ar
    41    29    30   ar
    42    11     1   ar
    43    30    25   ar
    44    39    34    1
    45    17    12   ar
    46    11     5   ar
    47    18    21    1
@<TRIPOS>MOLECULE
*****
 43 47 0 0 0
SMALL
GASTEIGER

@<TRIPOS>ATOM
      1 C           3.3827    0.4337   24.6678 C.ar    1  UNL1        0.0551
      2 C           4.7378    0.0873   25.2099 C.ar    1  UNL1        0.0160
      3 C           4.9564    0.0144   26.6920 C.ar    1  UNL1        0.0788
      4 N           3.8200    0.2879   27.6321 N.ar    1  UNL1       -0.2434
      5 C           2.4649    0.6343   27.0901 C.ar    1  UNL1        0.1087
      6 C           1.3286    0.9078   28.0302 C.ar    1  UNL1        0.1576
      7 F           1.5472    0.8349   29.5124 F       1  UNL1       -0.2026
      8 C          -0.0264    1.2542   27.4881 C.ar    1  UNL1        0.0312
      9 C          -0.2451    1.3271   26.0059 C.ar    1  UNL1        0.0024
     10 C           0.8913    1.0536   25.0658 C.ar    1  UNL1        0.0018
     11 C           2.2463    0.7072   25.6079 C.ar    1  UNL1        0.0241
     12 C           6.3115   -0.3320   27.2341 C.ar    1  UNL1        0.0174
     13 C           7.3902    0.7093   27.2783 C.ar    1  UNL1        0.0015
     14 C           8.7452    0.3629   27.8204 C.ar    1  UNL1        0.0000
     15 C           9.0215   -1.0249   28.3182 C.ar    1  UNL1        0.0000
     16 C           7.9428   -2.0662   28.2740 C.ar    1  UNL1        0.0000
     17 C           6.5878   -1.7197   27.7320 C.ar    1  UNL1        0.0015
     18 N           2.5903   -0.6701   22.4533 N.am    1  UNL1       -0.2206
     19 C           3.1641    0.5066   23.1856 C.2     1  UNL1        0.2617
     20 O           3.5192    1.7562   22.4357 O.2     1  UNL1       -0.2686
     21 H           2.3573   -1.4903   22.9455 H       1  UNL1        0.1738
     22 C           1.1366    0.0570   20.4265 C.2     1  UNL1        0.4250
     23 O           0.1202    0.6384   21.3641 O.2     1  UNL1       -0.2242
     24 N           2.3717   -0.5972   20.9711 N.am    1  UNL1       -0.1519
     25 C           3.3880   -1.1785   20.0336 C.ar    1  UNL1        0.0760
     26 C           3.3500   -2.6402   19.6988 C.ar    1  UNL1        0.0167
     27 C           4.3664   -3.2216   18.7612 C.ar    1  UNL1        0.0013
     28 C           5.4208   -2.3413   18.1585 C.ar    1  UNL1        0.0001
     29 C           5.4588   -0.8796   18.4934 C.ar    1  UNL1        0.0013
     30 C           4.4425   -0.2982   19.4309 C.ar    1  UNL1        0.0167
     31 C           0.8482    1.4635   18.2612 C.3     1  UNL1        0.2574
     32 O           0.9179    0.1299   18.9443 O.3     1  UNL1       -0.4292
     33 C           5.8742   -0.1862   24.2697 C.3     1  UNL1        0.1009
     34 N           6.4271   -1.5750   24.1455 N.3     1  UNL1       -0.2665
     35 C           5.5143   -2.7191   23.8174 C.3     1  UNL1        0.0899
     36 C           6.0672   -4.1079   23.6932 C.3     1  UNL1        0.0896
     37 N           7.5331   -4.3526   23.8970 N.3     1  UNL1       -0.2728
     38 C           8.4459   -3.2085   24.2251 C.3     1  UNL1        0.0896
     39 C           7.8929   -1.8196   24.3493 C.3     1  UNL1        0.0899
     40 C           8.0860   -5.7414   23.7728 C.3     1  UNL1        0.0456
     41 C           7.6526   -6.0396   25.1774 C.3     1  UNL1        0.0160
     42 C           8.5194   -5.4432   22.3681 C.3     1  UNL1        0.0160
     43 C           8.6389   -7.1302   23.6485 C.3     1  UNL1        0.0160
@<TRIPOS>BOND
     1    31    32    1
     2    32    22    1
     3    22    23    2
     4    22    24   am
     5    24    18    1
     6    18    19   am
     7    19    20    2
     8    19     1    1
     9     1     2   ar
    10     2    33    1
    11    33    34    1
    12    34    35    1
    13    35    36    1
    14    36    37    1
    15    37    40    1
    16    40    41    1
    17    40    42    1
    18    40    43    1
    19    37    38    1
    20    38    39    1
    21     2     3   ar
    22     3    12    1
    23    12    13   ar
    24    13    14   ar
    25    14    15   ar
    26    15    16   ar
    27    16    17   ar
    28     3     4   ar
    29     4     5   ar
    30     5     6   ar
    31     6     7    1
    32     6     8   ar
    33     8     9   ar
    34     9    10   ar
    35    10    11   ar
    36    24    25    1
    37    25    26   ar
    38    26    27   ar
    39    27    28   ar
    40    28    29   ar
    41    29    30   ar
    42    11     1   ar
    43    30    25   ar
    44    39    34    1
    45    17    12   ar
    46    11     5   ar
    47    18    21    1
