@<TRIPOS>MOLECULE
*****
 20 21 0 0 0
SMALL
GASTEIGER

@<TRIPOS>ATOM
      1 C         -12.9718  -17.7057   23.4555 C.3     1  UNL1        0.0000
      2 B         -11.6333  -17.9930   22.8426 B       1  UNL1        0.0000
      3 C         -10.3781  -17.6043   23.5661 C.3     1  UNL1        0.0000
      4 C          -9.0395  -17.8916   22.9531 C.2     1  UNL1        0.0000
      5 C          -8.9561  -18.5676   21.6167 C.ar    1  UNL1        0.0000
      6 C         -10.2113  -18.9562   20.8932 C.ar    1  UNL1        0.0000
      7 C         -10.1279  -19.6322   19.5567 C.ar    1  UNL1        0.0000
      8 C          -8.7894  -19.9196   18.9438 C.ar    1  UNL1        0.0000
      9 C          -7.5342  -19.5308   19.6673 C.ar    1  UNL1        0.0000
     10 C          -7.6176  -18.8549   21.0037 C.ar    1  UNL1        0.0000
     11 N         -11.5499  -18.6689   21.5062 N.2     1  UNL1        0.0000
     12 O          -6.3624  -18.4662   21.7272 O.3     1  UNL1        0.0000
     13 C          -5.1169  -19.2855   21.5615 C.3     1  UNL1        0.0000
     14 C          -4.0314  -18.8213   20.6362 C.3     1  UNL1        0.0000
     15 O          -4.3816  -18.2726   19.2848 O.3     1  UNL1        0.0000
     16 H          -5.3446  -18.2879   19.1693 H       1  UNL1        0.0000
     17 C          -2.5956  -18.9059   21.0623 C.3     1  UNL1        0.0000
     18 N          -1.6809  -17.7357   20.8527 N.3     1  UNL1        0.0000
     19 C          -0.4544  -17.8854   20.0023 C.3     1  UNL1        0.0000
     20 C          -1.9928  -16.4158   21.4936 C.3     1  UNL1        0.0000
@<TRIPOS>BOND
     1     1     2    1
     2     2     3    1
     3     3     4    1
     4     4     5    2
     5     5     6   ar
     6     6     7   ar
     7     7     8   ar
     8     8     9   ar
     9     9    10   ar
    10    10    12    1
    11    12    13    1
    12    13    14    1
    13    14    15    1
    14    14    17    1
    15    17    18    1
    16    18    19    1
    17    18    20    1
    18     6    11    2
    19    11     2    1
    20    10     5   ar
    21    15    16    1
@<TRIPOS>MOLECULE
*****
 20 21 0 0 0
SMALL
GASTEIGER

@<TRIPOS>ATOM
      1 C          -8.0806  -15.5519   26.9556 C.3     1  UNL1        0.0000
      2 B          -8.3434  -16.3186   25.6934 B       1  UNL1        0.0000
      3 C          -7.5637  -16.0068   24.4505 C.3     1  UNL1        0.0000
      4 C          -7.8264  -16.7735   23.1883 C.2     1  UNL1        0.0000
      5 C          -8.8688  -17.8520   23.1690 C.ar    1  UNL1        0.0000
      6 C          -9.6484  -18.1637   24.4120 C.ar    1  UNL1        0.0000
      7 C         -10.6909  -19.2422   24.3928 C.ar    1  UNL1        0.0000
      8 C         -10.9536  -20.0089   23.1306 C.ar    1  UNL1        0.0000
      9 C         -10.1739  -19.6971   21.8876 C.ar    1  UNL1        0.0000
     10 C          -9.1315  -18.6187   21.9068 C.ar    1  UNL1        0.0000
     11 N          -9.3857  -17.3970   25.6742 N.2     1  UNL1        0.0000
     12 O          -8.3519  -18.3069   20.6639 O.3     1  UNL1        0.0000
     13 C          -7.3616  -19.2996   20.1310 C.3     1  UNL1        0.0000
     14 C          -5.8986  -19.1245   20.4123 C.3     1  UNL1        0.0000
     15 O          -5.0202  -18.4327   19.4124 O.3     1  UNL1        0.0000
     16 H          -5.5515  -18.1634   18.6469 H       1  UNL1        0.0000
     17 C          -5.3142  -19.6412   21.6935 C.3     1  UNL1        0.0000
     18 N          -4.0169  -19.0870   22.2033 N.3     1  UNL1        0.0000
     19 C          -4.0202  -17.9607   23.1940 C.3     1  UNL1        0.0000
     20 C          -2.7163  -19.6591   21.7225 C.3     1  UNL1        0.0000
@<TRIPOS>BOND
     1     1     2    1
     2     2     3    1
     3     3     4    1
     4     4     5    2
     5     5     6   ar
     6     6     7   ar
     7     7     8   ar
     8     8     9   ar
     9     9    10   ar
    10    10    12    1
    11    12    13    1
    12    13    14    1
    13    14    15    1
    14    14    17    1
    15    17    18    1
    16    18    19    1
    17    18    20    1
    18     6    11    2
    19    11     2    1
    20    10     5   ar
    21    15    16    1
@<TRIPOS>MOLECULE
*****
 20 21 0 0 0
SMALL
GASTEIGER

@<TRIPOS>ATOM
      1 C         -11.4239  -16.3322   22.7461 C.3     1  UNL1        0.0000
      2 B          -9.9887  -16.2182   23.1670 B       1  UNL1        0.0000
      3 C          -8.8941  -16.4149   22.1605 C.3     1  UNL1        0.0000
      4 C          -7.4589  -16.3010   22.5813 C.2     1  UNL1        0.0000
      5 C          -7.1182  -15.9903   24.0087 C.ar    1  UNL1        0.0000
      6 C          -8.2128  -15.7936   25.0152 C.ar    1  UNL1        0.0000
      7 C          -7.8722  -15.4829   26.4426 C.ar    1  UNL1        0.0000
      8 C          -6.4370  -15.3690   26.8635 C.ar    1  UNL1        0.0000
      9 C          -5.3424  -15.5657   25.8569 C.ar    1  UNL1        0.0000
     10 C          -5.6830  -15.8764   24.4295 C.ar    1  UNL1        0.0000
     11 N          -9.6481  -15.9076   24.5943 N.2     1  UNL1        0.0000
     12 O          -4.5884  -16.0731   23.4230 O.3     1  UNL1        0.0000
     13 C          -3.9605  -17.4246   23.2522 C.3     1  UNL1        0.0000
     14 C          -2.7418  -17.5821   22.3919 C.3     1  UNL1        0.0000
     15 O          -1.8585  -16.4009   22.1192 O.3     1  UNL1        0.0000
     16 H          -2.2151  -15.6196   22.5701 H       1  UNL1        0.0000
     17 C          -2.4066  -18.9209   21.8044 C.3     1  UNL1        0.0000
     18 N          -2.9126  -19.2898   20.4414 N.3     1  UNL1        0.0000
     19 C          -2.4661  -18.5113   19.2395 C.3     1  UNL1        0.0000
     20 C          -3.8652  -20.4373   20.2802 C.3     1  UNL1        0.0000
@<TRIPOS>BOND
     1     1     2    1
     2     2     3    1
     3     3     4    1
     4     4     5    2
     5     5     6   ar
     6     6     7   ar
     7     7     8   ar
     8     8     9   ar
     9     9    10   ar
    10    10    12    1
    11    12    13    1
    12    13    14    1
    13    14    15    1
    14    14    17    1
    15    17    18    1
    16    18    19    1
    17    18    20    1
    18     6    11    2
    19    11     2    1
    20    10     5   ar
    21    15    16    1
@<TRIPOS>MOLECULE
*****
 20 21 0 0 0
SMALL
GASTEIGER

@<TRIPOS>ATOM
      1 C           0.1730  -17.7497   20.0637 C.3     1  UNL1        0.0000
      2 B          -1.2295  -17.9948   20.5361 B       1  UNL1        0.0000
      3 C          -1.8627  -17.0594   21.5230 C.3     1  UNL1        0.0000
      4 C          -3.2651  -17.3045   21.9954 C.2     1  UNL1        0.0000
      5 C          -4.0343  -18.4850   21.4808 C.ar    1  UNL1        0.0000
      6 C          -3.4011  -19.4203   20.4939 C.ar    1  UNL1        0.0000
      7 C          -4.1703  -20.6009   19.9793 C.ar    1  UNL1        0.0000
      8 C          -5.5727  -20.8459   20.4516 C.ar    1  UNL1        0.0000
      9 C          -6.2059  -19.9105   21.4386 C.ar    1  UNL1        0.0000
     10 C          -5.4367  -18.7300   21.9532 C.ar    1  UNL1        0.0000
     11 N          -1.9987  -19.1753   20.0215 N.2     1  UNL1        0.0000
     12 O          -6.0700  -17.7947   22.9401 O.3     1  UNL1        0.0000
     13 C          -7.4666  -17.2972   22.7124 C.3     1  UNL1        0.0000
     14 C          -7.8542  -15.9190   23.1601 C.3     1  UNL1        0.0000
     15 O          -7.6752  -14.7518   22.2350 O.3     1  UNL1        0.0000
     16 H          -7.3008  -15.0597   21.3948 H       1  UNL1        0.0000
     17 C          -8.4207  -15.7079   24.5328 C.3     1  UNL1        0.0000
     18 N          -7.5013  -15.5447   25.7067 N.3     1  UNL1        0.0000
     19 C          -8.0420  -15.6435   27.1023 C.3     1  UNL1        0.0000
     20 C          -6.0411  -15.2825   25.4849 C.3     1  UNL1        0.0000
@<TRIPOS>BOND
     1     1     2    1
     2     2     3    1
     3     3     4    1
     4     4     5    2
     5     5     6   ar
     6     6     7   ar
     7     7     8   ar
     8     8     9   ar
     9     9    10   ar
    10    10    12    1
    11    12    13    1
    12    13    14    1
    13    14    15    1
    14    14    17    1
    15    17    18    1
    16    18    19    1
    17    18    20    1
    18     6    11    2
    19    11     2    1
    20    10     5   ar
    21    15    16    1
@<TRIPOS>MOLECULE
*****
 20 21 0 0 0
SMALL
GASTEIGER

@<TRIPOS>ATOM
      1 C         -11.4160  -16.8022   22.3088 C.3     1  UNL1        0.0000
      2 B          -9.9927  -17.2753   22.3253 B       1  UNL1        0.0000
      3 C          -9.6248  -18.5695   21.6622 C.3     1  UNL1        0.0000
      4 C          -8.2014  -19.0426   21.6787 C.2     1  UNL1        0.0000
      5 C          -7.1460  -18.2215   22.3582 C.ar    1  UNL1        0.0000
      6 C          -7.5139  -16.9273   23.0213 C.ar    1  UNL1        0.0000
      7 C          -6.4584  -16.1061   23.7008 C.ar    1  UNL1        0.0000
      8 C          -5.0351  -16.5792   23.7173 C.ar    1  UNL1        0.0000
      9 C          -4.6672  -17.8735   23.0542 C.ar    1  UNL1        0.0000
     10 C          -5.7226  -18.6946   22.3747 C.ar    1  UNL1        0.0000
     11 N          -8.9372  -16.4542   23.0048 N.2     1  UNL1        0.0000
     12 O          -5.3547  -19.9888   21.7116 O.3     1  UNL1        0.0000
     13 C          -4.4516  -19.9877   20.5140 C.3     1  UNL1        0.0000
     14 C          -3.0484  -19.4709   20.6333 C.3     1  UNL1        0.0000
     15 O          -2.0384  -20.2240   21.4473 O.3     1  UNL1        0.0000
     16 H          -2.4529  -21.0153   21.8253 H       1  UNL1        0.0000
     17 C          -2.6554  -18.2009   19.9385 C.3     1  UNL1        0.0000
     18 N          -1.4959  -17.3961   20.4462 N.3     1  UNL1        0.0000
     19 C          -1.7270  -16.2816   21.4231 C.3     1  UNL1        0.0000
     20 C          -0.1052  -17.7058   19.9770 C.3     1  UNL1        0.0000
@<TRIPOS>BOND
     1     1     2    1
     2     2     3    1
     3     3     4    1
     4     4     5    2
     5     5     6   ar
     6     6     7   ar
     7     7     8   ar
     8     8     9   ar
     9     9    10   ar
    10    10    12    1
    11    12    13    1
    12    13    14    1
    13    14    15    1
    14    14    17    1
    15    17    18    1
    16    18    19    1
    17    18    20    1
    18     6    11    2
    19    11     2    1
    20    10     5   ar
    21    15    16    1
@<TRIPOS>MOLECULE
*****
 20 21 0 0 0
SMALL
GASTEIGER

@<TRIPOS>ATOM
      1 C          -8.4150  -15.5097   26.4226 C.3     1  UNL1        0.0000
      2 B          -8.2868  -16.2527   25.1258 B       1  UNL1        0.0000
      3 C          -7.0470  -16.1025   24.2949 C.3     1  UNL1        0.0000
      4 C          -6.9188  -16.8454   22.9981 C.2     1  UNL1        0.0000
      5 C          -8.0303  -17.7385   22.5323 C.ar    1  UNL1        0.0000
      6 C          -9.2700  -17.8886   23.3632 C.ar    1  UNL1        0.0000
      7 C         -10.3815  -18.7817   22.8974 C.ar    1  UNL1        0.0000
      8 C         -10.2533  -19.5246   21.6006 C.ar    1  UNL1        0.0000
      9 C          -9.0135  -19.3744   20.7697 C.ar    1  UNL1        0.0000
     10 C          -7.9020  -18.4814   21.2355 C.ar    1  UNL1        0.0000
     11 N          -9.3982  -17.1457   24.6600 N.2     1  UNL1        0.0000
     12 O          -6.6623  -18.3312   20.4045 O.3     1  UNL1        0.0000
     13 C          -5.6053  -19.3951   20.4353 C.3     1  UNL1        0.0000
     14 C          -4.2060  -19.0503   20.8515 C.3     1  UNL1        0.0000
     15 O          -3.7300  -19.3872   22.2334 O.3     1  UNL1        0.0000
     16 H          -4.4449  -19.8212   22.7248 H       1  UNL1        0.0000
     17 C          -3.2828  -18.3685   19.8856 C.3     1  UNL1        0.0000
     18 N          -2.0141  -17.7382   20.3785 N.3     1  UNL1        0.0000
     19 C          -0.6872  -18.2601   19.9126 C.3     1  UNL1        0.0000
     20 C          -2.0721  -16.5860   21.3372 C.3     1  UNL1        0.0000
@<TRIPOS>BOND
     1     1     2    1
     2     2     3    1
     3     3     4    1
     4     4     5    2
     5     5     6   ar
     6     6     7   ar
     7     7     8   ar
     8     8     9   ar
     9     9    10   ar
    10    10    12    1
    11    12    13    1
    12    13    14    1
    13    14    15    1
    14    14    17    1
    15    17    18    1
    16    18    19    1
    17    18    20    1
    18     6    11    2
    19    11     2    1
    20    10     5   ar
    21    15    16    1
@<TRIPOS>MOLECULE
*****
 20 21 0 0 0
SMALL
GASTEIGER

@<TRIPOS>ATOM
      1 C          -5.4920  -15.1956   24.9102 C.3     1  UNL1        0.0000
      2 B          -6.0719  -16.2306   23.9924 B       1  UNL1        0.0000
      3 C          -7.5596  -16.3561   23.8481 C.3     1  UNL1        0.0000
      4 C          -8.1395  -17.3912   22.9303 C.2     1  UNL1        0.0000
      5 C          -7.2317  -18.3008   22.1568 C.ar    1  UNL1        0.0000
      6 C          -5.7439  -18.1753   22.3010 C.ar    1  UNL1        0.0000
      7 C          -4.8360  -19.0849   21.5275 C.ar    1  UNL1        0.0000
      8 C          -5.4159  -20.1200   20.6097 C.ar    1  UNL1        0.0000
      9 C          -6.9037  -20.2455   20.4654 C.ar    1  UNL1        0.0000
     10 C          -7.8115  -19.3359   21.2390 C.ar    1  UNL1        0.0000
     11 N          -5.1641  -17.1402   23.2188 N.2     1  UNL1        0.0000
     12 O          -9.2993  -19.4613   21.0947 O.3     1  UNL1        0.0000
     13 C          -9.9915  -18.8565   19.9094 C.3     1  UNL1        0.0000
     14 C         -10.9566  -17.7243   20.1016 C.3     1  UNL1        0.0000
     15 O         -10.7297  -16.4181   19.4001 O.3     1  UNL1        0.0000
     16 H          -9.9215  -16.4737   18.8666 H       1  UNL1        0.0000
     17 C         -12.1486  -17.8984   20.9954 C.3     1  UNL1        0.0000
     18 N         -12.1003  -17.4116   22.4134 N.3     1  UNL1        0.0000
     19 C         -12.2988  -15.9554   22.7135 C.3     1  UNL1        0.0000
     20 C         -11.8535  -18.3809   23.5312 C.3     1  UNL1        0.0000
@<TRIPOS>BOND
     1     1     2    1
     2     2     3    1
     3     3     4    1
     4     4     5    2
     5     5     6   ar
     6     6     7   ar
     7     7     8   ar
     8     8     9   ar
     9     9    10   ar
    10    10    12    1
    11    12    13    1
    12    13    14    1
    13    14    15    1
    14    14    17    1
    15    17    18    1
    16    18    19    1
    17    18    20    1
    18     6    11    2
    19    11     2    1
    20    10     5   ar
    21    15    16    1
@<TRIPOS>MOLECULE
*****
 20 21 0 0 0
SMALL
GASTEIGER

@<TRIPOS>ATOM
      1 C          -8.4451  -15.1622   27.6274 C.3     1  UNL1        0.0000
      2 B          -8.6474  -15.9576   26.3719 B       1  UNL1        0.0000
      3 C          -8.3094  -15.3558   25.0402 C.3     1  UNL1        0.0000
      4 C          -8.5116  -16.1512   23.7846 C.2     1  UNL1        0.0000
      5 C          -9.0519  -17.5484   23.8608 C.ar    1  UNL1        0.0000
      6 C          -9.3898  -18.1502   25.1925 C.ar    1  UNL1        0.0000
      7 C          -9.9301  -19.5475   25.2687 C.ar    1  UNL1        0.0000
      8 C         -10.1324  -20.3429   24.0131 C.ar    1  UNL1        0.0000
      9 C          -9.7943  -19.7410   22.6814 C.ar    1  UNL1        0.0000
     10 C          -9.2541  -18.3438   22.6052 C.ar    1  UNL1        0.0000
     11 N          -9.1876  -17.3548   26.4480 N.2     1  UNL1        0.0000
     12 O          -8.9161  -17.7420   21.2735 O.3     1  UNL1        0.0000
     13 C         -10.0062  -17.2004   20.3968 C.3     1  UNL1        0.0000
     14 C         -11.3234  -17.9130   20.3111 C.3     1  UNL1        0.0000
     15 O         -11.4162  -19.2359   19.6103 O.3     1  UNL1        0.0000
     16 H         -10.5416  -19.4851   19.2729 H       1  UNL1        0.0000
     17 C         -12.5477  -17.3026   20.9263 C.3     1  UNL1        0.0000
     18 N         -12.5742  -16.9912   22.3933 N.3     1  UNL1        0.0000
     19 C         -13.0279  -18.0325   23.3730 C.3     1  UNL1        0.0000
     20 C         -12.1470  -15.6384   22.8807 C.3     1  UNL1        0.0000
@<TRIPOS>BOND
     1     1     2    1
     2     2     3    1
     3     3     4    1
     4     4     5    2
     5     5     6   ar
     6     6     7   ar
     7     7     8   ar
     8     8     9   ar
     9     9    10   ar
    10    10    12    1
    11    12    13    1
    12    13    14    1
    13    14    15    1
    14    14    17    1
    15    17    18    1
    16    18    19    1
    17    18    20    1
    18     6    11    2
    19    11     2    1
    20    10     5   ar
    21    15    16    1
@<TRIPOS>MOLECULE
*****
 20 21 0 0 0
SMALL
GASTEIGER

@<TRIPOS>ATOM
      1 C           4.4794   -1.3685   25.6976 C.3     1  UNL1        0.0000
      2 B           4.1568   -1.5116   24.2397 B       1  UNL1        0.0000
      3 C           3.4240   -0.4167   23.5227 C.3     1  UNL1        0.0000
      4 C           3.1015   -0.5598   22.0648 C.2     1  UNL1        0.0000
      5 C           3.5116   -1.7979   21.3239 C.ar    1  UNL1        0.0000
      6 C           4.2444   -2.8928   22.0409 C.ar    1  UNL1        0.0000
      7 C           4.6547   -4.1309   21.3000 C.ar    1  UNL1        0.0000
      8 C           4.3321   -4.2740   19.8421 C.ar    1  UNL1        0.0000
      9 C           3.5992   -3.1790   19.1251 C.ar    1  UNL1        0.0000
     10 C           3.1891   -1.9410   19.8660 C.ar    1  UNL1        0.0000
     11 N           4.5670   -2.7496   23.4988 N.2     1  UNL1        0.0000
     12 O           2.4563   -0.8461   19.1490 O.3     1  UNL1        0.0000
     13 C           3.1970    0.0675   18.2180 C.3     1  UNL1        0.0000
     14 C           4.1547   -0.5014   17.2133 C.3     1  UNL1        0.0000
     15 O           3.6418   -1.3350   16.0766 O.3     1  UNL1        0.0000
     16 H           2.6766   -1.4076   16.1387 H       1  UNL1        0.0000
     17 C           5.6252   -0.2367   17.3454 C.3     1  UNL1        0.0000
     18 N           6.3938   -0.8277   18.4899 N.3     1  UNL1        0.0000
     19 C           6.4647   -0.1013   19.8004 C.3     1  UNL1        0.0000
     20 C           7.0916   -2.1452   18.3240 C.3     1  UNL1        0.0000
@<TRIPOS>BOND
     1     1     2    1
     2     2     3    1
     3     3     4    1
     4     4     5    2
     5     5     6   ar
     6     6     7   ar
     7     7     8   ar
     8     8     9   ar
     9     9    10   ar
    10    10    12    1
    11    12    13    1
    12    13    14    1
    13    14    15    1
    14    14    17    1
    15    17    18    1
    16    18    19    1
    17    18    20    1
    18     6    11    2
    19    11     2    1
    20    10     5   ar
    21    15    16    1
