@<TRIPOS>MOLECULE
*****
 17 18 0 0 0
SMALL
GASTEIGER

@<TRIPOS>ATOM
      1 C          -4.2913  -19.9432   21.1467 C.ar    1  UNL1        0.1386
      2 C          -5.2559  -20.6692   20.2566 C.ar    1  UNL1        0.0370
      3 C          -6.7216  -20.3584   20.3275 C.ar    1  UNL1        0.0062
      4 C          -7.2228  -19.3216   21.2887 C.ar    1  UNL1        0.0371
      5 C          -6.2582  -18.5956   22.1788 C.ar    1  UNL1        0.0062
      6 C          -4.7924  -18.9064   22.1079 C.ar    1  UNL1        0.0370
      7 C          -8.6885  -19.0108   21.3597 C.ar    1  UNL1        0.1728
      8 O          -9.4638  -18.1869   20.3747 O.2     1  UNL1       -0.3537
      9 N         -10.8907  -18.1362   20.8344 N.ar    1  UNL1       -0.0757
     10 C         -10.9973  -18.9287   22.1035 C.ar    1  UNL1        0.1394
     11 C          -9.6363  -19.4692   22.4281 C.ar    1  UNL1        0.0377
     12 C          -9.2847  -20.3190   23.6131 C.3     1  UNL1        0.0361
     13 O          -2.8256  -20.2541   21.0757 O.3     1  UNL1       -0.4755
     14 C          -1.8166  -19.1768   21.3432 C.3     1  UNL1        0.2054
     15 C          -1.5873  -18.0955   20.3292 C.3     1  UNL1        0.0473
     16 C          -2.2434  -16.1277   21.8936 C.3     1  UNL1        0.0001
     17 C          -1.4063  -16.6749   20.7757 C.3     1  UNL1        0.0038
@<TRIPOS>BOND
     1    16    17    1
     2    17    15    1
     3    15    14    1
     4    14    13    1
     5    13     1    1
     6     1     2   ar
     7     2     3   ar
     8     3     4   ar
     9     4     7    1
    10     7     8   ar
    11     8     9   ar
    12     9    10   ar
    13    10    11   ar
    14    11    12    1
    15     4     5   ar
    16     5     6   ar
    17     6     1   ar
    18    11     7   ar
@<TRIPOS>MOLECULE
*****
 17 18 0 0 0
SMALL
GASTEIGER

@<TRIPOS>ATOM
      1 C          -7.1016  -18.3157   22.3273 C.ar    1  UNL1        0.1386
      2 C          -7.7314  -17.0399   22.8022 C.ar    1  UNL1        0.0370
      3 C          -9.1665  -17.0289   23.2383 C.ar    1  UNL1        0.0062
      4 C          -9.9719  -18.2937   23.1995 C.ar    1  UNL1        0.0371
      5 C          -9.3421  -19.5695   22.7246 C.ar    1  UNL1        0.0062
      6 C          -7.9070  -19.5805   22.2885 C.ar    1  UNL1        0.0370
      7 C         -11.4071  -18.2826   23.6355 C.ar    1  UNL1        0.1728
      8 O         -11.9336  -18.7825   24.9481 O.2     1  UNL1       -0.3537
      9 N         -13.4197  -18.5786   24.9594 N.ar    1  UNL1       -0.0757
     10 C         -13.8116  -17.9528   23.6538 C.ar    1  UNL1        0.1394
     11 C         -12.5677  -17.7698   22.8356 C.ar    1  UNL1        0.0377
     12 C         -12.4970  -17.1780   21.4591 C.3     1  UNL1        0.0361
     13 O          -5.6664  -18.3267   21.8912 O.3     1  UNL1       -0.4755
     14 C          -4.7395  -19.3959   22.3888 C.3     1  UNL1        0.2054
     15 C          -3.3027  -19.4030   21.9582 C.3     1  UNL1        0.0473
     16 C          -3.0742  -18.8741   19.4248 C.3     1  UNL1        0.0001
     17 C          -2.9383  -19.8349   20.5687 C.3     1  UNL1        0.0038
@<TRIPOS>BOND
     1    16    17    1
     2    17    15    1
     3    15    14    1
     4    14    13    1
     5    13     1    1
     6     1     2   ar
     7     2     3   ar
     8     3     4   ar
     9     4     7    1
    10     7     8   ar
    11     8     9   ar
    12     9    10   ar
    13    10    11   ar
    14    11    12    1
    15     4     5   ar
    16     5     6   ar
    17     6     1   ar
    18    11     7   ar
@<TRIPOS>MOLECULE
*****
 17 18 0 0 0
SMALL
GASTEIGER

@<TRIPOS>ATOM
      1 C          -9.5760  -18.1946   23.1852 C.ar    1  UNL1        0.1386
      2 C          -8.5959  -17.1656   22.7052 C.ar    1  UNL1        0.0370
      3 C          -7.2663  -17.5937   22.1586 C.ar    1  UNL1        0.0062
      4 C          -6.9167  -19.0508   22.0919 C.ar    1  UNL1        0.0371
      5 C          -7.8968  -20.0799   22.5719 C.ar    1  UNL1        0.0062
      6 C          -9.2264  -19.6518   23.1185 C.ar    1  UNL1        0.0370
      7 C          -5.5871  -19.4789   21.5453 C.ar    1  UNL1        0.1728
      8 O          -5.3672  -20.3893   20.3737 O.2     1  UNL1       -0.3537
      9 N          -3.8881  -20.5448   20.1786 N.ar    1  UNL1       -0.0757
     10 C          -3.1938  -19.7305   21.2297 C.ar    1  UNL1        0.1394
     11 C          -4.2438  -19.0717   22.0743 C.ar    1  UNL1        0.0377
     12 C          -3.9944  -18.1649   23.2429 C.3     1  UNL1        0.0361
     13 O         -10.9056  -17.7665   23.7318 O.3     1  UNL1       -0.4755
     14 C         -11.9254  -17.1460   22.8235 C.3     1  UNL1        0.2054
     15 C         -12.3374  -17.8516   21.5655 C.3     1  UNL1        0.0473
     16 C         -10.6692  -18.6681   19.7488 C.3     1  UNL1        0.0001
     17 C         -11.5854  -17.6110   20.2900 C.3     1  UNL1        0.0038
@<TRIPOS>BOND
     1    16    17    1
     2    17    15    1
     3    15    14    1
     4    14    13    1
     5    13     1    1
     6     1     2   ar
     7     2     3   ar
     8     3     4   ar
     9     4     7    1
    10     7     8   ar
    11     8     9   ar
    12     9    10   ar
    13    10    11   ar
    14    11    12    1
    15     4     5   ar
    16     5     6   ar
    17     6     1   ar
    18    11     7   ar
@<TRIPOS>MOLECULE
*****
 17 18 0 0 0
SMALL
GASTEIGER

@<TRIPOS>ATOM
      1 C          -5.3690  -19.4356   21.3382 C.ar    1  UNL1        0.1386
      2 C          -6.0280  -18.5050   22.3127 C.ar    1  UNL1        0.0370
      3 C          -7.4803  -18.1629   22.1583 C.ar    1  UNL1        0.0062
      4 C          -8.2736  -18.7514   21.0295 C.ar    1  UNL1        0.0371
      5 C          -7.6147  -19.6820   20.0550 C.ar    1  UNL1        0.0062
      6 C          -6.1624  -20.0241   20.2094 C.ar    1  UNL1        0.0370
      7 C          -9.7259  -18.4092   20.8752 C.ar    1  UNL1        0.1728
      8 O         -10.2982  -17.4034   19.9209 O.2     1  UNL1       -0.3537
      9 N         -11.7869  -17.3854   20.1039 N.ar    1  UNL1       -0.0757
     10 C         -12.1347  -18.3801   21.1715 C.ar    1  UNL1        0.1394
     11 C         -10.8609  -19.0129   21.6481 C.ar    1  UNL1        0.0377
     12 C         -10.7429  -20.0646   22.7111 C.3     1  UNL1        0.0361
     13 O          -3.9168  -19.7778   21.4925 O.3     1  UNL1       -0.4755
     14 C          -2.9676  -19.5506   20.3535 C.3     1  UNL1        0.2054
     15 C          -2.7607  -18.1663   19.8143 C.3     1  UNL1        0.0473
     16 C          -2.2574  -16.5410   21.7778 C.3     1  UNL1        0.0001
     17 C          -1.8277  -17.2213   20.5119 C.3     1  UNL1        0.0038
@<TRIPOS>BOND
     1    16    17    1
     2    17    15    1
     3    15    14    1
     4    14    13    1
     5    13     1    1
     6     1     2   ar
     7     2     3   ar
     8     3     4   ar
     9     4     7    1
    10     7     8   ar
    11     8     9   ar
    12     9    10   ar
    13    10    11   ar
    14    11    12    1
    15     4     5   ar
    16     5     6   ar
    17     6     1   ar
    18    11     7   ar
@<TRIPOS>MOLECULE
*****
 17 18 0 0 0
SMALL
GASTEIGER

@<TRIPOS>ATOM
      1 C         -10.0001  -18.2223   23.2749 C.ar    1  UNL1        0.1386
      2 C          -9.4822  -19.6180   23.0913 C.ar    1  UNL1        0.0370
      3 C          -8.0711  -19.8402   22.6334 C.ar    1  UNL1        0.0062
      4 C          -7.1781  -18.6667   22.3591 C.ar    1  UNL1        0.0371
      5 C          -7.6960  -17.2710   22.5428 C.ar    1  UNL1        0.0062
      6 C          -9.1070  -17.0488   23.0006 C.ar    1  UNL1        0.0370
      7 C          -5.7670  -18.8889   21.9013 C.ar    1  UNL1        0.1728
      8 O          -4.5671  -18.0950   22.3253 O.2     1  UNL1       -0.3537
      9 N          -3.3667  -18.6594   21.6251 N.ar    1  UNL1       -0.0757
     10 C          -3.8247  -19.8022   20.7682 C.ar    1  UNL1        0.1394
     11 C          -5.3082  -19.9440   20.9389 C.ar    1  UNL1        0.0377
     12 C          -6.1798  -20.9622   20.2654 C.3     1  UNL1        0.0361
     13 O         -11.4111  -18.0001   23.7328 O.3     1  UNL1       -0.4755
     14 C         -12.4033  -17.3485   22.8158 C.3     1  UNL1        0.2054
     15 C         -12.5920  -17.8703   21.4223 C.3     1  UNL1        0.0473
     16 C         -10.7208  -18.4271   19.7079 C.3     1  UNL1        0.0001
     17 C         -11.6629  -17.4375   20.3271 C.3     1  UNL1        0.0038
@<TRIPOS>BOND
     1    16    17    1
     2    17    15    1
     3    15    14    1
     4    14    13    1
     5    13     1    1
     6     1     2   ar
     7     2     3   ar
     8     3     4   ar
     9     4     7    1
    10     7     8   ar
    11     8     9   ar
    12     9    10   ar
    13    10    11   ar
    14    11    12    1
    15     4     5   ar
    16     5     6   ar
    17     6     1   ar
    18    11     7   ar
@<TRIPOS>MOLECULE
*****
 17 18 0 0 0
SMALL
GASTEIGER

@<TRIPOS>ATOM
      1 C          -6.8429  -18.1742   22.3363 C.ar    1  UNL1        0.1386
      2 C          -7.6796  -19.3901   22.0691 C.ar    1  UNL1        0.0370
      3 C          -9.1229  -19.4119   22.4772 C.ar    1  UNL1        0.0062
      4 C          -9.7294  -18.2177   23.1525 C.ar    1  UNL1        0.0371
      5 C          -8.8927  -17.0018   23.4197 C.ar    1  UNL1        0.0062
      6 C          -7.4495  -16.9801   23.0116 C.ar    1  UNL1        0.0370
      7 C         -11.1727  -18.2395   23.5606 C.ar    1  UNL1        0.1728
      8 O         -11.7202  -18.8119   24.8343 O.2     1  UNL1       -0.3537
      9 N         -13.2078  -18.6189   24.8276 N.ar    1  UNL1       -0.0757
     10 C         -13.5796  -17.9272   23.5496 C.ar    1  UNL1        0.1394
     11 C         -12.3218  -17.6927   22.7666 C.ar    1  UNL1        0.0377
     12 C         -12.2294  -17.0281   21.4250 C.3     1  UNL1        0.0361
     13 O          -5.3997  -18.1524   21.9282 O.3     1  UNL1       -0.4755
     14 C          -4.4923  -19.2807   22.3202 C.3     1  UNL1        0.2054
     15 C          -3.5761  -19.8943   21.3033 C.3     1  UNL1        0.0473
     16 C          -1.5537  -18.3158   20.8932 C.3     1  UNL1        0.0001
     17 C          -2.7791  -19.0158   20.3850 C.3     1  UNL1        0.0038
@<TRIPOS>BOND
     1    16    17    1
     2    17    15    1
     3    15    14    1
     4    14    13    1
     5    13     1    1
     6     1     2   ar
     7     2     3   ar
     8     3     4   ar
     9     4     7    1
    10     7     8   ar
    11     8     9   ar
    12     9    10   ar
    13    10    11   ar
    14    11    12    1
    15     4     5   ar
    16     5     6   ar
    17     6     1   ar
    18    11     7   ar
@<TRIPOS>MOLECULE
*****
 17 18 0 0 0
SMALL
GASTEIGER

@<TRIPOS>ATOM
      1 C          -6.1985  -17.7091   22.6761 C.ar    1  UNL1        0.1386
      2 C          -7.0241  -16.5899   23.2380 C.ar    1  UNL1        0.0370
      3 C          -8.4903  -16.5122   22.9309 C.ar    1  UNL1        0.0062
      4 C          -9.1308  -17.5536   22.0620 C.ar    1  UNL1        0.0371
      5 C          -8.3052  -18.6728   21.5001 C.ar    1  UNL1        0.0062
      6 C          -6.8390  -18.7505   21.8072 C.ar    1  UNL1        0.0370
      7 C         -10.5970  -17.4759   21.7550 C.ar    1  UNL1        0.1728
      8 O         -11.2106  -16.8559   20.5347 O.2     1  UNL1       -0.3537
      9 N         -12.6998  -17.0013   20.6398 N.ar    1  UNL1       -0.0757
     10 C         -13.0067  -17.7112   21.9251 C.ar    1  UNL1        0.1394
     11 C         -11.7070  -18.0045   22.6143 C.ar    1  UNL1        0.0377
     12 C         -11.5458  -18.7037   23.9315 C.3     1  UNL1        0.0361
     13 O          -4.7323  -17.7868   22.9832 O.3     1  UNL1       -0.4755
     14 C          -3.9175  -18.9350   22.4658 C.3     1  UNL1        0.2054
     15 C          -2.9816  -18.7306   21.3115 C.3     1  UNL1        0.0473
     16 C          -4.1689  -20.5835   19.9305 C.3     1  UNL1        0.0001
     17 C          -3.2596  -19.3922   19.9943 C.3     1  UNL1        0.0038
@<TRIPOS>BOND
     1    16    17    1
     2    17    15    1
     3    15    14    1
     4    14    13    1
     5    13     1    1
     6     1     2   ar
     7     2     3   ar
     8     3     4   ar
     9     4     7    1
    10     7     8   ar
    11     8     9   ar
    12     9    10   ar
    13    10    11   ar
    14    11    12    1
    15     4     5   ar
    16     5     6   ar
    17     6     1   ar
    18    11     7   ar
@<TRIPOS>MOLECULE
*****
 17 18 0 0 0
SMALL
GASTEIGER

@<TRIPOS>ATOM
      1 C          -6.5611  -19.6477   20.5438 C.ar    1  UNL1        0.1386
      2 C          -7.7551  -19.7799   19.6456 C.ar    1  UNL1        0.0370
      3 C          -9.1123  -19.3720   20.1373 C.ar    1  UNL1        0.0062
      4 C          -9.2755  -18.8320   21.5271 C.ar    1  UNL1        0.0371
      5 C          -8.0814  -18.6998   22.4253 C.ar    1  UNL1        0.0062
      6 C          -6.7243  -19.1077   21.9337 C.ar    1  UNL1        0.0370
      7 C         -10.6326  -18.4241   22.0187 C.ar    1  UNL1        0.1728
      8 O         -11.3156  -18.9393   23.2508 O.2     1  UNL1       -0.3537
      9 N         -12.6502  -18.2630   23.3582 N.ar    1  UNL1       -0.0757
     10 C         -12.7921  -17.3299   22.1924 C.ar    1  UNL1        0.1394
     11 C         -11.5452  -17.4295   21.3645 C.ar    1  UNL1        0.0377
     12 C         -11.2607  -16.6680   20.1039 C.3     1  UNL1        0.0361
     13 O          -5.2039  -20.0556   20.0522 O.3     1  UNL1       -0.4755
     14 C          -4.1939  -19.0095   19.6841 C.3     1  UNL1        0.2054
     15 C          -2.8171  -19.0544   20.2777 C.3     1  UNL1        0.0473
     16 C          -2.5800  -18.0077   22.6438 C.3     1  UNL1        0.0001
     17 C          -2.6439  -19.2171   21.7588 C.3     1  UNL1        0.0038
@<TRIPOS>BOND
     1    16    17    1
     2    17    15    1
     3    15    14    1
     4    14    13    1
     5    13     1    1
     6     1     2   ar
     7     2     3   ar
     8     3     4   ar
     9     4     7    1
    10     7     8   ar
    11     8     9   ar
    12     9    10   ar
    13    10    11   ar
    14    11    12    1
    15     4     5   ar
    16     5     6   ar
    17     6     1   ar
    18    11     7   ar
@<TRIPOS>MOLECULE
*****
 17 18 0 0 0
SMALL
GASTEIGER

@<TRIPOS>ATOM
      1 C         -10.5189  -17.2063   22.3158 C.ar    1  UNL1        0.1386
      2 C          -9.4841  -16.2734   21.7601 C.ar    1  UNL1        0.0370
      3 C          -8.3939  -15.7486   22.6467 C.ar    1  UNL1        0.0062
      4 C          -8.3386  -16.1565   24.0891 C.ar    1  UNL1        0.0371
      5 C          -9.3734  -17.0894   24.6448 C.ar    1  UNL1        0.0062
      6 C         -10.4635  -17.6143   23.7582 C.ar    1  UNL1        0.0370
      7 C          -7.2484  -15.6317   24.9757 C.ar    1  UNL1        0.1728
      8 O          -5.9719  -14.9905   24.5182 O.2     1  UNL1       -0.3537
      9 N          -5.1779  -14.6183   25.7352 N.ar    1  UNL1       -0.0757
     10 C          -5.9637  -15.0296   26.9449 C.ar    1  UNL1        0.1394
     11 C          -7.2434  -15.6559   26.4755 C.ar    1  UNL1        0.0377
     12 C          -8.3276  -16.2092   27.3520 C.3     1  UNL1        0.0361
     13 O         -11.6090  -17.7311   21.4292 O.3     1  UNL1       -0.4755
     14 C         -11.3913  -17.8248   19.9481 C.3     1  UNL1        0.2054
     15 C         -10.7353  -19.0396   19.3617 C.3     1  UNL1        0.0473
     16 C          -8.2157  -19.4562   19.8397 C.3     1  UNL1        0.0001
     17 C          -9.6583  -19.7523   20.1248 C.3     1  UNL1        0.0038
@<TRIPOS>BOND
     1    16    17    1
     2    17    15    1
     3    15    14    1
     4    14    13    1
     5    13     1    1
     6     1     2   ar
     7     2     3   ar
     8     3     4   ar
     9     4     7    1
    10     7     8   ar
    11     8     9   ar
    12     9    10   ar
    13    10    11   ar
    14    11    12    1
    15     4     5   ar
    16     5     6   ar
    17     6     1   ar
    18    11     7   ar
