@<TRIPOS>MOLECULE
*****
 38 42 0 0 0
SMALL
GASTEIGER

@<TRIPOS>ATOM
      1 C          -0.0970    5.5927   20.6630 C.3     1  UNL1        0.0972
      2 C           1.1366    5.3571   21.4831 C.3     1  UNL1        0.0431
      3 C           0.7308    4.6357   22.7341 C.3     1  UNL1        0.0968
      4 N          -0.7537    4.4253   22.6870 N.am    1  UNL1       -0.2623
      5 C          -1.5812    3.7433   23.7358 C.2     1  UNL1        0.3073
      6 O          -3.0633    3.6062   23.5499 O.2     1  UNL1       -0.2523
      7 N          -0.9266    3.1983   24.9705 N.am    1  UNL1       -0.2626
      8 C           0.5370    3.2605   25.2932 C.3     1  UNL1        0.0964
      9 C           0.7475    2.5961   26.6214 C.3     1  UNL1        0.0390
     10 C          -0.5860    2.1232   27.1196 C.3     1  UNL1        0.0758
     11 C          -1.6207    2.4953   26.0993 C.3     1  UNL1        0.1106
     12 C          -1.2653    5.0168   21.4070 C.3     1  UNL1        0.1147
     13 C           0.3985    5.6059   18.1126 C.2     1  UNL1        0.2491
     14 O           0.3428    6.2961   16.7820 O.2     1  UNL1       -0.2699
     15 N          -0.1527    6.2829   19.3323 N.am    1  UNL1       -0.2742
     16 C          -0.7595    7.6502   19.2215 C.3     1  UNL1        0.1152
     17 C           2.2190    1.5040   18.4450 C.ar    1  UNL1        0.0000
     18 C           3.1011    2.7170   18.4293 C.ar    1  UNL1        0.0001
     19 C           2.4943    4.0843   18.3184 C.ar    1  UNL1        0.0045
     20 C           1.0053    4.2386   18.2234 C.ar    1  UNL1        0.0536
     21 C           0.1232    3.0256   18.2392 C.ar    1  UNL1        0.0045
     22 C           0.7300    1.6583   18.3500 C.ar    1  UNL1        0.0001
     23 C           4.0394   -2.5979   18.7775 C.ar    1  UNL1       -0.0222
     24 C           4.4072   -1.7049   17.6297 C.ar    1  UNL1       -0.0043
     25 C           3.8004   -0.3376   17.5189 C.ar    1  UNL1       -0.0003
     26 C           2.8258    0.1367   18.5558 C.ar    1  UNL1       -0.0000
     27 C           2.4581   -0.7563   19.7036 C.ar    1  UNL1       -0.0003
     28 C           3.0649   -2.1236   19.8144 C.ar    1  UNL1       -0.0043
     29 C           3.8079   -5.1232   19.3421 C.3     1  UNL1        0.0050
     30 C           4.6463   -3.9651   18.8883 C.3     1  UNL1        0.0264
     31 N          -0.8403    1.4043   28.4113 N.3     1  UNL1       -0.2980
     32 H          -1.2890    0.5199   28.1727 H       1  UNL1        0.1232
     33 C           0.3033    1.0770   29.3251 C.3     1  UNL1        0.0590
     34 C           0.6472    1.9998   30.4565 C.3     1  UNL1        0.0478
     35 C           1.7908    1.6725   31.3703 C.3     1  UNL1        0.1435
     36 O           2.5905    0.4223   31.1528 O.3     1  UNL1       -0.3537
     37 C           2.2467   -0.5007   30.0214 C.3     1  UNL1        0.1435
     38 C           1.1031   -0.1733   29.1075 C.3     1  UNL1        0.0478
@<TRIPOS>BOND
     1    29    30    1
     2    30    23    1
     3    23    24   ar
     4    24    25   ar
     5    25    26   ar
     6    26    17    1
     7    17    18   ar
     8    18    19   ar
     9    19    20   ar
    10    20    13    1
    11    13    14    2
    12    13    15   am
    13    15    16    1
    14     1    15    1
    15     1     2    1
    16     2     3    1
    17     3     4    1
    18     4     5   am
    19     5     6    2
    20     5     7   am
    21     7     8    1
    22     8     9    1
    23     9    10    1
    24    10    31    1
    25    31    33    1
    26    33    34    1
    27    34    35    1
    28    35    36    1
    29    36    37    1
    30    37    38    1
    31    10    11    1
    32     4    12    1
    33    20    21   ar
    34    21    22   ar
    35    26    27   ar
    36    27    28   ar
    37    28    23   ar
    38    22    17   ar
    39    12     1    1
    40    11     7    1
    41    38    33    1
    42    31    32    1
@<TRIPOS>MOLECULE
*****
 38 42 0 0 0
SMALL
GASTEIGER

@<TRIPOS>ATOM
      1 C           4.2111   -0.3056   19.5247 C.3     1  UNL1        0.0972
      2 C           2.8942   -0.8736   19.9642 C.3     1  UNL1        0.0431
      3 C           2.4376   -0.1065   21.1697 C.3     1  UNL1        0.0968
      4 N           3.4724    0.9356   21.4753 N.am    1  UNL1       -0.2623
      5 C           3.4203    1.9267   22.6000 C.2     1  UNL1        0.3073
      6 O           4.5347    2.9141   22.7818 O.2     1  UNL1       -0.2523
      7 N           2.2537    1.9303   23.5430 N.am    1  UNL1       -0.2626
      8 C           1.0718    1.0083   23.4869 C.3     1  UNL1        0.0964
      9 C           0.1519    1.3647   24.6168 C.3     1  UNL1        0.0390
     10 C           0.7653    2.5070   25.3711 C.3     1  UNL1        0.0758
     11 C           2.0642    2.8566   24.7075 C.3     1  UNL1        0.1106
     12 C           4.5685    0.8125   20.4586 C.3     1  UNL1        0.1147
     13 C           6.0671   -1.8379   18.5463 C.2     1  UNL1        0.2491
     14 O           6.8833   -2.3058   17.3780 O.2     1  UNL1       -0.2699
     15 N           5.0274   -0.7735   18.3565 N.am    1  UNL1       -0.2742
     16 C           4.8039   -0.1771   16.9984 C.3     1  UNL1        0.1152
     17 C           6.7376   -3.6272   22.6204 C.ar    1  UNL1        0.0000
     18 C           5.6205   -4.1301   21.7550 C.ar    1  UNL1        0.0001
     19 C           5.3969   -3.5337   20.3970 C.ar    1  UNL1        0.0045
     20 C           6.2906   -2.4343   19.9043 C.ar    1  UNL1        0.0536
     21 C           7.4078   -1.9314   20.7697 C.ar    1  UNL1        0.0045
     22 C           7.6313   -2.5279   22.1278 C.ar    1  UNL1        0.0001
     23 C           7.4082   -5.4166   26.6946 C.ar    1  UNL1       -0.0222
     24 C           7.8135   -6.1758   25.4660 C.ar    1  UNL1       -0.0043
     25 C           7.5899   -5.5793   24.1080 C.ar    1  UNL1       -0.0003
     26 C           6.9612   -4.2237   23.9785 C.ar    1  UNL1       -0.0000
     27 C           6.5559   -3.4645   25.2070 C.ar    1  UNL1       -0.0003
     28 C           6.7794   -4.0610   26.5650 C.ar    1  UNL1       -0.0043
     29 C           6.8469   -5.5139   29.2294 C.3     1  UNL1        0.0050
     30 C           7.6317   -6.0130   28.0526 C.3     1  UNL1        0.0264
     31 N           0.1820    3.1814   26.5774 N.3     1  UNL1       -0.2980
     32 H          -0.7313    3.5415   26.3006 H       1  UNL1        0.1232
     33 C          -0.0243    2.4052   27.8442 C.3     1  UNL1        0.0590
     34 C           0.7345    2.7767   29.0835 C.3     1  UNL1        0.0478
     35 C           0.5282    2.0004   30.3504 C.3     1  UNL1        0.1435
     36 O          -0.4371    0.8526   30.3778 O.3     1  UNL1       -0.3537
     37 C          -1.1960    0.4811   29.1385 C.3     1  UNL1        0.1435
     38 C          -0.9897    1.2574   27.8716 C.3     1  UNL1        0.0478
@<TRIPOS>BOND
     1    29    30    1
     2    30    23    1
     3    23    24   ar
     4    24    25   ar
     5    25    26   ar
     6    26    17    1
     7    17    18   ar
     8    18    19   ar
     9    19    20   ar
    10    20    13    1
    11    13    14    2
    12    13    15   am
    13    15    16    1
    14     1    15    1
    15     1     2    1
    16     2     3    1
    17     3     4    1
    18     4     5   am
    19     5     6    2
    20     5     7   am
    21     7     8    1
    22     8     9    1
    23     9    10    1
    24    10    31    1
    25    31    33    1
    26    33    34    1
    27    34    35    1
    28    35    36    1
    29    36    37    1
    30    37    38    1
    31    10    11    1
    32     4    12    1
    33    20    21   ar
    34    21    22   ar
    35    26    27   ar
    36    27    28   ar
    37    28    23   ar
    38    22    17   ar
    39    12     1    1
    40    11     7    1
    41    38    33    1
    42    31    32    1
@<TRIPOS>MOLECULE
*****
 38 42 0 0 0
SMALL
GASTEIGER

@<TRIPOS>ATOM
      1 C          -0.8541    4.2054   23.9213 C.3     1  UNL1        0.0972
      2 C          -1.7920    3.1883   24.5007 C.3     1  UNL1        0.0431
      3 C          -1.0732    2.4705   25.6043 C.3     1  UNL1        0.0968
      4 N           0.3091    3.0440   25.7071 N.am    1  UNL1       -0.2623
      5 C           1.3696    2.6198   26.6792 C.2     1  UNL1        0.3073
      6 O           2.7122    3.2886   26.6636 O.2     1  UNL1       -0.2523
      7 N           1.0877    1.5268   27.6671 N.am    1  UNL1       -0.2626
      8 C          -0.2006    0.7701   27.8009 C.3     1  UNL1        0.0964
      9 C          -0.0400   -0.2258   28.9110 C.3     1  UNL1        0.0390
     10 C           1.3475   -0.0846   29.4633 C.3     1  UNL1        0.0758
     11 C           2.0444    0.9985   28.6945 C.3     1  UNL1        0.1106
     12 C           0.4444    4.1163   24.6669 C.3     1  UNL1        0.1147
     13 C          -0.6615    4.8488   21.4115 C.2     1  UNL1        0.2491
     14 O          -0.9682    5.7899   20.2845 O.2     1  UNL1       -0.2699
     15 N          -1.1609    5.1466   22.7942 N.am    1  UNL1       -0.2742
     16 C          -1.9670    6.3854   23.0499 C.3     1  UNL1        0.1152
     17 C           1.7569    1.1322   20.6444 C.ar    1  UNL1        0.0000
     18 C           2.4489    2.4280   20.9475 C.ar    1  UNL1        0.0001
     19 C           1.6428    3.6669   21.2032 C.ar    1  UNL1        0.0045
     20 C           0.1446    3.6100   21.1558 C.ar    1  UNL1        0.0536
     21 C          -0.5474    2.3141   20.8528 C.ar    1  UNL1        0.0045
     22 C           0.2587    1.0753   20.5971 C.ar    1  UNL1        0.0001
     23 C           4.1752   -2.5844   19.8773 C.ar    1  UNL1       -0.0222
     24 C           3.7323   -1.7274   18.7287 C.ar    1  UNL1       -0.0043
     25 C           2.9262   -0.4885   18.9844 C.ar    1  UNL1       -0.0003
     26 C           2.5630   -0.1067   20.3887 C.ar    1  UNL1       -0.0000
     27 C           3.0058   -0.9637   21.5373 C.ar    1  UNL1       -0.0003
     28 C           3.8119   -2.2025   21.2816 C.ar    1  UNL1       -0.0043
     29 C           4.3635   -4.9846   18.9008 C.3     1  UNL1        0.0050
     30 C           4.9813   -3.8233   19.6216 C.3     1  UNL1        0.0264
     31 N           1.9349   -0.8859   30.5871 N.3     1  UNL1       -0.2980
     32 H           2.1874   -1.7951   30.1998 H       1  UNL1        0.1232
     33 C           3.1406   -0.3775   31.3203 C.3     1  UNL1        0.0590
     34 C           2.9822    0.6446   32.4066 C.3     1  UNL1        0.0478
     35 C           4.1880    1.1530   33.1398 C.3     1  UNL1        0.1435
     36 O           5.5523    0.6392   32.7868 O.3     1  UNL1       -0.3537
     37 C           5.7108   -0.3829   31.7005 C.3     1  UNL1        0.1435
     38 C           4.5050   -0.8913   30.9672 C.3     1  UNL1        0.0478
@<TRIPOS>BOND
     1    29    30    1
     2    30    23    1
     3    23    24   ar
     4    24    25   ar
     5    25    26   ar
     6    26    17    1
     7    17    18   ar
     8    18    19   ar
     9    19    20   ar
    10    20    13    1
    11    13    14    2
    12    13    15   am
    13    15    16    1
    14     1    15    1
    15     1     2    1
    16     2     3    1
    17     3     4    1
    18     4     5   am
    19     5     6    2
    20     5     7   am
    21     7     8    1
    22     8     9    1
    23     9    10    1
    24    10    31    1
    25    31    33    1
    26    33    34    1
    27    34    35    1
    28    35    36    1
    29    36    37    1
    30    37    38    1
    31    10    11    1
    32     4    12    1
    33    20    21   ar
    34    21    22   ar
    35    26    27   ar
    36    27    28   ar
    37    28    23   ar
    38    22    17   ar
    39    12     1    1
    40    11     7    1
    41    38    33    1
    42    31    32    1
@<TRIPOS>MOLECULE
*****
 38 42 0 0 0
SMALL
GASTEIGER

@<TRIPOS>ATOM
      1 C           0.9397    3.8140   27.7131 C.3     1  UNL1        0.0972
      2 C           2.4219    4.0323   27.6405 C.3     1  UNL1        0.0431
      3 C           3.0916    2.9200   28.3916 C.3     1  UNL1        0.0968
      4 N           2.0233    2.0142   28.9285 N.am    1  UNL1       -0.2623
      5 C           2.2459    0.7737   29.7419 C.2     1  UNL1        0.3073
      6 O           1.0735   -0.0355   30.2115 O.2     1  UNL1       -0.2523
      7 N           3.6408    0.3425   30.0857 N.am    1  UNL1       -0.2626
      8 C           4.9044    1.0466   29.6884 C.3     1  UNL1        0.0964
      9 C           6.0617    0.2708   30.2442 C.3     1  UNL1        0.0390
     10 C           5.5133   -0.9127   30.9850 C.3     1  UNL1        0.0758
     11 C           4.0172   -0.8683   30.8870 C.3     1  UNL1        0.1106
     12 C           0.6933    2.5668   28.5092 C.3     1  UNL1        0.1147
     13 C          -0.4971    4.5013   25.6604 C.2     1  UNL1        0.2491
     14 O          -1.5484    5.3765   25.0452 O.2     1  UNL1       -0.2699
     15 N          -0.1117    4.6893   27.0978 N.am    1  UNL1       -0.2742
     16 C          -0.7777    5.7526   27.9199 C.3     1  UNL1        0.1152
     17 C           1.5008    1.3113   23.1941 C.ar    1  UNL1        0.0000
     18 C           0.4151    0.9419   24.1609 C.ar    1  UNL1        0.0001
     19 C          -0.2509    2.0052   24.9830 C.ar    1  UNL1        0.0045
     20 C           0.1689    3.4379   24.8383 C.ar    1  UNL1        0.0536
     21 C           1.2546    3.8074   23.8716 C.ar    1  UNL1        0.0045
     22 C           1.9206    2.7440   23.0495 C.ar    1  UNL1        0.0001
     23 C           3.4986   -1.8787   20.7278 C.ar    1  UNL1       -0.0222
     24 C           3.8121   -1.7544   22.1894 C.ar    1  UNL1       -0.0043
     25 C           3.1461   -0.6911   23.0115 C.ar    1  UNL1       -0.0003
     26 C           2.1667    0.2480   22.3720 C.ar    1  UNL1       -0.0000
     27 C           1.8533    0.1237   20.9104 C.ar    1  UNL1       -0.0003
     28 C           2.5193   -0.9397   20.0883 C.ar    1  UNL1       -0.0043
     29 C           3.3400   -4.0108   19.2517 C.3     1  UNL1        0.0050
     30 C           4.1646   -2.9420   19.9057 C.3     1  UNL1        0.0264
     31 N           6.3195   -1.9571   31.6985 N.3     1  UNL1       -0.2980
     32 H           5.8469   -2.1401   32.5837 H       1  UNL1        0.1232
     33 C           6.5603   -3.2894   31.0528 C.3     1  UNL1        0.0590
     34 C           6.9004   -4.4816   31.8970 C.3     1  UNL1        0.0478
     35 C           7.1412   -5.8139   31.2513 C.3     1  UNL1        0.1435
     36 O           7.0421   -5.9540   29.7612 O.3     1  UNL1       -0.3537
     37 C           6.7020   -4.7618   28.9168 C.3     1  UNL1        0.1435
     38 C           6.4612   -3.4294   29.5626 C.3     1  UNL1        0.0478
@<TRIPOS>BOND
     1    29    30    1
     2    30    23    1
     3    23    24   ar
     4    24    25   ar
     5    25    26   ar
     6    26    17    1
     7    17    18   ar
     8    18    19   ar
     9    19    20   ar
    10    20    13    1
    11    13    14    2
    12    13    15   am
    13    15    16    1
    14     1    15    1
    15     1     2    1
    16     2     3    1
    17     3     4    1
    18     4     5   am
    19     5     6    2
    20     5     7   am
    21     7     8    1
    22     8     9    1
    23     9    10    1
    24    10    31    1
    25    31    33    1
    26    33    34    1
    27    34    35    1
    28    35    36    1
    29    36    37    1
    30    37    38    1
    31    10    11    1
    32     4    12    1
    33    20    21   ar
    34    21    22   ar
    35    26    27   ar
    36    27    28   ar
    37    28    23   ar
    38    22    17   ar
    39    12     1    1
    40    11     7    1
    41    38    33    1
    42    31    32    1
@<TRIPOS>MOLECULE
*****
 38 42 0 0 0
SMALL
GASTEIGER

@<TRIPOS>ATOM
      1 C           3.6420    1.8218   33.8005 C.3     1  UNL1        0.0972
      2 C           4.5590    2.2381   32.6888 C.3     1  UNL1        0.0431
      3 C           3.7407    2.3726   31.4388 C.3     1  UNL1        0.0968
      4 N           2.3180    2.0395   31.7780 N.am    1  UNL1       -0.2623
      5 C           1.1597    2.0457   30.8250 C.2     1  UNL1        0.3073
      6 O          -0.2135    1.6883   31.3113 O.2     1  UNL1       -0.2523
      7 N           1.3746    2.4093   29.3857 N.am    1  UNL1       -0.2626
      8 C           2.6835    2.7871   28.7577 C.3     1  UNL1        0.0964
      9 C           2.4363    3.0703   27.3056 C.3     1  UNL1        0.0390
     10 C           0.9746    2.8675   27.0361 C.3     1  UNL1        0.0758
     11 C           0.3185    2.4590   28.3217 C.3     1  UNL1        0.1106
     12 C           2.2570    1.6991   33.2376 C.3     1  UNL1        0.1147
     13 C           4.8467    0.3572   35.5764 C.2     1  UNL1        0.2491
     14 O           5.2447    0.1075   37.0008 O.2     1  UNL1       -0.2699
     15 N           4.0401    1.5721   35.2250 N.am    1  UNL1       -0.2742
     16 C           3.6317    2.5373   36.2981 C.3     1  UNL1        0.1152
     17 C           6.0721   -2.5384   32.3571 C.ar    1  UNL1        0.0000
     18 C           4.6816   -2.5845   32.9176 C.ar    1  UNL1        0.0001
     19 C           4.2731   -1.6193   33.9907 C.ar    1  UNL1        0.0045
     20 C           5.2551   -0.6080   34.5033 C.ar    1  UNL1        0.0536
     21 C           6.6457   -0.5619   33.9428 C.ar    1  UNL1        0.0045
     22 C           7.0541   -1.5271   32.8697 C.ar    1  UNL1        0.0001
     23 C           7.2975   -5.4341   29.1378 C.ar    1  UNL1       -0.0222
     24 C           7.3089   -5.8620   30.5754 C.ar    1  UNL1       -0.0043
     25 C           6.9004   -4.8968   31.6485 C.ar    1  UNL1       -0.0003
     26 C           6.4805   -3.5037   31.2840 C.ar    1  UNL1       -0.0000
     27 C           6.4691   -3.0758   29.8464 C.ar    1  UNL1       -0.0003
     28 C           6.8776   -4.0410   28.7733 C.ar    1  UNL1       -0.0043
     29 C           6.9733   -6.4200   26.7561 C.3     1  UNL1        0.0050
     30 C           7.7060   -6.3993   28.0648 C.3     1  UNL1        0.0264
     31 N           0.2894    3.0425   25.7133 N.3     1  UNL1       -0.2980
     32 H           0.0835    2.1071   25.3624 H       1  UNL1        0.1232
     33 C          -0.9857    3.8277   25.6273 C.3     1  UNL1        0.0590
     34 C          -2.1572    3.2754   24.8708 C.3     1  UNL1        0.0478
     35 C          -3.4323    4.0606   24.7847 C.3     1  UNL1        0.1435
     36 O          -3.5359    5.3984   25.4553 O.3     1  UNL1       -0.3537
     37 C          -2.3644    5.9509   26.2118 C.3     1  UNL1        0.1435
     38 C          -1.0893    5.1656   26.2979 C.3     1  UNL1        0.0478
@<TRIPOS>BOND
     1    29    30    1
     2    30    23    1
     3    23    24   ar
     4    24    25   ar
     5    25    26   ar
     6    26    17    1
     7    17    18   ar
     8    18    19   ar
     9    19    20   ar
    10    20    13    1
    11    13    14    2
    12    13    15   am
    13    15    16    1
    14     1    15    1
    15     1     2    1
    16     2     3    1
    17     3     4    1
    18     4     5   am
    19     5     6    2
    20     5     7   am
    21     7     8    1
    22     8     9    1
    23     9    10    1
    24    10    31    1
    25    31    33    1
    26    33    34    1
    27    34    35    1
    28    35    36    1
    29    36    37    1
    30    37    38    1
    31    10    11    1
    32     4    12    1
    33    20    21   ar
    34    21    22   ar
    35    26    27   ar
    36    27    28   ar
    37    28    23   ar
    38    22    17   ar
    39    12     1    1
    40    11     7    1
    41    38    33    1
    42    31    32    1
@<TRIPOS>MOLECULE
*****
 38 42 0 0 0
SMALL
GASTEIGER

@<TRIPOS>ATOM
      1 C           3.2396    0.2347   29.0931 C.3     1  UNL1        0.0972
      2 C           2.8518   -1.0116   28.3539 C.3     1  UNL1        0.0431
      3 C           3.4220   -0.9257   26.9692 C.3     1  UNL1        0.0968
      4 N           4.1623    0.3738   26.8525 N.am    1  UNL1       -0.2623
      5 C           4.8878    0.8691   25.6367 C.2     1  UNL1        0.3073
      6 O           5.5864    2.1961   25.6689 O.2     1  UNL1       -0.2523
      7 N           4.9148    0.0374   24.3886 N.am    1  UNL1       -0.2626
      8 C           4.2653   -1.3027   24.2080 C.3     1  UNL1        0.0964
      9 C           4.5450   -1.7686   22.8099 C.3     1  UNL1        0.0390
     10 C           5.3673   -0.7164   22.1265 C.3     1  UNL1        0.0758
     11 C           5.5958    0.3997   23.1022 C.3     1  UNL1        0.1106
     12 C           4.0495    1.0909   28.1651 C.3     1  UNL1        0.1147
     13 C           1.6356    1.3495   30.8061 C.2     1  UNL1        0.2491
     14 O           1.2766    1.6813   32.2241 O.2     1  UNL1       -0.2699
     15 N           2.8806    0.5666   30.5112 N.am    1  UNL1       -0.2742
     16 C           3.7666    0.1156   31.6344 C.3     1  UNL1        0.1152
     17 C          -1.0225    2.7026   27.4365 C.ar    1  UNL1        0.0000
     18 C          -1.1871    1.3291   28.0165 C.ar    1  UNL1        0.0001
     19 C          -0.3011    0.8781   29.1397 C.ar    1  UNL1        0.0045
     20 C           0.7496    1.8005   29.6829 C.ar    1  UNL1        0.0536
     21 C           0.9142    3.1740   29.1029 C.ar    1  UNL1        0.0045
     22 C           0.0282    3.6250   27.9798 C.ar    1  UNL1        0.0001
     23 C          -3.6806    4.0557   24.0670 C.ar    1  UNL1       -0.0222
     24 C          -2.2885    3.5775   23.7784 C.ar    1  UNL1       -0.0043
     25 C          -1.4024    3.1264   24.9016 C.ar    1  UNL1       -0.0003
     26 C          -1.9085    3.1536   26.3134 C.ar    1  UNL1       -0.0000
     27 C          -3.3006    3.6318   26.6019 C.ar    1  UNL1       -0.0003
     28 C          -4.1866    4.0829   25.4788 C.ar    1  UNL1       -0.0043
     29 C          -5.7556    3.6820   22.5490 C.3     1  UNL1        0.0050
     30 C          -4.5666    4.5067   22.9438 C.3     1  UNL1        0.0264
     31 N           5.8724   -0.7709   20.7151 N.3     1  UNL1       -0.2980
     32 H           6.3034   -1.6870   20.5918 H       1  UNL1        0.1232
     33 C           4.9215   -0.5820   19.5705 C.3     1  UNL1        0.0590
     34 C           5.2101   -1.2179   18.2430 C.3     1  UNL1        0.0478
     35 C           4.2592   -1.0290   17.0983 C.3     1  UNL1        0.1435
     36 O           3.0198   -0.2043   17.2812 O.3     1  UNL1       -0.3537
     37 C           2.7311    0.4317   18.6087 C.3     1  UNL1        0.1435
     38 C           3.6820    0.2428   19.7534 C.3     1  UNL1        0.0478
@<TRIPOS>BOND
     1    29    30    1
     2    30    23    1
     3    23    24   ar
     4    24    25   ar
     5    25    26   ar
     6    26    17    1
     7    17    18   ar
     8    18    19   ar
     9    19    20   ar
    10    20    13    1
    11    13    14    2
    12    13    15   am
    13    15    16    1
    14     1    15    1
    15     1     2    1
    16     2     3    1
    17     3     4    1
    18     4     5   am
    19     5     6    2
    20     5     7   am
    21     7     8    1
    22     8     9    1
    23     9    10    1
    24    10    31    1
    25    31    33    1
    26    33    34    1
    27    34    35    1
    28    35    36    1
    29    36    37    1
    30    37    38    1
    31    10    11    1
    32     4    12    1
    33    20    21   ar
    34    21    22   ar
    35    26    27   ar
    36    27    28   ar
    37    28    23   ar
    38    22    17   ar
    39    12     1    1
    40    11     7    1
    41    38    33    1
    42    31    32    1
@<TRIPOS>MOLECULE
*****
 38 42 0 0 0
SMALL
GASTEIGER

@<TRIPOS>ATOM
      1 C           3.5205    1.5665   33.0040 C.3     1  UNL1        0.0972
      2 C           4.4352    2.2925   32.0626 C.3     1  UNL1        0.0431
      3 C           3.8932    2.1314   30.6732 C.3     1  UNL1        0.0968
      4 N           2.6435    1.3059   30.7559 N.am    1  UNL1       -0.2623
      5 C           1.7765    0.9006   29.6010 C.2     1  UNL1        0.3073
      6 O           0.5508    0.0693   29.8388 O.2     1  UNL1       -0.2523
      7 N           2.1351    1.3267   28.2082 N.am    1  UNL1       -0.2626
      8 C           3.3235    2.1548   27.8180 C.3     1  UNL1        0.0964
      9 C           3.2912    2.3394   26.3297 C.3     1  UNL1        0.0390
     10 C           2.0830    1.6254   25.8002 C.3     1  UNL1        0.0758
     11 C           1.3685    0.9996   26.9611 C.3     1  UNL1        0.1106
     12 C           2.4132    0.9568   32.1964 C.3     1  UNL1        0.1147
     13 C           4.5041    0.3600   35.0841 C.2     1  UNL1        0.2491
     14 O           4.6679    0.2612   36.5718 O.2     1  UNL1       -0.2699
     15 N           3.6842    1.4677   34.4918 N.am    1  UNL1       -0.2742
     16 C           3.0281    2.4765   35.3872 C.3     1  UNL1        0.1152
     17 C           6.4726   -2.6664   32.3978 C.ar    1  UNL1        0.0000
     18 C           7.2332   -1.4533   32.8448 C.ar    1  UNL1        0.0001
     19 C           6.5770   -0.4445   33.7403 C.ar    1  UNL1        0.0045
     20 C           5.1603   -0.6488   34.1887 C.ar    1  UNL1        0.0536
     21 C           4.3997   -1.8619   33.7417 C.ar    1  UNL1        0.0045
     22 C           5.0559   -2.8707   32.8463 C.ar    1  UNL1        0.0001
     23 C           8.4411   -5.6928   29.7116 C.ar    1  UNL1       -0.0222
     24 C           7.5672   -6.1493   30.8420 C.ar    1  UNL1       -0.0043
     25 C           6.9110   -5.1405   31.7374 C.ar    1  UNL1       -0.0003
     26 C           7.1288   -3.6752   31.5024 C.ar    1  UNL1       -0.0000
     27 C           8.0026   -3.2186   30.3720 C.ar    1  UNL1       -0.0003
     28 C           8.6588   -4.2274   29.4766 C.ar    1  UNL1       -0.0043
     29 C           8.4165   -7.1382   27.5529 C.3     1  UNL1        0.0050
     30 C           9.0972   -6.7016   28.8162 C.3     1  UNL1        0.0264
     31 N           1.6629    1.5505   24.3622 N.3     1  UNL1       -0.2980
     32 H           1.8865    2.4530   23.9427 H       1  UNL1        0.1232
     33 C           2.2455    0.4995   23.4645 C.3     1  UNL1        0.0590
     34 C           3.1664   -0.5418   24.0279 C.3     1  UNL1        0.0478
     35 C           3.7490   -1.5929   23.1302 C.3     1  UNL1        0.1435
     36 O           3.4107   -1.6026   21.6689 O.3     1  UNL1       -0.3537
     37 C           2.4898   -0.5613   21.1053 C.3     1  UNL1        0.1435
     38 C           1.9071    0.4898   22.0031 C.3     1  UNL1        0.0478
@<TRIPOS>BOND
     1    29    30    1
     2    30    23    1
     3    23    24   ar
     4    24    25   ar
     5    25    26   ar
     6    26    17    1
     7    17    18   ar
     8    18    19   ar
     9    19    20   ar
    10    20    13    1
    11    13    14    2
    12    13    15   am
    13    15    16    1
    14     1    15    1
    15     1     2    1
    16     2     3    1
    17     3     4    1
    18     4     5   am
    19     5     6    2
    20     5     7   am
    21     7     8    1
    22     8     9    1
    23     9    10    1
    24    10    31    1
    25    31    33    1
    26    33    34    1
    27    34    35    1
    28    35    36    1
    29    36    37    1
    30    37    38    1
    31    10    11    1
    32     4    12    1
    33    20    21   ar
    34    21    22   ar
    35    26    27   ar
    36    27    28   ar
    37    28    23   ar
    38    22    17   ar
    39    12     1    1
    40    11     7    1
    41    38    33    1
    42    31    32    1
@<TRIPOS>MOLECULE
*****
 38 42 0 0 0
SMALL
GASTEIGER

@<TRIPOS>ATOM
      1 C          -1.0996    4.5123   23.6113 C.3     1  UNL1        0.0972
      2 C           0.3556    4.7707   23.8670 C.3     1  UNL1        0.0431
      3 C           1.1500    3.7899   23.0565 C.3     1  UNL1        0.0968
      4 N           0.1857    2.9252   22.2999 N.am    1  UNL1       -0.2623
      5 C           0.5481    1.8099   21.3646 C.2     1  UNL1        0.3073
      6 O          -0.5310    1.0284   20.6755 O.2     1  UNL1       -0.2523
      7 N           1.9896    1.4760   21.1184 N.am    1  UNL1       -0.2626
      8 C           3.1717    2.1659   21.7325 C.3     1  UNL1        0.0964
      9 C           4.4148    1.5100   21.2085 C.3     1  UNL1        0.0390
     10 C           4.0010    0.4148   20.2707 C.3     1  UNL1        0.0758
     11 C           2.5022    0.3939   20.2150 C.3     1  UNL1        0.1106
     12 C          -1.2046    3.3717   22.6427 C.3     1  UNL1        0.1147
     13 C          -2.5208    5.1561   25.6888 C.2     1  UNL1        0.2491
     14 O          -3.6693    5.9064   26.2951 O.2     1  UNL1       -0.2699
     15 N          -2.2483    5.2627   24.2176 N.am    1  UNL1       -0.2742
     16 C          -3.1244    6.1197   23.3528 C.3     1  UNL1        0.1152
     17 C           0.1075    2.5850   28.2834 C.ar    1  UNL1        0.0000
     18 C          -0.9238    1.9503   27.3984 C.ar    1  UNL1        0.0001
     19 C          -1.7999    2.8073   26.5335 C.ar    1  UNL1        0.0045
     20 C          -1.6447    4.2990   26.5537 C.ar    1  UNL1        0.0536
     21 C          -0.6133    4.9338   27.4387 C.ar    1  UNL1        0.0045
     22 C           0.2628    4.0768   28.3035 C.ar    1  UNL1        0.0001
     23 C           2.7358    0.0140   30.8780 C.ar    1  UNL1       -0.0222
     24 C           2.4952    1.4489   31.2428 C.ar    1  UNL1       -0.0043
     25 C           1.6191    2.3059   30.3780 C.ar    1  UNL1       -0.0003
     26 C           0.9836    1.7280   29.1483 C.ar    1  UNL1       -0.0000
     27 C           1.2243    0.2932   28.7834 C.ar    1  UNL1       -0.0003
     28 C           2.1004   -0.5639   29.6483 C.ar    1  UNL1       -0.0043
     29 C           3.8283   -0.4817   33.1825 C.3     1  UNL1        0.0050
     30 C           3.6119   -0.8430   31.7429 C.3     1  UNL1        0.0264
     31 N           4.9240   -0.4989   19.5203 N.3     1  UNL1       -0.2980
     32 H           5.8749   -0.2213   19.7632 H       1  UNL1        0.1232
     33 C           4.8404   -1.9825   19.7250 C.3     1  UNL1        0.0590
     34 C           4.6456   -2.5397   21.1039 C.3     1  UNL1        0.0478
     35 C           4.5620   -4.0233   21.3086 C.3     1  UNL1        0.1435
     36 O           4.6733   -4.9498   20.1342 O.3     1  UNL1       -0.3537
     37 C           4.8681   -4.3928   18.7552 C.3     1  UNL1        0.1435
     38 C           4.9517   -2.9091   18.5505 C.3     1  UNL1        0.0478
@<TRIPOS>BOND
     1    29    30    1
     2    30    23    1
     3    23    24   ar
     4    24    25   ar
     5    25    26   ar
     6    26    17    1
     7    17    18   ar
     8    18    19   ar
     9    19    20   ar
    10    20    13    1
    11    13    14    2
    12    13    15   am
    13    15    16    1
    14     1    15    1
    15     1     2    1
    16     2     3    1
    17     3     4    1
    18     4     5   am
    19     5     6    2
    20     5     7   am
    21     7     8    1
    22     8     9    1
    23     9    10    1
    24    10    31    1
    25    31    33    1
    26    33    34    1
    27    34    35    1
    28    35    36    1
    29    36    37    1
    30    37    38    1
    31    10    11    1
    32     4    12    1
    33    20    21   ar
    34    21    22   ar
    35    26    27   ar
    36    27    28   ar
    37    28    23   ar
    38    22    17   ar
    39    12     1    1
    40    11     7    1
    41    38    33    1
    42    31    32    1
@<TRIPOS>MOLECULE
*****
 38 42 0 0 0
SMALL
GASTEIGER

@<TRIPOS>ATOM
      1 C           1.1153    3.2115   27.9660 C.3     1  UNL1        0.0972
      2 C          -0.0266    2.2593   27.7681 C.3     1  UNL1        0.0431
      3 C          -0.9309    2.8319   26.7172 C.3     1  UNL1        0.0968
      4 N          -0.3478    4.1381   26.2656 N.am    1  UNL1       -0.2623
      5 C          -0.9275    5.0496   25.2249 C.2     1  UNL1        0.3073
      6 O          -0.2284    6.3300   24.8759 O.2     1  UNL1       -0.2523
      7 N          -2.2063    4.6806   24.5331 N.am    1  UNL1       -0.2626
      8 C          -3.0138    3.4399   24.7757 C.3     1  UNL1        0.0964
      9 C          -4.2087    3.4801   23.8699 C.3     1  UNL1        0.0390
     10 C          -4.1398    4.7457   23.0676 C.3     1  UNL1        0.0758
     11 C          -2.9023    5.4876   23.4775 C.3     1  UNL1        0.1106
     12 C           0.9169    4.3726   27.0374 C.3     1  UNL1        0.1147
     13 C           3.4050    2.1396   28.5648 C.2     1  UNL1        0.2491
     14 O           4.5452    1.9619   29.5231 O.2     1  UNL1       -0.2699
     15 N           2.2556    3.0338   28.9243 N.am    1  UNL1       -0.2742
     16 C           2.2465    3.7504   30.2420 C.3     1  UNL1        0.1152
     17 C           3.4324   -0.0102   24.6116 C.ar    1  UNL1        0.0000
     18 C           3.2128   -0.7780   25.8814 C.ar    1  UNL1        0.0001
     19 C           3.2036   -0.0614   27.1991 C.ar    1  UNL1        0.0045
     20 C           3.4141    1.4230   27.2471 C.ar    1  UNL1        0.0536
     21 C           3.6338    2.1907   25.9774 C.ar    1  UNL1        0.0045
     22 C           3.6429    1.4741   24.6596 C.ar    1  UNL1        0.0001
     23 C           3.4599   -2.1600   20.6585 C.ar    1  UNL1       -0.0222
     24 C           2.6339   -0.9200   20.8322 C.ar    1  UNL1       -0.0043
     25 C           2.6247   -0.2034   22.1499 C.ar    1  UNL1       -0.0003
     26 C           3.4416   -0.7268   23.2939 C.ar    1  UNL1       -0.0000
     27 C           4.2675   -1.9668   23.1202 C.ar    1  UNL1       -0.0003
     28 C           4.2767   -2.6834   21.8025 C.ar    1  UNL1       -0.0043
     29 C           3.7059   -4.3570   19.2937 C.3     1  UNL1        0.0050
     30 C           3.4690   -2.8766   19.3407 C.3     1  UNL1        0.0264
     31 N          -5.1339    5.1910   22.0364 N.3     1  UNL1       -0.2980
     32 H          -4.9869    6.1909   21.8982 H       1  UNL1        0.1232
     33 C          -5.1354    4.5614   20.6749 C.3     1  UNL1        0.0590
     34 C          -3.8648    4.4879   19.8811 C.3     1  UNL1        0.0478
     35 C          -3.8663    3.8583   18.5197 C.3     1  UNL1        0.1435
     36 O          -5.1385    3.3020   17.9520 O.3     1  UNL1       -0.3537
     37 C          -6.4091    3.3754   18.7458 C.3     1  UNL1        0.1435
     38 C          -6.4076    4.0051   20.1073 C.3     1  UNL1        0.0478
@<TRIPOS>BOND
     1    29    30    1
     2    30    23    1
     3    23    24   ar
     4    24    25   ar
     5    25    26   ar
     6    26    17    1
     7    17    18   ar
     8    18    19   ar
     9    19    20   ar
    10    20    13    1
    11    13    14    2
    12    13    15   am
    13    15    16    1
    14     1    15    1
    15     1     2    1
    16     2     3    1
    17     3     4    1
    18     4     5   am
    19     5     6    2
    20     5     7   am
    21     7     8    1
    22     8     9    1
    23     9    10    1
    24    10    31    1
    25    31    33    1
    26    33    34    1
    27    34    35    1
    28    35    36    1
    29    36    37    1
    30    37    38    1
    31    10    11    1
    32     4    12    1
    33    20    21   ar
    34    21    22   ar
    35    26    27   ar
    36    27    28   ar
    37    28    23   ar
    38    22    17   ar
    39    12     1    1
    40    11     7    1
    41    38    33    1
    42    31    32    1
