@<TRIPOS>MOLECULE
*****
 36 38 0 0 0
SMALL
GASTEIGER

@<TRIPOS>ATOM
      1 C           6.5234   -2.9084   25.8299 C.2     1  UNL1        0.2486
      2 O           6.9384   -1.5460   25.3592 O.2     1  UNL1       -0.2726
      3 N           5.7767   -3.8254   24.9070 N.am    1  UNL1       -0.2823
      4 H           5.5043   -4.7196   25.2159 H       1  UNL1        0.1549
      5 C           5.5854   -2.0136   31.3030 C.ar    1  UNL1        0.1054
      6 C           4.9882   -1.2641   30.1491 C.ar    1  UNL1        0.0181
      7 C           5.3518   -1.6387   28.7428 C.ar    1  UNL1       -0.0011
      8 C           6.3125   -2.7626   28.4905 C.ar    1  UNL1        0.0023
      9 C           6.9096   -3.5121   29.6445 C.ar    1  UNL1       -0.0030
     10 C           6.5460   -3.1376   31.0507 C.ar    1  UNL1        0.0155
     11 C           7.8213   -4.5666   29.0904 C.3     1  UNL1        0.1211
     12 N           7.7876   -4.4688   27.5940 N.am    1  UNL1       -0.2582
     13 C           8.5522   -5.3340   26.6364 C.2     1  UNL1        0.3037
     14 O           9.4516   -6.4157   27.1570 O.2     1  UNL1       -0.2649
     15 C           6.8551   -3.3539   27.2232 C.3     1  UNL1        0.1754
     16 C           4.8583   -1.2646   34.1156 C.3     1  UNL1        0.1816
     17 S           5.2218   -1.6391   32.7093 S.O2    1  UNL1        0.0104
     18 O           3.8040   -2.0571   32.4541 O.2     1  UNL1       -0.1686
     19 O           6.6396   -1.2211   32.9645 O.2     1  UNL1       -0.1686
     20 C           5.4450   -3.3799   23.5136 C.ar    1  UNL1        0.0503
     21 C           4.3209   -2.4141   23.2826 C.ar    1  UNL1        0.0144
     22 C           3.9892   -1.9686   21.8892 C.ar    1  UNL1       -0.0002
     23 C           4.7816   -2.4889   20.7268 C.ar    1  UNL1        0.0182
     24 C           5.9058   -3.4548   20.9579 C.ar    1  UNL1       -0.0002
     25 C           6.2375   -3.9003   22.3512 C.ar    1  UNL1        0.0144
     26 C           4.4500   -2.0435   19.3334 C.3     1  UNL1        0.2827
     27 O           5.2332   -0.7827   19.5501 O.3     1  UNL1       -0.3692
     28 H           5.6042   -0.7825   20.4463 H       1  UNL1        0.2112
     29 C           4.1183   -1.5980   17.9401 C.3     1  UNL1        0.4311
     30 F           3.7866   -1.1525   16.5467 F       1  UNL1       -0.1669
     31 F           4.7072   -2.1094   17.5202 F       1  UNL1       -0.1669
     32 F           3.0728   -0.6708   18.4853 F       1  UNL1       -0.1669
     33 C           3.6667   -3.3043   19.1168 C.3     1  UNL1        0.4311
     34 F           2.8835   -4.5651   18.9002 F       1  UNL1       -0.1669
     35 F           2.9102   -3.0258   19.4837 F       1  UNL1       -0.1669
     36 F           4.6363   -4.2206   18.4312 F       1  UNL1       -0.1669
@<TRIPOS>BOND
     1    16    17    1
     2    17    18    2
     3    17    19    2
     4    17     5    1
     5     5     6   ar
     6     6     7   ar
     7     7     8   ar
     8     8     9   ar
     9     9    10   ar
    10     9    11    1
    11    11    12    1
    12    12    13   am
    13    13    14    2
    14    12    15    1
    15    15     1    1
    16     1     2    2
    17     1     3   am
    18     3    20    1
    19    20    21   ar
    20    21    22   ar
    21    22    23   ar
    22    23    26    1
    23    26    27    1
    24    26    29    1
    25    29    30    1
    26    29    31    1
    27    29    32    1
    28    26    33    1
    29    33    34    1
    30    33    35    1
    31    33    36    1
    32    23    24   ar
    33    24    25   ar
    34    10     5   ar
    35    25    20   ar
    36    15     8    1
    37     3     4    1
    38    27    28    1
@<TRIPOS>MOLECULE
*****
 36 38 0 0 0
SMALL
GASTEIGER

@<TRIPOS>ATOM
      1 C          -0.6606    2.8175   20.5565 C.2     1  UNL1        0.2486
      2 O           0.6280    3.5841   20.5992 O.2     1  UNL1       -0.2726
      3 N          -0.6544    1.3593   20.2049 N.am    1  UNL1       -0.2823
      4 H          -1.5001    0.8561   20.1769 H       1  UNL1        0.1549
      5 C          -4.0589    4.6238   24.6584 C.ar    1  UNL1        0.1054
      6 C          -2.7438    3.9202   24.8180 C.ar    1  UNL1        0.0181
      7 C          -1.9629    3.5058   23.6062 C.ar    1  UNL1       -0.0011
      8 C          -2.4971    3.7951   22.2347 C.ar    1  UNL1        0.0023
      9 C          -3.8122    4.4986   22.0751 C.ar    1  UNL1       -0.0030
     10 C          -4.5931    4.9130   23.2869 C.ar    1  UNL1        0.0155
     11 C          -4.0832    4.6473   20.6072 C.3     1  UNL1        0.1211
     12 N          -2.9356    4.0357   19.8597 N.am    1  UNL1       -0.2582
     13 C          -2.7931    3.9634   18.3682 C.2     1  UNL1        0.3037
     14 O          -3.8608    4.5366   17.4842 O.2     1  UNL1       -0.2649
     15 C          -1.9553    3.5089   20.8656 C.3     1  UNL1        0.1754
     16 C          -5.6207    5.4524   27.0820 C.3     1  UNL1        0.1816
     17 S          -4.8398    5.0381   25.8702 S.O2    1  UNL1        0.0104
     18 O          -4.4556    3.7599   26.5548 O.2     1  UNL1       -0.1686
     19 O          -5.2239    6.3163   25.1856 O.2     1  UNL1       -0.1686
     20 C           0.6404    0.6678   19.8958 C.ar    1  UNL1        0.0503
     21 C           1.2398    0.7758   18.5250 C.ar    1  UNL1        0.0144
     22 C           2.5345    0.0844   18.2160 C.ar    1  UNL1       -0.0002
     23 C           3.2299   -0.7151   19.2777 C.ar    1  UNL1        0.0182
     24 C           2.6305   -0.8231   20.6485 C.ar    1  UNL1       -0.0002
     25 C           1.3358   -0.1316   20.9575 C.ar    1  UNL1        0.0144
     26 C           4.5247   -1.4065   18.9687 C.3     1  UNL1        0.2827
     27 O           5.1992   -0.0754   18.8166 O.3     1  UNL1       -0.3692
     28 H           4.5553    0.6331   18.9722 H       1  UNL1        0.2112
     29 C           5.8194   -2.0980   18.6596 C.3     1  UNL1        0.4311
     30 F           7.1141   -2.7894   18.3506 F       1  UNL1       -0.1669
     31 F           5.5711   -2.4515   17.8864 F       1  UNL1       -0.1669
     32 F           6.4021   -1.5797   19.9410 F       1  UNL1       -0.1669
     33 C           3.8501   -2.7376   19.1207 C.3     1  UNL1        0.4311
     34 F           3.1755   -4.0687   19.2728 F       1  UNL1       -0.1669
     35 F           3.3765   -2.7048   18.3729 F       1  UNL1       -0.1669
     36 F           4.3904   -3.2727   20.4137 F       1  UNL1       -0.1669
@<TRIPOS>BOND
     1    16    17    1
     2    17    18    2
     3    17    19    2
     4    17     5    1
     5     5     6   ar
     6     6     7   ar
     7     7     8   ar
     8     8     9   ar
     9     9    10   ar
    10     9    11    1
    11    11    12    1
    12    12    13   am
    13    13    14    2
    14    12    15    1
    15    15     1    1
    16     1     2    2
    17     1     3   am
    18     3    20    1
    19    20    21   ar
    20    21    22   ar
    21    22    23   ar
    22    23    26    1
    23    26    27    1
    24    26    29    1
    25    29    30    1
    26    29    31    1
    27    29    32    1
    28    26    33    1
    29    33    34    1
    30    33    35    1
    31    33    36    1
    32    23    24   ar
    33    24    25   ar
    34    10     5   ar
    35    25    20   ar
    36    15     8    1
    37     3     4    1
    38    27    28    1
@<TRIPOS>MOLECULE
*****
 36 38 0 0 0
SMALL
GASTEIGER

@<TRIPOS>ATOM
      1 C           3.3889    0.1806   26.1782 C.2     1  UNL1        0.2486
      2 O           4.0890    1.3795   26.7461 O.2     1  UNL1       -0.2726
      3 N           3.0577   -0.9838   27.0638 N.am    1  UNL1       -0.2823
      4 H           2.5983   -1.7707   26.6911 H       1  UNL1        0.1549
      5 C           4.0213   -2.5914   21.3251 C.ar    1  UNL1        0.1054
      6 C           4.6262   -2.9422   22.6521 C.ar    1  UNL1        0.0181
      7 C           4.3500   -2.0858   23.8522 C.ar    1  UNL1       -0.0011
      8 C           3.4688   -0.8786   23.7253 C.ar    1  UNL1        0.0023
      9 C           2.8639   -0.5278   22.3983 C.ar    1  UNL1       -0.0030
     10 C           3.1402   -1.3842   21.1982 C.ar    1  UNL1        0.0155
     11 C           2.0413    0.7138   22.5775 C.3     1  UNL1        0.1211
     12 N           2.1379    1.1302   24.0152 N.am    1  UNL1       -0.2582
     13 C           1.4696    2.3217   24.6349 C.2     1  UNL1        0.3037
     14 O           0.6116    3.2212   23.7954 O.2     1  UNL1       -0.2649
     15 C           3.0201    0.1461   24.7246 C.3     1  UNL1        0.1754
     16 C           4.5739   -4.3042   18.9249 C.3     1  UNL1        0.1816
     17 S           4.2976   -3.4478   20.1250 S.O2    1  UNL1        0.0104
     18 O           4.5753   -4.6167   21.0231 O.2     1  UNL1       -0.1686
     19 O           4.0199   -2.2789   19.2269 O.2     1  UNL1       -0.1686
     20 C           3.4265   -0.9493   28.5174 C.ar    1  UNL1        0.0503
     21 C           2.3847   -0.6297   29.5481 C.ar    1  UNL1        0.0144
     22 C           2.7535   -0.5952   31.0016 C.ar    1  UNL1       -0.0002
     23 C           4.1641   -0.8803   31.4245 C.ar    1  UNL1        0.0182
     24 C           5.2060   -1.1999   30.3938 C.ar    1  UNL1       -0.0002
     25 C           4.8371   -1.2344   28.9402 C.ar    1  UNL1        0.0144
     26 C           4.5329   -0.8458   32.8780 C.3     1  UNL1        0.2827
     27 O           3.9951    0.5507   32.9814 O.3     1  UNL1       -0.3692
     28 H           3.6543    0.8306   32.1174 H       1  UNL1        0.2112
     29 C           4.9017   -0.8113   34.3316 C.3     1  UNL1        0.4311
     30 F           5.2706   -0.7768   35.7851 F       1  UNL1       -0.1669
     31 F           4.3412   -1.4423   34.6002 F       1  UNL1       -0.1669
     32 F           5.9034    0.2696   34.0518 F       1  UNL1       -0.1669
     33 C           5.0708   -2.2422   32.7747 C.3     1  UNL1        0.4311
     34 F           5.6087   -3.6386   32.6714 F       1  UNL1       -0.1669
     35 F           4.2948   -2.6471   32.6389 F       1  UNL1       -0.1669
     36 F           6.5497   -2.0763   32.9623 F       1  UNL1       -0.1669
@<TRIPOS>BOND
     1    16    17    1
     2    17    18    2
     3    17    19    2
     4    17     5    1
     5     5     6   ar
     6     6     7   ar
     7     7     8   ar
     8     8     9   ar
     9     9    10   ar
    10     9    11    1
    11    11    12    1
    12    12    13   am
    13    13    14    2
    14    12    15    1
    15    15     1    1
    16     1     2    2
    17     1     3   am
    18     3    20    1
    19    20    21   ar
    20    21    22   ar
    21    22    23   ar
    22    23    26    1
    23    26    27    1
    24    26    29    1
    25    29    30    1
    26    29    31    1
    27    29    32    1
    28    26    33    1
    29    33    34    1
    30    33    35    1
    31    33    36    1
    32    23    24   ar
    33    24    25   ar
    34    10     5   ar
    35    25    20   ar
    36    15     8    1
    37     3     4    1
    38    27    28    1
@<TRIPOS>MOLECULE
*****
 36 38 0 0 0
SMALL
GASTEIGER

@<TRIPOS>ATOM
      1 C           5.0017   -2.8004   21.8142 C.2     1  UNL1        0.2486
      2 O           4.1491   -3.9550   22.2502 O.2     1  UNL1       -0.2726
      3 N           6.3057   -2.5287   22.5038 N.am    1  UNL1       -0.2823
      4 H           6.8653   -1.7709   22.2177 H       1  UNL1        0.1549
      5 C           1.2749    1.1004   20.2233 C.ar    1  UNL1        0.1054
      6 C           1.3676    0.4317   21.5628 C.ar    1  UNL1        0.0181
      7 C           2.4320   -0.5943   21.8167 C.ar    1  UNL1       -0.0011
      8 C           3.4036   -0.9515   20.7313 C.ar    1  UNL1        0.0023
      9 C           3.3109   -0.2828   19.3918 C.ar    1  UNL1       -0.0030
     10 C           2.2465    0.7431   19.1379 C.ar    1  UNL1        0.0155
     11 C           4.4002   -0.8357   18.5213 C.3     1  UNL1        0.1211
     12 N           5.1661   -1.8461   19.3227 N.am    1  UNL1       -0.2582
     13 C           6.3417   -2.6447   18.8427 C.2     1  UNL1        0.3037
     14 O           6.8491   -2.4649   17.4426 O.2     1  UNL1       -0.2649
     15 C           4.5502   -1.9177   20.6886 C.3     1  UNL1        0.1754
     16 C          -0.8539    3.1523   19.7154 C.3     1  UNL1        0.1816
     17 S           0.2105    2.1264   19.9693 S.O2    1  UNL1        0.0104
     18 O           0.9276    2.5626   18.7262 O.2     1  UNL1       -0.1686
     19 O          -0.5066    1.6902   21.2125 O.2     1  UNL1       -0.1686
     20 C           6.7571   -3.4114   23.6294 C.ar    1  UNL1        0.0503
     21 C           7.5206   -4.6690   23.3364 C.ar    1  UNL1        0.0144
     22 C           7.9720   -5.5517   24.4620 C.ar    1  UNL1       -0.0002
     23 C           7.6601   -5.1770   25.8805 C.ar    1  UNL1        0.0182
     24 C           6.8966   -3.9195   26.1735 C.ar    1  UNL1       -0.0002
     25 C           6.4452   -3.0368   25.0479 C.ar    1  UNL1        0.0144
     26 C           8.1115   -6.0598   27.0061 C.3     1  UNL1        0.2827
     27 O           8.9653   -4.9465   27.5368 O.3     1  UNL1       -0.3692
     28 H           8.8741   -4.1684   26.9649 H       1  UNL1        0.2112
     29 C           8.5629   -6.9426   28.1317 C.3     1  UNL1        0.4311
     30 F           9.0144   -7.8253   29.2572 F       1  UNL1       -0.1669
     31 F           9.2405   -7.3223   27.7060 F       1  UNL1       -0.1669
     32 F           7.4622   -6.4031   28.9962 F       1  UNL1       -0.1669
     33 C           7.2577   -7.1731   26.4754 C.3     1  UNL1        0.4311
     34 F           6.4039   -8.2863   25.9448 F       1  UNL1       -0.1669
     35 F           6.4797   -6.8553   26.7552 F       1  UNL1       -0.1669
     36 F           8.2373   -8.1013   25.8206 F       1  UNL1       -0.1669
@<TRIPOS>BOND
     1    16    17    1
     2    17    18    2
     3    17    19    2
     4    17     5    1
     5     5     6   ar
     6     6     7   ar
     7     7     8   ar
     8     8     9   ar
     9     9    10   ar
    10     9    11    1
    11    11    12    1
    12    12    13   am
    13    13    14    2
    14    12    15    1
    15    15     1    1
    16     1     2    2
    17     1     3   am
    18     3    20    1
    19    20    21   ar
    20    21    22   ar
    21    22    23   ar
    22    23    26    1
    23    26    27    1
    24    26    29    1
    25    29    30    1
    26    29    31    1
    27    29    32    1
    28    26    33    1
    29    33    34    1
    30    33    35    1
    31    33    36    1
    32    23    24   ar
    33    24    25   ar
    34    10     5   ar
    35    25    20   ar
    36    15     8    1
    37     3     4    1
    38    27    28    1
@<TRIPOS>MOLECULE
*****
 36 38 0 0 0
SMALL
GASTEIGER

@<TRIPOS>ATOM
      1 C           5.0824   -0.6431   32.8149 C.2     1  UNL1        0.2486
      2 O           3.7309   -1.2714   32.9835 O.2     1  UNL1       -0.2726
      3 N           5.5693    0.3672   33.8111 N.am    1  UNL1       -0.2823
      4 H           6.4564    0.7796   33.7005 H       1  UNL1        0.1549
      5 C           7.8907   -4.8396   30.3371 C.ar    1  UNL1        0.1054
      6 C           7.0899   -4.9113   31.6035 C.ar    1  UNL1        0.0181
      7 C           6.4006   -3.6857   32.1254 C.ar    1  UNL1       -0.0011
      8 C           6.5119   -2.3882   31.3811 C.ar    1  UNL1        0.0023
      9 C           7.3126   -2.3164   30.1147 C.ar    1  UNL1       -0.0030
     10 C           8.0020   -3.5421   29.5928 C.ar    1  UNL1        0.0155
     11 C           7.2427   -0.9087   29.6012 C.3     1  UNL1        0.1211
     12 N           6.3988   -0.1106   30.5502 N.am    1  UNL1       -0.2582
     13 C           6.0650    1.3463   30.4218 C.2     1  UNL1        0.3037
     14 O           6.5916    2.1368   29.2609 O.2     1  UNL1       -0.2649
     15 C           5.9471   -1.0249   31.6502 C.3     1  UNL1        0.1754
     16 C           9.2694   -7.2909   29.2932 C.3     1  UNL1        0.1816
     17 S           8.5800   -6.0653   29.8152 S.O2    1  UNL1        0.0104
     18 O           8.4423   -5.5463   28.4146 O.2     1  UNL1       -0.1686
     19 O           8.7177   -6.5843   31.2158 O.2     1  UNL1       -0.1686
     20 C           4.7047    0.7490   34.9758 C.ar    1  UNL1        0.0503
     21 C           4.9805    0.1761   36.3344 C.ar    1  UNL1        0.0144
     22 C           4.1159    0.5580   37.4991 C.ar    1  UNL1       -0.0002
     23 C           2.9753    1.5127   37.3053 C.ar    1  UNL1        0.0182
     24 C           2.6995    2.0857   35.9467 C.ar    1  UNL1       -0.0002
     25 C           3.5642    1.7038   34.7820 C.ar    1  UNL1        0.0144
     26 C           2.1107    1.8946   38.4700 C.3     1  UNL1        0.2827
     27 O           1.9370    0.4455   38.8162 O.3     1  UNL1       -0.3692
     28 H           2.4267   -0.0997   38.1807 H       1  UNL1        0.2112
     29 C           1.2460    2.2765   39.6347 C.3     1  UNL1        0.4311
     30 F           0.3814    2.6583   40.7994 F       1  UNL1       -0.1669
     31 F           1.8349    2.8000   40.0392 F       1  UNL1       -0.1669
     32 F           0.1351    1.4301   39.0874 F       1  UNL1       -0.1669
     33 C           2.2844    3.3437   38.1238 C.3     1  UNL1        0.4311
     34 F           2.4580    4.7928   37.7776 F       1  UNL1       -0.1669
     35 F           3.1423    3.4034   38.3358 F       1  UNL1       -0.1669
     36 F           0.9268    3.7684   37.6478 F       1  UNL1       -0.1669
@<TRIPOS>BOND
     1    16    17    1
     2    17    18    2
     3    17    19    2
     4    17     5    1
     5     5     6   ar
     6     6     7   ar
     7     7     8   ar
     8     8     9   ar
     9     9    10   ar
    10     9    11    1
    11    11    12    1
    12    12    13   am
    13    13    14    2
    14    12    15    1
    15    15     1    1
    16     1     2    2
    17     1     3   am
    18     3    20    1
    19    20    21   ar
    20    21    22   ar
    21    22    23   ar
    22    23    26    1
    23    26    27    1
    24    26    29    1
    25    29    30    1
    26    29    31    1
    27    29    32    1
    28    26    33    1
    29    33    34    1
    30    33    35    1
    31    33    36    1
    32    23    24   ar
    33    24    25   ar
    34    10     5   ar
    35    25    20   ar
    36    15     8    1
    37     3     4    1
    38    27    28    1
@<TRIPOS>MOLECULE
*****
 36 38 0 0 0
SMALL
GASTEIGER

@<TRIPOS>ATOM
      1 C          -0.5611    2.6553   20.9387 C.2     1  UNL1        0.2486
      2 O           0.6946    3.4676   20.8236 O.2     1  UNL1       -0.2726
      3 N          -0.5596    1.2108   20.5344 N.am    1  UNL1       -0.2823
      4 H          -1.3837    0.6776   20.6099 H       1  UNL1        0.1549
      5 C          -5.6254    4.6680   19.5466 C.ar    1  UNL1        0.1054
      6 C          -4.6023    4.0769   18.6227 C.ar    1  UNL1        0.0181
      7 C          -3.2942    3.5854   19.1680 C.ar    1  UNL1       -0.0011
      8 C          -3.0093    3.6851   20.6373 C.ar    1  UNL1        0.0023
      9 C          -4.0324    4.2763   21.5612 C.ar    1  UNL1       -0.0030
     10 C          -5.3405    4.7677   21.0159 C.ar    1  UNL1        0.0155
     11 C          -3.4739    4.2439   22.9530 C.3     1  UNL1        0.1211
     12 N          -2.1056    3.6327   22.8892 N.am    1  UNL1       -0.2582
     13 C          -1.1858    3.4065   24.0524 C.2     1  UNL1        0.3037
     14 O          -1.6120    3.8054   25.4342 O.2     1  UNL1       -0.2649
     15 C          -1.8184    3.2874   21.4580 C.3     1  UNL1        0.1754
     16 C          -8.2416    5.6509   18.4559 C.3     1  UNL1        0.1816
     17 S          -6.9335    5.1595   19.0012 S.O2    1  UNL1        0.0104
     18 O          -7.2445    3.7792   18.5032 O.2     1  UNL1       -0.1686
     19 O          -6.6226    6.5398   19.4993 O.2     1  UNL1       -0.1686
     20 C           0.6977    0.5787   20.0151 C.ar    1  UNL1        0.0503
     21 C           1.3601   -0.5210   20.7909 C.ar    1  UNL1        0.0144
     22 C           2.6174   -1.1531   20.2716 C.ar    1  UNL1       -0.0002
     23 C           3.2123   -0.6856   18.9765 C.ar    1  UNL1        0.0182
     24 C           2.5500    0.4141   18.2007 C.ar    1  UNL1       -0.0002
     25 C           1.2927    1.0462   18.7200 C.ar    1  UNL1        0.0144
     26 C           4.4696   -1.3177   18.4572 C.3     1  UNL1        0.2827
     27 O           3.7743   -1.6416   17.1681 O.3     1  UNL1       -0.3692
     28 H           2.8579   -1.3260   17.2069 H       1  UNL1        0.2112
     29 C           5.7269   -1.9498   17.9379 C.3     1  UNL1        0.4311
     30 F           6.9841   -2.5819   17.4186 F       1  UNL1       -0.1669
     31 F           6.1950   -1.2030   17.8504 F       1  UNL1       -0.1669
     32 F           5.0825   -3.3016   18.0233 F       1  UNL1       -0.1669
     33 C           5.1649   -0.9938   19.7462 C.3     1  UNL1        0.4311
     34 F           5.8601   -0.6700   21.0353 F       1  UNL1       -0.1669
     35 F           5.2163   -1.8233   20.0526 F       1  UNL1       -0.1669
     36 F           5.3308    0.4964   19.7047 F       1  UNL1       -0.1669
@<TRIPOS>BOND
     1    16    17    1
     2    17    18    2
     3    17    19    2
     4    17     5    1
     5     5     6   ar
     6     6     7   ar
     7     7     8   ar
     8     8     9   ar
     9     9    10   ar
    10     9    11    1
    11    11    12    1
    12    12    13   am
    13    13    14    2
    14    12    15    1
    15    15     1    1
    16     1     2    2
    17     1     3   am
    18     3    20    1
    19    20    21   ar
    20    21    22   ar
    21    22    23   ar
    22    23    26    1
    23    26    27    1
    24    26    29    1
    25    29    30    1
    26    29    31    1
    27    29    32    1
    28    26    33    1
    29    33    34    1
    30    33    35    1
    31    33    36    1
    32    23    24   ar
    33    24    25   ar
    34    10     5   ar
    35    25    20   ar
    36    15     8    1
    37     3     4    1
    38    27    28    1
@<TRIPOS>MOLECULE
*****
 36 38 0 0 0
SMALL
GASTEIGER

@<TRIPOS>ATOM
      1 C           2.1684    0.8809   25.1102 C.2     1  UNL1        0.2486
      2 O           3.4860    1.3816   25.6232 O.2     1  UNL1       -0.2726
      3 N           1.0227    0.6794   26.0571 N.am    1  UNL1       -0.2823
      4 H           0.1578    0.3508   25.7205 H       1  UNL1        0.1549
      5 C           3.7894   -2.4257   20.8588 C.ar    1  UNL1        0.1054
      6 C           4.2622   -2.4848   22.2811 C.ar    1  UNL1        0.0181
      7 C           3.7201   -1.5186   23.2923 C.ar    1  UNL1       -0.0011
      8 C           2.7053   -0.4934   22.8814 C.ar    1  UNL1        0.0023
      9 C           2.2325   -0.4343   21.4591 C.ar    1  UNL1       -0.0030
     10 C           2.7745   -1.4005   20.4478 C.ar    1  UNL1        0.0155
     11 C           1.2314    0.6774   21.3491 C.3     1  UNL1        0.1211
     12 N           1.0856    1.3054   22.7035 N.am    1  UNL1       -0.2582
     13 C           0.1867    2.4552   23.0501 C.2     1  UNL1        0.3037
     14 O          -0.6722    3.0812   21.9916 O.2     1  UNL1       -0.2649
     15 C           1.9965    0.5818   23.6504 C.3     1  UNL1        0.1754
     16 C           4.8735   -4.3581   18.8362 C.3     1  UNL1        0.1816
     17 S           4.3314   -3.3919   19.8475 S.O2    1  UNL1        0.0104
     18 O           3.9272   -2.4618   18.7423 O.2     1  UNL1       -0.1686
     19 O           4.7357   -4.3219   20.9527 O.2     1  UNL1       -0.1686
     20 C           1.1946    0.9785   27.5169 C.ar    1  UNL1        0.0503
     21 C           1.7637   -0.0631   28.4340 C.ar    1  UNL1        0.0144
     22 C           1.9356    0.2360   29.8938 C.ar    1  UNL1       -0.0002
     23 C           1.5385    1.5767   30.4365 C.ar    1  UNL1        0.0182
     24 C           0.9693    2.6183   29.5195 C.ar    1  UNL1       -0.0002
     25 C           0.7974    2.3192   28.0597 C.ar    1  UNL1        0.0144
     26 C           1.7104    1.8758   31.8963 C.3     1  UNL1        0.2827
     27 O           0.2482    1.6266   32.1196 O.3     1  UNL1       -0.3692
     28 H          -0.1718    1.3905   31.2777 H       1  UNL1        0.2112
     29 C           1.8823    2.1749   33.3561 C.3     1  UNL1        0.4311
     30 F           2.0542    2.4740   34.8159 F       1  UNL1       -0.1669
     31 F           2.3450    1.4481   33.5614 F       1  UNL1       -0.1669
     32 F           1.1139    3.4517   33.1850 F       1  UNL1       -0.1669
     33 C           3.1726    2.1250   31.6730 C.3     1  UNL1        0.4311
     34 F           4.6348    2.3742   31.4498 F       1  UNL1       -0.1669
     35 F           3.1051    2.9828   31.4627 F       1  UNL1       -0.1669
     36 F           3.8124    0.7949   31.9406 F       1  UNL1       -0.1669
@<TRIPOS>BOND
     1    16    17    1
     2    17    18    2
     3    17    19    2
     4    17     5    1
     5     5     6   ar
     6     6     7   ar
     7     7     8   ar
     8     8     9   ar
     9     9    10   ar
    10     9    11    1
    11    11    12    1
    12    12    13   am
    13    13    14    2
    14    12    15    1
    15    15     1    1
    16     1     2    2
    17     1     3   am
    18     3    20    1
    19    20    21   ar
    20    21    22   ar
    21    22    23   ar
    22    23    26    1
    23    26    27    1
    24    26    29    1
    25    29    30    1
    26    29    31    1
    27    29    32    1
    28    26    33    1
    29    33    34    1
    30    33    35    1
    31    33    36    1
    32    23    24   ar
    33    24    25   ar
    34    10     5   ar
    35    25    20   ar
    36    15     8    1
    37     3     4    1
    38    27    28    1
@<TRIPOS>MOLECULE
*****
 36 38 0 0 0
SMALL
GASTEIGER

@<TRIPOS>ATOM
      1 C           2.1483    0.7948   25.1072 C.2     1  UNL1        0.2486
      2 O           2.6667    2.1739   25.3884 O.2     1  UNL1       -0.2726
      3 N           0.6751    0.5197   25.1717 N.am    1  UNL1       -0.2823
      4 H           0.3348   -0.3855   24.9871 H       1  UNL1        0.1549
      5 C           4.1037   -2.4858   20.9779 C.ar    1  UNL1        0.1054
      6 C           3.0549   -1.4194   20.8655 C.ar    1  UNL1        0.0181
      7 C           2.6506   -0.6343   22.0780 C.ar    1  UNL1       -0.0011
      8 C           3.2951   -0.9155   23.4029 C.ar    1  UNL1        0.0023
      9 C           4.3440   -1.9819   23.5153 C.ar    1  UNL1       -0.0030
     10 C           4.7483   -2.7670   22.3028 C.ar    1  UNL1        0.0155
     11 C           4.8001   -2.0348   24.9434 C.3     1  UNL1        0.1211
     12 N           4.0331   -1.0011   25.7135 N.am    1  UNL1       -0.2582
     13 C           4.1718   -0.7101   27.1785 C.2     1  UNL1        0.3037
     14 O           5.1495   -1.4882   28.0084 O.2     1  UNL1       -0.2649
     15 C           3.1030   -0.3093   24.7614 C.3     1  UNL1        0.1754
     16 C           4.9123   -4.0561   18.5530 C.3     1  UNL1        0.1816
     17 S           4.5080   -3.2710   19.7655 S.O2    1  UNL1        0.0104
     18 O           4.3809   -2.0361   18.9235 O.2     1  UNL1       -0.1686
     19 O           4.6351   -4.5058   20.6075 O.2     1  UNL1       -0.1686
     20 C          -0.2795    1.6238   25.5174 C.ar    1  UNL1        0.0503
     21 C          -0.7487    2.5705   24.4527 C.ar    1  UNL1        0.0144
     22 C          -1.7034    3.6746   24.7984 C.ar    1  UNL1       -0.0002
     23 C          -2.1889    3.8321   26.2089 C.ar    1  UNL1        0.0182
     24 C          -1.7197    2.8855   27.2736 C.ar    1  UNL1       -0.0002
     25 C          -0.7650    1.7814   26.9279 C.ar    1  UNL1        0.0144
     26 C          -3.1436    4.9362   26.5546 C.3     1  UNL1        0.2827
     27 O          -2.0220    5.7093   27.1826 O.3     1  UNL1       -0.3692
     28 H          -1.1982    5.2028   27.1072 H       1  UNL1        0.2112
     29 C          -4.0982    6.0403   26.9004 C.3     1  UNL1        0.4311
     30 F          -5.0529    7.1444   27.2461 F       1  UNL1       -0.1669
     31 F          -4.5739    5.5892   27.4960 F       1  UNL1       -0.1669
     32 F          -3.4038    6.9457   25.9266 F       1  UNL1       -0.1669
     33 C          -4.2651    4.1631   25.9266 C.3     1  UNL1        0.4311
     34 F          -5.3867    3.3900   25.2986 F       1  UNL1       -0.1669
     35 F          -4.3296    3.5391   26.5520 F       1  UNL1       -0.1669
     36 F          -4.5634    4.9169   24.6645 F       1  UNL1       -0.1669
@<TRIPOS>BOND
     1    16    17    1
     2    17    18    2
     3    17    19    2
     4    17     5    1
     5     5     6   ar
     6     6     7   ar
     7     7     8   ar
     8     8     9   ar
     9     9    10   ar
    10     9    11    1
    11    11    12    1
    12    12    13   am
    13    13    14    2
    14    12    15    1
    15    15     1    1
    16     1     2    2
    17     1     3   am
    18     3    20    1
    19    20    21   ar
    20    21    22   ar
    21    22    23   ar
    22    23    26    1
    23    26    27    1
    24    26    29    1
    25    29    30    1
    26    29    31    1
    27    29    32    1
    28    26    33    1
    29    33    34    1
    30    33    35    1
    31    33    36    1
    32    23    24   ar
    33    24    25   ar
    34    10     5   ar
    35    25    20   ar
    36    15     8    1
    37     3     4    1
    38    27    28    1
@<TRIPOS>MOLECULE
*****
 36 38 0 0 0
SMALL
GASTEIGER

@<TRIPOS>ATOM
      1 C           5.5419   -1.6141   26.0623 C.2     1  UNL1        0.2486
      2 O           6.7065   -1.0591   25.2972 O.2     1  UNL1       -0.2726
      3 N           4.2941   -2.0226   25.3369 N.am    1  UNL1       -0.2823
      4 H           3.5297   -2.3869   25.8391 H       1  UNL1        0.1549
      5 C           3.7269    0.3769   30.9997 C.ar    1  UNL1        0.1054
      6 C           3.3500    0.8676   29.6334 C.ar    1  UNL1        0.0181
      7 C           3.9334    0.2157   28.4149 C.ar    1  UNL1       -0.0011
      8 C           4.8937   -0.9270   28.5628 C.ar    1  UNL1        0.0023
      9 C           5.2707   -1.4177   29.9292 C.ar    1  UNL1       -0.0030
     10 C           4.6872   -0.7658   31.1477 C.ar    1  UNL1        0.0155
     11 C           6.2349   -2.5549   29.7637 C.3     1  UNL1        0.1211
     12 N           6.4538   -2.7668   28.2950 N.am    1  UNL1       -0.2582
     13 C           7.3452   -3.8030   27.6769 C.2     1  UNL1        0.3037
     14 O           8.1172   -4.7461   28.5512 O.2     1  UNL1       -0.2649
     15 C           5.6250   -1.7607   27.5528 C.3     1  UNL1        0.1754
     16 C           2.5600    1.6807   33.4366 C.3     1  UNL1        0.1816
     17 S           3.1435    1.0288   32.2182 S.O2    1  UNL1        0.0104
     18 O           4.5064    1.0821   32.8423 O.2     1  UNL1       -0.1686
     19 O           1.7805    0.9755   31.5941 O.2     1  UNL1       -0.1686
     20 C           4.2110   -1.8760   23.8464 C.ar    1  UNL1        0.0503
     21 C           5.0356   -2.7603   22.9587 C.ar    1  UNL1        0.0144
     22 C           4.9526   -2.6137   21.4682 C.ar    1  UNL1       -0.0002
     23 C           4.0449   -1.5828   20.8654 C.ar    1  UNL1        0.0182
     24 C           3.2203   -0.6986   21.7531 C.ar    1  UNL1       -0.0002
     25 C           3.3034   -0.8451   23.2436 C.ar    1  UNL1        0.0144
     26 C           3.9619   -1.4362   19.3749 C.3     1  UNL1        0.2827
     27 O           4.5216   -0.0486   19.4801 O.3     1  UNL1       -0.3692
     28 H           4.6929    0.1612   20.4116 H       1  UNL1        0.2112
     29 C           3.8788   -1.2896   17.8844 C.3     1  UNL1        0.4311
     30 F           3.7957   -1.1430   16.3939 F       1  UNL1       -0.1669
     31 F           4.5731   -1.8029   17.6865 F       1  UNL1       -0.1669
     32 F           2.6840   -0.3960   18.0389 F       1  UNL1       -0.1669
     33 C           3.4021   -2.8239   19.2696 C.3     1  UNL1        0.4311
     34 F           2.8424   -4.2116   19.1643 F       1  UNL1       -0.1669
     35 F           2.5768   -2.6271   19.5239 F       1  UNL1       -0.1669
     36 F           4.5663   -3.6510   18.8106 F       1  UNL1       -0.1669
@<TRIPOS>BOND
     1    16    17    1
     2    17    18    2
     3    17    19    2
     4    17     5    1
     5     5     6   ar
     6     6     7   ar
     7     7     8   ar
     8     8     9   ar
     9     9    10   ar
    10     9    11    1
    11    11    12    1
    12    12    13   am
    13    13    14    2
    14    12    15    1
    15    15     1    1
    16     1     2    2
    17     1     3   am
    18     3    20    1
    19    20    21   ar
    20    21    22   ar
    21    22    23   ar
    22    23    26    1
    23    26    27    1
    24    26    29    1
    25    29    30    1
    26    29    31    1
    27    29    32    1
    28    26    33    1
    29    33    34    1
    30    33    35    1
    31    33    36    1
    32    23    24   ar
    33    24    25   ar
    34    10     5   ar
    35    25    20   ar
    36    15     8    1
    37     3     4    1
    38    27    28    1
