@<TRIPOS>MOLECULE
*****
 44 48 0 0 0
SMALL
GASTEIGER

@<TRIPOS>ATOM
      1 C           6.6115   -3.2634   29.7888 C.ar    1  UNL1        0.0611
      2 C           6.7254   -4.1612   30.9850 C.ar    1  UNL1        0.1037
      3 N           6.9052   -5.5670   30.4938 N.ar    1  UNL1       -0.2269
      4 C           6.9024   -5.5381   28.9941 C.ar    1  UNL1        0.1407
      5 N           7.0417   -6.6242   27.9690 N.ar    1  UNL1       -0.3374
      6 C           6.9994   -6.2866   26.5081 C.ar    1  UNL1        0.0735
      7 C           6.8179   -4.8628   26.0724 C.ar    1  UNL1        0.0186
      8 C           6.6786   -3.7767   27.0975 C.ar    1  UNL1        0.0047
      9 C           6.7209   -4.1143   28.5583 C.ar    1  UNL1        0.0386
     10 H           7.1609   -7.5587   28.2550 H       1  UNL1        0.1674
     11 C           6.7756   -4.5252   24.6114 C.ar    1  UNL1        0.0208
     12 C           5.8276   -3.4759   24.1113 C.ar    1  UNL1        0.0064
     13 C           5.7854   -3.1382   22.6503 C.ar    1  UNL1        0.0577
     14 C           6.6911   -3.8499   21.6896 C.ar    1  UNL1        0.2249
     15 N           7.6392   -4.8993   22.1898 N.ar    1  UNL1       -0.2101
     16 C           7.6814   -5.2369   23.6507 C.ar    1  UNL1        0.1021
     17 O           6.6489   -3.5124   20.2287 O.3     1  UNL1       -0.4602
     18 C           5.4307   -3.8415   19.4178 C.3     1  UNL1        0.2085
     19 C           4.8629   -2.8259   18.4712 C.3     1  UNL1        0.0647
     20 C           4.6925   -1.4024   18.9123 C.3     1  UNL1        0.0761
     21 N           3.3174   -0.8187   19.0478 N.3     1  UNL1       -0.2683
     22 C           2.8436    0.2189   18.0736 C.3     1  UNL1        0.1046
     23 C           1.4686    0.8026   18.2092 C.3     1  UNL1        0.1595
     24 O           0.5672    0.3487   19.3189 O.3     1  UNL1       -0.3508
     25 C           1.0408   -0.6889   20.2931 C.3     1  UNL1        0.1595
     26 C           2.4160   -1.2726   20.1575 C.3     1  UNL1        0.1046
     27 C           6.4215   -1.7757   29.8178 C.2     1  UNL1        0.2015
     28 O           7.5832   -0.8658   29.5490 O.2     1  UNL1       -0.2864
     29 C           2.6895   -0.5183   29.3264 C.ar    1  UNL1        0.0920
     30 C           2.3660   -0.0424   30.7116 C.ar    1  UNL1        0.0204
     31 C           3.3943   -0.1443   31.7989 C.ar    1  UNL1        0.0312
     32 C           4.7461   -0.7220   31.5010 C.ar    1  UNL1        0.1454
     33 F           5.7744   -0.8239   32.5883 F       1  UNL1       -0.2040
     34 C           5.0696   -1.1979   30.1158 C.ar    1  UNL1        0.0951
     35 C           4.0413   -1.0961   29.0285 C.ar    1  UNL1        0.1598
     36 F           4.3649   -1.5720   27.6433 F       1  UNL1       -0.2026
     37 N           1.6612   -0.4165   28.2391 N.pl3   1  UNL1       -0.2166
     38 H           1.5281   -1.1667   27.6156 H       1  UNL1        0.1734
     39 S           0.8357    0.8284   28.1017 S.O2    1  UNL1        0.0540
     40 O          -0.3804    0.0710   28.5457 O.2     1  UNL1       -0.1545
     41 O           2.0519    1.5859   27.6578 O.2     1  UNL1       -0.1545
     42 C           0.0104    2.0733   27.9644 C.3     1  UNL1        0.1724
     43 C          -0.7141    2.1016   25.4695 C.3     1  UNL1        0.0019
     44 C          -1.0697    2.1464   26.9260 C.3     1  UNL1        0.0273
@<TRIPOS>BOND
     1    43    44    1
     2    44    42    1
     3    42    39    1
     4    39    40    2
     5    39    41    2
     6    39    37    1
     7    37    29    1
     8    29    30   ar
     9    30    31   ar
    10    31    32   ar
    11    32    33    1
    12    32    34   ar
    13    34    27    1
    14    27    28    2
    15    27     1    1
    16     1     2   ar
    17     2     3   ar
    18     3     4   ar
    19     4     5   ar
    20     5     6   ar
    21     6     7   ar
    22     7    11    1
    23    11    12   ar
    24    12    13   ar
    25    13    14   ar
    26    14    17    1
    27    17    18    1
    28    18    19    1
    29    19    20    1
    30    20    21    1
    31    21    22    1
    32    22    23    1
    33    23    24    1
    34    24    25    1
    35    25    26    1
    36    14    15   ar
    37    15    16   ar
    38     7     8   ar
    39     8     9   ar
    40    34    35   ar
    41    35    36    1
    42    35    29   ar
    43     9     1   ar
    44     9     4    1
    45    16    11   ar
    46    26    21    1
    47    37    38    1
    48     5    10    1
@<TRIPOS>MOLECULE
*****
 44 48 0 0 0
SMALL
GASTEIGER

@<TRIPOS>ATOM
      1 C           6.3193   -2.5631   30.4774 C.ar    1  UNL1        0.0611
      2 C           6.3621   -3.2051   31.8324 C.ar    1  UNL1        0.1037
      3 N           6.6885   -4.6573   31.6470 N.ar    1  UNL1       -0.2269
      4 C           6.8476   -4.9129   30.1775 C.ar    1  UNL1        0.1407
      5 N           7.1706   -6.1569   29.4043 N.ar    1  UNL1       -0.3374
      6 C           7.2656   -6.1066   27.9082 C.ar    1  UNL1        0.0735
      7 C           7.0374   -4.8123   27.1853 C.ar    1  UNL1        0.0186
      8 C           6.7143   -3.5682   27.9585 C.ar    1  UNL1        0.0047
      9 C           6.6194   -3.6185   29.4546 C.ar    1  UNL1        0.0386
     10 H           7.3204   -7.0064   29.8788 H       1  UNL1        0.1674
     11 C           7.1323   -4.7620   25.6891 C.ar    1  UNL1        0.0208
     12 C           6.6448   -3.5532   24.9468 C.ar    1  UNL1        0.0064
     13 C           6.7397   -3.5029   23.4506 C.ar    1  UNL1        0.0577
     14 C           7.3222   -4.6616   22.6968 C.ar    1  UNL1        0.2249
     15 N           7.8097   -5.8705   23.4391 N.ar    1  UNL1       -0.2101
     16 C           7.7147   -5.9207   24.9352 C.ar    1  UNL1        0.1021
     17 O           7.4171   -4.6114   21.2007 O.3     1  UNL1       -0.4602
     18 C           6.5987   -3.6181   20.4302 C.3     1  UNL1        0.2085
     19 C           5.2230   -3.9851   19.9581 C.3     1  UNL1        0.0647
     20 C           4.0413   -3.1632   20.3798 C.3     1  UNL1        0.0761
     21 N           3.5653   -2.0346   19.5139 N.3     1  UNL1       -0.2683
     22 C           4.1993   -1.7975   18.1752 C.3     1  UNL1        0.1046
     23 C           3.7234   -0.6690   17.3093 C.3     1  UNL1        0.1595
     24 O           2.6134    0.2224   17.7819 O.3     1  UNL1       -0.3508
     25 C           1.9794   -0.0146   19.1205 C.3     1  UNL1        0.1595
     26 C           2.4554   -1.1432   19.9865 C.3     1  UNL1        0.1046
     27 C           6.0277   -1.1191   30.1947 C.2     1  UNL1        0.2015
     28 O           6.8867   -0.0482   30.7990 O.2     1  UNL1       -0.2864
     29 C           2.3273   -0.3868   28.9614 C.ar    1  UNL1        0.0920
     30 C           2.5757    0.0002   27.5337 C.ar    1  UNL1        0.0204
     31 C           3.9748    0.0141   26.9929 C.ar    1  UNL1        0.0312
     32 C           5.1254   -0.3590   27.8799 C.ar    1  UNL1        0.1454
     33 F           6.5245   -0.3450   27.3391 F       1  UNL1       -0.2040
     34 C           4.8770   -0.7460   29.3076 C.ar    1  UNL1        0.0951
     35 C           3.4780   -0.7599   29.8484 C.ar    1  UNL1        0.1598
     36 F           3.2296   -1.1469   31.2762 F       1  UNL1       -0.2026
     37 N           0.9282   -0.4008   29.5022 N.pl3   1  UNL1       -0.2166
     38 H           0.7070   -0.9612   30.2808 H       1  UNL1        0.1734
     39 S          -0.1337    0.4392   28.8567 S.O2    1  UNL1        0.0540
     40 O           0.6125    1.6811   29.2452 O.2     1  UNL1       -0.1545
     41 O          -0.8799   -0.8026   28.4682 O.2     1  UNL1       -0.1545
     42 C          -1.1957    1.2792   28.2112 C.3     1  UNL1        0.1724
     43 C          -0.4525    1.6592   25.7508 C.3     1  UNL1        0.0019
     44 C          -0.8375    2.2109   27.0915 C.3     1  UNL1        0.0273
@<TRIPOS>BOND
     1    43    44    1
     2    44    42    1
     3    42    39    1
     4    39    40    2
     5    39    41    2
     6    39    37    1
     7    37    29    1
     8    29    30   ar
     9    30    31   ar
    10    31    32   ar
    11    32    33    1
    12    32    34   ar
    13    34    27    1
    14    27    28    2
    15    27     1    1
    16     1     2   ar
    17     2     3   ar
    18     3     4   ar
    19     4     5   ar
    20     5     6   ar
    21     6     7   ar
    22     7    11    1
    23    11    12   ar
    24    12    13   ar
    25    13    14   ar
    26    14    17    1
    27    17    18    1
    28    18    19    1
    29    19    20    1
    30    20    21    1
    31    21    22    1
    32    22    23    1
    33    23    24    1
    34    24    25    1
    35    25    26    1
    36    14    15   ar
    37    15    16   ar
    38     7     8   ar
    39     8     9   ar
    40    34    35   ar
    41    35    36    1
    42    35    29   ar
    43     9     1   ar
    44     9     4    1
    45    16    11   ar
    46    26    21    1
    47    37    38    1
    48     5    10    1
@<TRIPOS>MOLECULE
*****
 44 48 0 0 0
SMALL
GASTEIGER

@<TRIPOS>ATOM
      1 C           4.4824   -1.8167   18.6543 C.ar    1  UNL1        0.0611
      2 C           5.2825   -3.0167   18.2420 C.ar    1  UNL1        0.1037
      3 N           5.5858   -3.8170   19.4739 N.ar    1  UNL1       -0.2269
      4 C           4.9731   -3.1118   20.6474 C.ar    1  UNL1        0.1407
      5 N           4.9480   -3.4356   22.1118 N.ar    1  UNL1       -0.3374
      6 C           4.2411   -2.5231   23.0697 C.ar    1  UNL1        0.0735
      7 C           3.5591   -1.2868   22.5631 C.ar    1  UNL1        0.0186
      8 C           3.5842   -0.9630   21.0988 C.ar    1  UNL1        0.0047
      9 C           4.2912   -1.8755   20.1409 C.ar    1  UNL1        0.0386
     10 H           5.3956   -4.2470   22.4443 H       1  UNL1        0.1674
     11 C           2.8521   -0.3743   23.5211 C.ar    1  UNL1        0.0208
     12 C           1.7641    0.5330   23.0282 C.ar    1  UNL1        0.0064
     13 C           1.0571    1.4455   23.9862 C.ar    1  UNL1        0.0577
     14 C           1.4382    1.4506   25.4369 C.ar    1  UNL1        0.2249
     15 N           2.5263    0.5432   25.9298 N.ar    1  UNL1       -0.2101
     16 C           3.2332   -0.3692   24.9719 C.ar    1  UNL1        0.1021
     17 O           0.7312    2.3630   26.3949 O.3     1  UNL1       -0.4602
     18 C          -0.5613    1.9343   27.0237 C.3     1  UNL1        0.2085
     19 C          -0.5971    0.7311   27.9189 C.3     1  UNL1        0.0647
     20 C          -0.4982    0.8996   29.4060 C.3     1  UNL1        0.0761
     21 N           0.8219    0.7191   30.0951 N.3     1  UNL1       -0.2683
     22 C           1.7642   -0.3560   29.6408 C.3     1  UNL1        0.1046
     23 C           3.0843   -0.5365   30.3298 C.3     1  UNL1        0.1595
     24 O           3.4621    0.3580   31.4731 O.3     1  UNL1       -0.3508
     25 C           2.5198    1.4330   31.9274 C.3     1  UNL1        0.1595
     26 C           1.1997    1.6136   31.2384 C.3     1  UNL1        0.1046
     27 C           3.9645   -0.7460   17.7404 C.2     1  UNL1        0.2015
     28 O           3.8490   -1.0078   16.2680 O.2     1  UNL1       -0.2864
     29 C           1.7107    2.3052   18.9073 C.ar    1  UNL1        0.0920
     30 C           2.7569    3.2521   19.4161 C.ar    1  UNL1        0.0204
     31 C           4.2056    2.8663   19.3663 C.ar    1  UNL1        0.0312
     32 C           4.6081    1.5337   18.8078 C.ar    1  UNL1        0.1454
     33 F           6.0568    1.1479   18.7580 F       1  UNL1       -0.2040
     34 C           3.5619    0.5868   18.2990 C.ar    1  UNL1        0.0951
     35 C           2.1132    0.9725   18.3488 C.ar    1  UNL1        0.1598
     36 F           1.0671    0.0256   17.8399 F       1  UNL1       -0.2026
     37 N           0.2620    2.6909   18.9571 N.pl3   1  UNL1       -0.2166
     38 H          -0.2502    2.7893   18.1220 H       1  UNL1        0.1734
     39 S          -0.4063    2.9267   20.2790 S.O2    1  UNL1        0.0540
     40 O          -0.3360    4.4075   20.0505 O.2     1  UNL1       -0.1545
     41 O          -0.4767    1.4459   20.5076 O.2     1  UNL1       -0.1545
     42 C          -1.0747    3.1624   21.6010 C.3     1  UNL1        0.1724
     43 C          -3.4762    3.2433   20.6129 C.3     1  UNL1        0.0019
     44 C          -2.4822    3.6789   21.6484 C.3     1  UNL1        0.0273
@<TRIPOS>BOND
     1    43    44    1
     2    44    42    1
     3    42    39    1
     4    39    40    2
     5    39    41    2
     6    39    37    1
     7    37    29    1
     8    29    30   ar
     9    30    31   ar
    10    31    32   ar
    11    32    33    1
    12    32    34   ar
    13    34    27    1
    14    27    28    2
    15    27     1    1
    16     1     2   ar
    17     2     3   ar
    18     3     4   ar
    19     4     5   ar
    20     5     6   ar
    21     6     7   ar
    22     7    11    1
    23    11    12   ar
    24    12    13   ar
    25    13    14   ar
    26    14    17    1
    27    17    18    1
    28    18    19    1
    29    19    20    1
    30    20    21    1
    31    21    22    1
    32    22    23    1
    33    23    24    1
    34    24    25    1
    35    25    26    1
    36    14    15   ar
    37    15    16   ar
    38     7     8   ar
    39     8     9   ar
    40    34    35   ar
    41    35    36    1
    42    35    29   ar
    43     9     1   ar
    44     9     4    1
    45    16    11   ar
    46    26    21    1
    47    37    38    1
    48     5    10    1
@<TRIPOS>MOLECULE
*****
 44 48 0 0 0
SMALL
GASTEIGER

@<TRIPOS>ATOM
      1 C         -11.8678   -2.7205   18.3187 C.ar    1  UNL1        0.0611
      2 C         -10.6821   -2.5950   17.4085 C.ar    1  UNL1        0.1037
      3 N         -10.7082   -1.2243   16.7998 N.ar    1  UNL1       -0.2269
      4 C         -11.9099   -0.5027   17.3337 C.ar    1  UNL1        0.1407
      5 N         -12.4442    0.8769   17.0863 N.ar    1  UNL1       -0.3374
      6 C         -13.6952    1.3318   17.7777 C.ar    1  UNL1        0.0735
      7 C         -14.4119    0.4071   18.7164 C.ar    1  UNL1        0.0186
      8 C         -13.8776   -0.9725   18.9638 C.ar    1  UNL1        0.0047
      9 C         -12.6266   -1.4274   18.2724 C.ar    1  UNL1        0.0386
     10 H         -11.9738    1.4838   16.4702 H       1  UNL1        0.1674
     11 C         -15.6630    0.8620   19.4078 C.ar    1  UNL1        0.0208
     12 C         -16.0750    2.3028   19.3415 C.ar    1  UNL1        0.0064
     13 C         -17.3260    2.7577   20.0329 C.ar    1  UNL1        0.0577
     14 C         -18.1650    1.7718   20.7906 C.ar    1  UNL1        0.2249
     15 N         -17.7529    0.3310   20.8570 N.ar    1  UNL1       -0.2101
     16 C         -16.5019   -0.1238   20.1656 C.ar    1  UNL1        0.1021
     17 O         -19.4160    2.2267   21.4820 O.3     1  UNL1       -0.4602
     18 C         -19.4423    2.3564   22.9761 C.3     1  UNL1        0.2085
     19 C         -18.1950    2.7356   23.7181 C.3     1  UNL1        0.0647
     20 C         -17.7186    4.1579   23.7066 C.3     1  UNL1        0.0761
     21 N         -16.2486    4.4563   23.6988 N.3     1  UNL1       -0.2683
     22 C         -15.5595    4.7986   22.4111 C.3     1  UNL1        0.1046
     23 C         -14.0896    5.0970   22.4033 C.3     1  UNL1        0.1595
     24 O         -13.3086    5.0533   23.6833 O.3     1  UNL1       -0.3508
     25 C         -13.9976    4.7110   24.9709 C.3     1  UNL1        0.1595
     26 C         -15.4676    4.4126   24.9787 C.3     1  UNL1        0.1046
     27 C         -12.2309   -3.9272   19.1323 C.2     1  UNL1        0.2015
     28 O         -12.9620   -3.7635   20.4316 O.2     1  UNL1       -0.2864
     29 C         -12.5180   -7.5179   17.4663 C.ar    1  UNL1        0.0920
     30 C         -11.1269   -8.0390   17.6746 C.ar    1  UNL1        0.0204
     31 C         -10.1039   -7.1896   18.3687 C.ar    1  UNL1        0.0312
     32 C         -10.4718   -5.8190   18.8546 C.ar    1  UNL1        0.1454
     33 F          -9.4488   -4.9696   19.5488 F       1  UNL1       -0.2040
     34 C         -11.8629   -5.2979   18.6463 C.ar    1  UNL1        0.0951
     35 C         -12.8859   -6.1473   17.9522 C.ar    1  UNL1        0.1598
     36 F         -14.2770   -5.6261   17.7439 F       1  UNL1       -0.2026
     37 N         -13.5410   -8.3673   16.7721 N.pl3   1  UNL1       -0.2166
     38 H         -13.3125   -8.8239   15.9304 H       1  UNL1        0.1734
     39 S         -14.9122   -8.5209   17.3604 S.O2    1  UNL1        0.0540
     40 O         -14.3177   -9.1634   18.5785 O.2     1  UNL1       -0.1545
     41 O         -15.5068   -7.8785   16.1424 O.2     1  UNL1       -0.1545
     42 C         -16.2835   -8.6746   17.9486 C.3     1  UNL1        0.1724
     43 C         -17.7062   -8.4144   20.1070 C.3     1  UNL1        0.0019
     44 C         -16.6735   -7.8798   19.1595 C.3     1  UNL1        0.0273
@<TRIPOS>BOND
     1    43    44    1
     2    44    42    1
     3    42    39    1
     4    39    40    2
     5    39    41    2
     6    39    37    1
     7    37    29    1
     8    29    30   ar
     9    30    31   ar
    10    31    32   ar
    11    32    33    1
    12    32    34   ar
    13    34    27    1
    14    27    28    2
    15    27     1    1
    16     1     2   ar
    17     2     3   ar
    18     3     4   ar
    19     4     5   ar
    20     5     6   ar
    21     6     7   ar
    22     7    11    1
    23    11    12   ar
    24    12    13   ar
    25    13    14   ar
    26    14    17    1
    27    17    18    1
    28    18    19    1
    29    19    20    1
    30    20    21    1
    31    21    22    1
    32    22    23    1
    33    23    24    1
    34    24    25    1
    35    25    26    1
    36    14    15   ar
    37    15    16   ar
    38     7     8   ar
    39     8     9   ar
    40    34    35   ar
    41    35    36    1
    42    35    29   ar
    43     9     1   ar
    44     9     4    1
    45    16    11   ar
    46    26    21    1
    47    37    38    1
    48     5    10    1
@<TRIPOS>MOLECULE
*****
 44 48 0 0 0
SMALL
GASTEIGER

@<TRIPOS>ATOM
      1 C           5.5763   -2.5295   19.3514 C.ar    1  UNL1        0.0611
      2 C           6.1639   -1.7684   18.2002 C.ar    1  UNL1        0.1037
      3 N           7.6550   -1.9225   18.2555 N.ar    1  UNL1       -0.2269
      4 C           7.9889   -2.7788   19.4409 C.ar    1  UNL1        0.1407
      5 N           9.2967   -3.2653   19.9911 N.ar    1  UNL1       -0.3374
      6 C           9.3199   -4.1271   21.2186 C.ar    1  UNL1        0.0735
      7 C           8.0352   -4.5023   21.8959 C.ar    1  UNL1        0.0186
      8 C           6.7273   -4.0157   21.3458 C.ar    1  UNL1        0.0047
      9 C           6.7042   -3.1540   20.1183 C.ar    1  UNL1        0.0386
     10 H          10.1399   -3.0191   19.5465 H       1  UNL1        0.1674
     11 C           8.0584   -5.3641   23.1235 C.ar    1  UNL1        0.0208
     12 C           8.8561   -6.6343   23.1331 C.ar    1  UNL1        0.0064
     13 C           8.8793   -7.4962   24.3606 C.ar    1  UNL1        0.0577
     14 C           8.1048   -7.0876   25.5786 C.ar    1  UNL1        0.2249
     15 N           7.3071   -5.8173   25.5689 N.ar    1  UNL1       -0.2101
     16 C           7.2839   -4.9556   24.3414 C.ar    1  UNL1        0.1021
     17 O           8.1280   -7.9494   26.8061 O.3     1  UNL1       -0.4602
     18 C           9.0733   -7.6328   27.9268 C.3     1  UNL1        0.2085
     19 C           8.6417   -6.7213   29.0372 C.3     1  UNL1        0.0647
     20 C           7.2636   -6.1292   29.0287 C.3     1  UNL1        0.0761
     21 N           6.9564   -4.9321   29.8787 N.3     1  UNL1       -0.2683
     22 C           6.9761   -5.0491   31.3741 C.3     1  UNL1        0.1046
     23 C           6.6689   -3.8520   32.2241 C.3     1  UNL1        0.1595
     24 O           6.3419   -2.5379   31.5788 O.3     1  UNL1       -0.3508
     25 C           6.3222   -2.4210   30.0835 C.3     1  UNL1        0.1595
     26 C           6.6294   -3.6181   29.2334 C.3     1  UNL1        0.1046
     27 C           4.1170   -2.6458   19.6785 C.2     1  UNL1        0.2015
     28 O           3.3477   -3.8614   19.2537 O.2     1  UNL1       -0.2864
     29 C           2.7136   -0.4642   22.6820 C.ar    1  UNL1        0.0920
     30 C           2.0469    0.6522   21.9341 C.ar    1  UNL1        0.0204
     31 C           2.0703    0.6692   20.4344 C.ar    1  UNL1        0.0312
     32 C           2.7603   -0.4301   19.6825 C.ar    1  UNL1        0.1454
     33 F           2.7836   -0.4131   18.1828 F       1  UNL1       -0.2040
     34 C           3.4270   -1.5464   20.4304 C.ar    1  UNL1        0.0951
     35 C           3.4036   -1.5634   21.9301 C.ar    1  UNL1        0.1598
     36 F           4.0703   -2.6799   22.6779 F       1  UNL1       -0.2026
     37 N           2.6903   -0.4812   24.1817 N.pl3   1  UNL1       -0.2166
     38 H           1.8453   -0.6468   24.6590 H       1  UNL1        0.1734
     39 S           3.9544   -0.2459   24.9542 S.O2    1  UNL1        0.0540
     40 O           4.1000    1.0991   24.3062 O.2     1  UNL1       -0.1545
     41 O           3.8087   -1.5908   25.6022 O.2     1  UNL1       -0.1545
     42 C           5.2184   -0.0106   25.7267 C.3     1  UNL1        0.1724
     43 C           6.6380   -1.1019   23.8440 C.3     1  UNL1        0.0019
     44 C           6.5494   -0.2567   25.0800 C.3     1  UNL1        0.0273
@<TRIPOS>BOND
     1    43    44    1
     2    44    42    1
     3    42    39    1
     4    39    40    2
     5    39    41    2
     6    39    37    1
     7    37    29    1
     8    29    30   ar
     9    30    31   ar
    10    31    32   ar
    11    32    33    1
    12    32    34   ar
    13    34    27    1
    14    27    28    2
    15    27     1    1
    16     1     2   ar
    17     2     3   ar
    18     3     4   ar
    19     4     5   ar
    20     5     6   ar
    21     6     7   ar
    22     7    11    1
    23    11    12   ar
    24    12    13   ar
    25    13    14   ar
    26    14    17    1
    27    17    18    1
    28    18    19    1
    29    19    20    1
    30    20    21    1
    31    21    22    1
    32    22    23    1
    33    23    24    1
    34    24    25    1
    35    25    26    1
    36    14    15   ar
    37    15    16   ar
    38     7     8   ar
    39     8     9   ar
    40    34    35   ar
    41    35    36    1
    42    35    29   ar
    43     9     1   ar
    44     9     4    1
    45    16    11   ar
    46    26    21    1
    47    37    38    1
    48     5    10    1
@<TRIPOS>MOLECULE
*****
 44 48 0 0 0
SMALL
GASTEIGER

@<TRIPOS>ATOM
      1 C           5.0157   -3.3802   20.5752 C.ar    1  UNL1        0.0611
      2 C           6.1907   -4.2750   20.3131 C.ar    1  UNL1        0.1037
      3 N           6.9798   -4.3877   21.5838 N.ar    1  UNL1       -0.2269
      4 C           6.2926   -3.5627   22.6311 C.ar    1  UNL1        0.1407
      5 N           6.6153   -3.2980   24.0718 N.ar    1  UNL1       -0.3374
      6 C           5.7241   -2.4106   24.8892 C.ar    1  UNL1        0.0735
      7 C           4.5101   -1.7878   24.2659 C.ar    1  UNL1        0.0186
      8 C           4.1874   -2.0525   22.8252 C.ar    1  UNL1        0.0047
      9 C           5.0786   -2.9400   22.0078 C.ar    1  UNL1        0.0386
     10 H           7.4121   -3.7067   24.4809 H       1  UNL1        0.1674
     11 C           3.6189   -0.9004   25.0834 C.ar    1  UNL1        0.0208
     12 C           2.6747    0.0459   24.4029 C.ar    1  UNL1        0.0064
     13 C           1.7835    0.9333   25.2204 C.ar    1  UNL1        0.0577
     14 C           1.8365    0.8745   26.7183 C.ar    1  UNL1        0.2249
     15 N           2.7807   -0.0719   27.3987 N.ar    1  UNL1       -0.2101
     16 C           3.6719   -0.9593   26.5813 C.ar    1  UNL1        0.1021
     17 O           0.9453    1.7618   27.5358 O.3     1  UNL1       -0.4602
     18 C          -0.5436    1.6875   27.3695 C.3     1  UNL1        0.2085
     19 C          -1.2203    2.4954   26.3020 C.3     1  UNL1        0.0647
     20 C          -1.8354    3.8207   26.6411 C.3     1  UNL1        0.0761
     21 N          -3.2297    4.1383   26.1883 N.3     1  UNL1       -0.2683
     22 C          -3.7247    3.6255   24.8684 C.3     1  UNL1        0.1046
     23 C          -5.1190    3.9430   24.4156 C.3     1  UNL1        0.1595
     24 O          -6.0183    4.7734   25.2826 O.3     1  UNL1       -0.3508
     25 C          -5.5234    5.2862   26.6025 C.3     1  UNL1        0.1595
     26 C          -4.1290    4.9687   27.0553 C.3     1  UNL1        0.1046
     27 C           3.9625   -2.9935   19.5795 C.2     1  UNL1        0.2015
     28 O           3.0517   -4.0387   19.0070 O.2     1  UNL1       -0.2864
     29 C           2.4034    0.6114   19.0102 C.ar    1  UNL1        0.0920
     30 C           3.5356    1.3026   18.3100 C.ar    1  UNL1        0.0204
     31 C           4.8101    0.5618   18.0329 C.ar    1  UNL1        0.0312
     32 C           4.9525   -0.8702   18.4560 C.ar    1  UNL1        0.1454
     33 F           6.2270   -1.6111   18.1789 F       1  UNL1       -0.2040
     34 C           3.8202   -1.5614   19.1563 C.ar    1  UNL1        0.0951
     35 C           2.5457   -0.8206   19.4334 C.ar    1  UNL1        0.1598
     36 F           1.4135   -1.5118   20.1337 F       1  UNL1       -0.2026
     37 N           1.1289    1.3523   19.2873 N.pl3   1  UNL1       -0.2166
     38 H           0.5704    1.6675   18.5404 H       1  UNL1        0.1734
     39 S           0.7053    1.6127   20.7025 S.O2    1  UNL1        0.0540
     40 O          -0.4618    0.6876   20.5234 O.2     1  UNL1       -0.1545
     41 O           1.8723    2.5379   20.8815 O.2     1  UNL1       -0.1545
     42 C           0.2817    1.8732   22.1176 C.3     1  UNL1        0.1724
     43 C          -1.5383    3.6874   21.7342 C.3     1  UNL1        0.0019
     44 C          -0.3391    3.1885   22.4847 C.3     1  UNL1        0.0273
@<TRIPOS>BOND
     1    43    44    1
     2    44    42    1
     3    42    39    1
     4    39    40    2
     5    39    41    2
     6    39    37    1
     7    37    29    1
     8    29    30   ar
     9    30    31   ar
    10    31    32   ar
    11    32    33    1
    12    32    34   ar
    13    34    27    1
    14    27    28    2
    15    27     1    1
    16     1     2   ar
    17     2     3   ar
    18     3     4   ar
    19     4     5   ar
    20     5     6   ar
    21     6     7   ar
    22     7    11    1
    23    11    12   ar
    24    12    13   ar
    25    13    14   ar
    26    14    17    1
    27    17    18    1
    28    18    19    1
    29    19    20    1
    30    20    21    1
    31    21    22    1
    32    22    23    1
    33    23    24    1
    34    24    25    1
    35    25    26    1
    36    14    15   ar
    37    15    16   ar
    38     7     8   ar
    39     8     9   ar
    40    34    35   ar
    41    35    36    1
    42    35    29   ar
    43     9     1   ar
    44     9     4    1
    45    16    11   ar
    46    26    21    1
    47    37    38    1
    48     5    10    1
@<TRIPOS>MOLECULE
*****
 44 48 0 0 0
SMALL
GASTEIGER

@<TRIPOS>ATOM
      1 C           4.7133   -2.8773   19.5491 C.ar    1  UNL1        0.0611
      2 C           5.4378   -3.0215   18.2436 C.ar    1  UNL1        0.1037
      3 N           5.1677   -1.7935   17.4256 N.ar    1  UNL1       -0.2269
      4 C           4.2764   -0.8904   18.2256 C.ar    1  UNL1        0.1407
      5 N           3.6842    0.4553   17.9285 N.ar    1  UNL1       -0.3374
      6 C           2.8112    1.1312   18.9439 C.ar    1  UNL1        0.0735
      7 C           2.5304    0.4613   20.2563 C.ar    1  UNL1        0.0186
      8 C           3.1226   -0.8844   20.5534 C.ar    1  UNL1        0.0047
      9 C           3.9956   -1.5603   19.5380 C.ar    1  UNL1        0.0386
     10 H           3.8685    0.8949   17.0671 H       1  UNL1        0.1674
     11 C           1.6573    1.1373   21.2717 C.ar    1  UNL1        0.0208
     12 C           1.6570    0.6635   22.6948 C.ar    1  UNL1        0.0064
     13 C           0.7840    1.3394   23.7102 C.ar    1  UNL1        0.0577
     14 C          -0.0887    2.4892   23.3024 C.ar    1  UNL1        0.2249
     15 N          -0.0884    2.9631   21.8791 N.ar    1  UNL1       -0.2101
     16 C           0.7846    2.2871   20.8638 C.ar    1  UNL1        0.1021
     17 O          -0.9618    3.1652   24.3177 O.3     1  UNL1       -0.4602
     18 C          -1.2461    2.4935   25.6283 C.3     1  UNL1        0.2085
     19 C          -0.8009    3.1321   26.9106 C.3     1  UNL1        0.0647
     20 C           0.6286    3.0154   27.3497 C.3     1  UNL1        0.0761
     21 N           1.0096    2.0221   28.4071 N.3     1  UNL1       -0.2683
     22 C           1.0364    2.4348   29.8491 C.3     1  UNL1        0.1046
     23 C           1.4174    1.4415   30.9065 C.3     1  UNL1        0.1595
     24 O           1.7717    0.0355   30.5220 O.3     1  UNL1       -0.3508
     25 C           1.7449   -0.3771   29.0802 C.3     1  UNL1        0.1595
     26 C           1.3639    0.6162   28.0227 C.3     1  UNL1        0.1046
     27 C           4.7077   -3.8751   20.6692 C.2     1  UNL1        0.2015
     28 O           3.8358   -5.0927   20.5846 O.2     1  UNL1       -0.2864
     29 C           5.8591   -2.8228   24.3184 C.ar    1  UNL1        0.0920
     30 C           7.3064   -3.2154   24.2833 C.ar    1  UNL1        0.0204
     31 C           7.8874   -3.8279   23.0434 C.ar    1  UNL1        0.0312
     32 C           7.0212   -4.0478   21.8387 C.ar    1  UNL1        0.1454
     33 F           7.6023   -4.6603   20.5989 F       1  UNL1       -0.2040
     34 C           5.5740   -3.6552   21.8739 C.ar    1  UNL1        0.0951
     35 C           4.9929   -3.0427   23.1138 C.ar    1  UNL1        0.1598
     36 F           3.5456   -2.6501   23.1488 F       1  UNL1       -0.2026
     37 N           5.2781   -2.2103   25.5583 N.pl3   1  UNL1       -0.2166
     38 H           5.0591   -2.7784   26.3319 H       1  UNL1        0.1734
     39 S           5.0307   -0.7321   25.6195 S.O2    1  UNL1        0.0540
     40 O           6.5084   -0.4882   25.7029 O.2     1  UNL1       -0.1545
     41 O           3.5530   -0.9759   25.5360 O.2     1  UNL1       -0.1545
     42 C           4.7832    0.7461   25.6806 C.3     1  UNL1        0.1724
     43 C           5.2189    0.9328   23.1261 C.3     1  UNL1        0.0019
     44 C           4.8033    1.5626   24.4224 C.3     1  UNL1        0.0273
@<TRIPOS>BOND
     1    43    44    1
     2    44    42    1
     3    42    39    1
     4    39    40    2
     5    39    41    2
     6    39    37    1
     7    37    29    1
     8    29    30   ar
     9    30    31   ar
    10    31    32   ar
    11    32    33    1
    12    32    34   ar
    13    34    27    1
    14    27    28    2
    15    27     1    1
    16     1     2   ar
    17     2     3   ar
    18     3     4   ar
    19     4     5   ar
    20     5     6   ar
    21     6     7   ar
    22     7    11    1
    23    11    12   ar
    24    12    13   ar
    25    13    14   ar
    26    14    17    1
    27    17    18    1
    28    18    19    1
    29    19    20    1
    30    20    21    1
    31    21    22    1
    32    22    23    1
    33    23    24    1
    34    24    25    1
    35    25    26    1
    36    14    15   ar
    37    15    16   ar
    38     7     8   ar
    39     8     9   ar
    40    34    35   ar
    41    35    36    1
    42    35    29   ar
    43     9     1   ar
    44     9     4    1
    45    16    11   ar
    46    26    21    1
    47    37    38    1
    48     5    10    1
@<TRIPOS>MOLECULE
*****
 44 48 0 0 0
SMALL
GASTEIGER

@<TRIPOS>ATOM
      1 C           5.6019   -3.1590   23.5542 C.ar    1  UNL1        0.0611
      2 C           5.9880   -3.3839   24.9861 C.ar    1  UNL1        0.1037
      3 N           5.2265   -2.4056   25.8305 N.ar    1  UNL1       -0.2269
      4 C           4.3699   -1.5761   24.9205 C.ar    1  UNL1        0.1407
      5 N           3.4085   -0.4570   25.1912 N.ar    1  UNL1       -0.3374
      6 C           2.6792    0.1965   24.0549 C.ar    1  UNL1        0.0735
      7 C           2.9113   -0.2692   22.6481 C.ar    1  UNL1        0.0186
      8 C           3.8726   -1.3883   22.3774 C.ar    1  UNL1        0.0047
      9 C           4.6019   -2.0418   23.5136 C.ar    1  UNL1        0.0386
     10 H           3.2562   -0.1513   26.1145 H       1  UNL1        0.1674
     11 C           2.1819    0.3844   21.5118 C.ar    1  UNL1        0.0208
     12 C           1.8653   -0.4005   20.2734 C.ar    1  UNL1        0.0064
     13 C           1.1359    0.2530   19.1372 C.ar    1  UNL1        0.0577
     14 C           0.7232    1.6915   19.2394 C.ar    1  UNL1        0.2249
     15 N           1.0399    2.4764   20.4778 N.ar    1  UNL1       -0.2101
     16 C           1.7692    1.8229   21.6140 C.ar    1  UNL1        0.1021
     17 O          -0.0061    2.3450   18.1032 O.3     1  UNL1       -0.4602
     18 C           0.2177    3.7980   17.8053 C.3     1  UNL1        0.2085
     19 C          -0.9531    4.7000   17.5490 C.3     1  UNL1        0.0647
     20 C          -2.2796    4.1158   17.1627 C.3     1  UNL1        0.0761
     21 N          -3.3140    3.8436   18.2143 N.3     1  UNL1       -0.2683
     22 C          -4.7606    3.7339   17.8328 C.3     1  UNL1        0.1046
     23 C          -5.7949    3.4616   18.8844 C.3     1  UNL1        0.1595
     24 O          -5.3829    3.2990   20.3174 O.3     1  UNL1       -0.3508
     25 C          -3.9364    3.4086   20.6990 C.3     1  UNL1        0.1595
     26 C          -2.9019    3.6809   19.6474 C.3     1  UNL1        0.1046
     27 C           6.1242   -3.9182   22.3706 C.2     1  UNL1        0.2015
     28 O           7.1007   -5.0391   22.5699 O.2     1  UNL1       -0.2864
     29 C           5.9982   -2.2047   18.7930 C.ar    1  UNL1        0.0920
     30 C           4.7615   -2.8325   18.2215 C.ar    1  UNL1        0.0204
     31 C           3.9792   -3.8221   19.0330 C.ar    1  UNL1        0.0312
     32 C           4.4333   -4.1841   20.4160 C.ar    1  UNL1        0.1454
     33 F           3.6510   -5.1737   21.2274 F       1  UNL1       -0.2040
     34 C           5.6700   -3.5563   20.9875 C.ar    1  UNL1        0.0951
     35 C           6.4524   -2.5666   20.1760 C.ar    1  UNL1        0.1598
     36 F           7.6890   -1.9389   20.7476 F       1  UNL1       -0.2026
     37 N           6.7806   -1.2151   17.9816 N.pl3   1  UNL1       -0.2166
     38 H           7.6316   -1.4830   17.5655 H       1  UNL1        0.1734
     39 S           6.2662    0.1827   17.8041 S.O2    1  UNL1        0.0540
     40 O           5.8754    0.2227   19.2517 O.2     1  UNL1       -0.1545
     41 O           6.6570    0.1427   16.3564 O.2     1  UNL1       -0.1545
     42 C           5.7519    1.5805   17.6265 C.3     1  UNL1        0.1724
     43 C           3.8741    3.2880   18.1823 C.3     1  UNL1        0.0019
     44 C           4.7464    2.1378   18.5900 C.3     1  UNL1        0.0273
@<TRIPOS>BOND
     1    43    44    1
     2    44    42    1
     3    42    39    1
     4    39    40    2
     5    39    41    2
     6    39    37    1
     7    37    29    1
     8    29    30   ar
     9    30    31   ar
    10    31    32   ar
    11    32    33    1
    12    32    34   ar
    13    34    27    1
    14    27    28    2
    15    27     1    1
    16     1     2   ar
    17     2     3   ar
    18     3     4   ar
    19     4     5   ar
    20     5     6   ar
    21     6     7   ar
    22     7    11    1
    23    11    12   ar
    24    12    13   ar
    25    13    14   ar
    26    14    17    1
    27    17    18    1
    28    18    19    1
    29    19    20    1
    30    20    21    1
    31    21    22    1
    32    22    23    1
    33    23    24    1
    34    24    25    1
    35    25    26    1
    36    14    15   ar
    37    15    16   ar
    38     7     8   ar
    39     8     9   ar
    40    34    35   ar
    41    35    36    1
    42    35    29   ar
    43     9     1   ar
    44     9     4    1
    45    16    11   ar
    46    26    21    1
    47    37    38    1
    48     5    10    1
@<TRIPOS>MOLECULE
*****
 44 48 0 0 0
SMALL
GASTEIGER

@<TRIPOS>ATOM
      1 C           5.7282   -2.7707   19.3229 C.ar    1  UNL1        0.0611
      2 C           6.9783   -2.8385   18.4967 C.ar    1  UNL1        0.1037
      3 N           7.0089   -1.6343   17.6027 N.ar    1  UNL1       -0.2269
      4 C           5.7777   -0.8224   17.8765 C.ar    1  UNL1        0.1407
      5 N           5.2751    0.4657   17.2950 N.ar    1  UNL1       -0.3374
      6 C           3.9810    1.0515   17.7767 C.ar    1  UNL1        0.0735
      7 C           3.1895    0.3492   18.8399 C.ar    1  UNL1        0.0186
      8 C           3.6921   -0.9389   19.4213 C.ar    1  UNL1        0.0047
      9 C           4.9862   -1.5247   18.9396 C.ar    1  UNL1        0.0386
     10 H           5.7946    0.9267   16.5973 H       1  UNL1        0.1674
     11 C           1.8953    0.9350   19.3216 C.ar    1  UNL1        0.0208
     12 C           1.4613    2.2891   18.8442 C.ar    1  UNL1        0.0064
     13 C           0.1671    2.8750   19.3259 C.ar    1  UNL1        0.0577
     14 C          -0.6930    2.1066   20.2850 C.ar    1  UNL1        0.2249
     15 N          -0.2589    0.7524   20.7624 N.ar    1  UNL1       -0.2101
     16 C           1.0352    0.1667   20.2807 C.ar    1  UNL1        0.1021
     17 O          -1.9871    2.6924   20.7667 O.3     1  UNL1       -0.4602
     18 C          -2.7310    3.6737   19.9102 C.3     1  UNL1        0.2085
     19 C          -4.1532    4.0242   20.2335 C.3     1  UNL1        0.0647
     20 C          -4.9771    3.1051   21.0857 C.3     1  UNL1        0.0761
     21 N          -5.4243    3.5452   22.4481 N.3     1  UNL1       -0.2683
     22 C          -6.7429    4.2402   22.6166 C.3     1  UNL1        0.1046
     23 C          -7.1900    4.6803   23.9790 C.3     1  UNL1        0.1595
     24 O          -6.3187    4.4255   25.1730 O.3     1  UNL1       -0.3508
     25 C          -5.0001    3.7305   25.0047 C.3     1  UNL1        0.1595
     26 C          -4.5529    3.2904   23.6422 C.3     1  UNL1        0.1046
     27 C           5.2960   -3.7730   20.3518 C.2     1  UNL1        0.2015
     28 O           4.4268   -4.9289   19.9542 O.2     1  UNL1       -0.2864
     29 C           5.2961   -2.7378   24.1831 C.ar    1  UNL1        0.0920
     30 C           6.6072   -3.3120   24.6318 C.ar    1  UNL1        0.0204
     31 C           7.4813   -4.0398   23.6539 C.ar    1  UNL1        0.0312
     32 C           7.0443   -4.1935   22.2272 C.ar    1  UNL1        0.1454
     33 F           7.9183   -4.9212   21.2493 F       1  UNL1       -0.2040
     34 C           5.7331   -3.6193   21.7785 C.ar    1  UNL1        0.0951
     35 C           4.8591   -2.8915   22.7565 C.ar    1  UNL1        0.1598
     36 F           3.5480   -2.3174   22.3077 F       1  UNL1       -0.2026
     37 N           4.4221   -2.0100   25.1611 N.pl3   1  UNL1       -0.2166
     38 H           3.9089   -2.5145   25.8329 H       1  UNL1        0.1734
     39 S           4.3299   -0.5136   25.1154 S.O2    1  UNL1        0.0540
     40 O           2.9072   -0.6154   24.6512 O.2     1  UNL1       -0.1545
     41 O           5.7527   -0.4118   25.5795 O.2     1  UNL1       -0.1545
     42 C           4.2379    0.9829   25.0697 C.3     1  UNL1        0.1724
     43 C           5.5068    3.2500   25.0523 C.3     1  UNL1        0.0019
     44 C           5.4384    1.7968   24.6870 C.3     1  UNL1        0.0273
@<TRIPOS>BOND
     1    43    44    1
     2    44    42    1
     3    42    39    1
     4    39    40    2
     5    39    41    2
     6    39    37    1
     7    37    29    1
     8    29    30   ar
     9    30    31   ar
    10    31    32   ar
    11    32    33    1
    12    32    34   ar
    13    34    27    1
    14    27    28    2
    15    27     1    1
    16     1     2   ar
    17     2     3   ar
    18     3     4   ar
    19     4     5   ar
    20     5     6   ar
    21     6     7   ar
    22     7    11    1
    23    11    12   ar
    24    12    13   ar
    25    13    14   ar
    26    14    17    1
    27    17    18    1
    28    18    19    1
    29    19    20    1
    30    20    21    1
    31    21    22    1
    32    22    23    1
    33    23    24    1
    34    24    25    1
    35    25    26    1
    36    14    15   ar
    37    15    16   ar
    38     7     8   ar
    39     8     9   ar
    40    34    35   ar
    41    35    36    1
    42    35    29   ar
    43     9     1   ar
    44     9     4    1
    45    16    11   ar
    46    26    21    1
    47    37    38    1
    48     5    10    1
