@<TRIPOS>MOLECULE
*****
 36 39 0 0 0
SMALL
GASTEIGER

@<TRIPOS>ATOM
      1 C         -11.4361  -15.4810   19.0784 C.3     1  UNL1        0.0214
      2 C         -11.4482  -16.7295   19.9097 C.3     1  UNL1        0.0745
      3 N         -10.5515  -17.8775   19.5520 N.am    1  UNL1       -0.2903
      4 C          -9.2374  -18.0500   20.2544 C.2     1  UNL1        0.3044
      5 O          -8.8201  -17.0745   21.3146 O.2     1  UNL1       -0.2525
      6 N          -8.3408  -19.1980   19.8967 N.am    1  UNL1       -0.2683
      7 H         -10.8254  -18.5178   18.8561 H       1  UNL1        0.1509
      8 H          -8.6147  -19.8383   19.2008 H       1  UNL1        0.1564
      9 C          -7.0267  -19.3705   20.5991 C.ar    1  UNL1        0.0517
     10 C          -6.9699  -20.0776   21.9208 C.ar    1  UNL1        0.0147
     11 C          -5.6559  -20.2501   22.6233 C.ar    1  UNL1        0.0014
     12 C          -4.3986  -19.7156   22.0041 C.ar    1  UNL1        0.0032
     13 C          -4.4553  -19.0085   20.6824 C.ar    1  UNL1        0.0386
     14 C          -5.7694  -18.8360   19.9799 C.ar    1  UNL1        0.0178
     15 C          -3.1980  -18.4740   20.0632 C.ar    1  UNL1        0.1839
     16 N          -2.6535  -18.8424   18.7149 N.ar    1  UNL1       -0.1081
     17 N          -1.3834  -18.0733   18.5020 N.ar    1  UNL1       -0.0227
     18 N          -1.1429  -17.2295   19.7187 N.ar    1  UNL1       -0.0429
     19 N          -2.2644  -17.4772   20.6835 N.ar    1  UNL1       -0.2113
     20 C          -2.4242  -16.8399   22.0320 C.3     1  UNL1        0.1573
     21 C         -12.3570  -16.8299   21.0989 C.3     1  UNL1        0.0369
     22 C         -12.6004  -18.1608   21.7465 C.3     1  UNL1        0.0738
     23 N         -11.6048  -18.7129   22.7234 N.3     1  UNL1       -0.2726
     24 C         -11.0254  -20.0801   22.5119 C.3     1  UNL1        0.0721
     25 C         -10.0299  -20.6321   23.4888 C.3     1  UNL1        0.0174
     26 C          -9.6139  -19.8168   24.6772 C.3     1  UNL1        0.0031
     27 C         -10.1933  -18.4495   24.8886 C.3     1  UNL1        0.0204
     28 C         -11.1888  -17.8976   23.9118 C.3     1  UNL1        0.0724
     29 C          -9.7772  -17.6342   26.0770 C.3     1  UNL1        0.0277
     30 C          -8.5214  -16.8158   26.0225 C.ar    1  UNL1       -0.0220
     31 C          -7.8627  -16.3673   27.2934 C.ar    1  UNL1       -0.0020
     32 C          -6.6068  -15.5489   27.2388 C.ar    1  UNL1        0.0293
     33 C          -6.0097  -15.1788   25.9135 C.ar    1  UNL1        0.1401
     34 F          -4.7538  -14.3603   25.8591 F       1  UNL1       -0.2042
     35 C          -6.6684  -15.6272   24.6427 C.ar    1  UNL1        0.0293
     36 C          -7.9243  -16.4457   24.6972 C.ar    1  UNL1       -0.0020
@<TRIPOS>BOND
     1     2     1    1
     2     2    21    1
     3    21    22    1
     4    22    23    1
     5    23    24    1
     6    24    25    1
     7    25    26    1
     8    26    27    1
     9    27    29    1
    10    29    30    1
    11    30    31   ar
    12    31    32   ar
    13    32    33   ar
    14    33    34    1
    15    33    35   ar
    16    35    36   ar
    17    27    28    1
    18     2     3    1
    19     3     4   am
    20     4     5    2
    21     4     6   am
    22     6     9    1
    23     9    10   ar
    24    10    11   ar
    25    11    12   ar
    26    12    13   ar
    27    13    15    1
    28    15    16   ar
    29    16    17   ar
    30    17    18   ar
    31    18    19   ar
    32    19    20    1
    33    13    14   ar
    34    28    23    1
    35    14     9   ar
    36    36    30   ar
    37    19    15   ar
    38     3     7    1
    39     6     8    1
@<TRIPOS>MOLECULE
*****
 36 39 0 0 0
SMALL
GASTEIGER

@<TRIPOS>ATOM
      1 C          -5.4681  -15.1623   25.6566 C.3     1  UNL1        0.0214
      2 C          -5.3366  -15.7216   24.2710 C.3     1  UNL1        0.0745
      3 N          -6.1813  -15.1753   23.1584 N.am    1  UNL1       -0.2903
      4 C          -7.5518  -15.7337   22.9137 C.2     1  UNL1        0.3044
      5 O          -8.0775  -16.8384   23.7815 O.2     1  UNL1       -0.2525
      6 N          -8.3966  -15.1873   21.8010 N.am    1  UNL1       -0.2683
      7 H          -5.8363  -14.4502   22.5888 H       1  UNL1        0.1509
      8 H          -8.0515  -14.4623   21.2314 H       1  UNL1        0.1564
      9 C          -9.7671  -15.7457   21.5563 C.ar    1  UNL1        0.0517
     10 C         -10.4047  -15.6036   20.2060 C.ar    1  UNL1        0.0147
     11 C         -11.7752  -16.1620   19.9612 C.ar    1  UNL1        0.0014
     12 C         -12.5081  -16.8625   21.0667 C.ar    1  UNL1        0.0032
     13 C         -11.8705  -17.0046   22.4170 C.ar    1  UNL1        0.0386
     14 C         -10.5000  -16.4462   22.6618 C.ar    1  UNL1        0.0178
     15 C         -12.6034  -17.7052   23.5225 C.ar    1  UNL1        0.1839
     16 N         -14.0762  -17.6220   23.7951 N.ar    1  UNL1       -0.1081
     17 N         -14.3752  -18.4773   24.9906 N.ar    1  UNL1       -0.0227
     18 N         -13.0874  -19.0890   25.4568 N.ar    1  UNL1       -0.0429
     19 N         -11.9924  -18.6118   24.5494 N.ar    1  UNL1       -0.2113
     20 C         -10.5411  -18.9771   24.6512 C.3     1  UNL1        0.1573
     21 C          -4.3603  -16.8272   23.9980 C.3     1  UNL1        0.0369
     22 C          -3.3668  -16.6921   22.8824 C.3     1  UNL1        0.0738
     23 N          -3.3913  -17.6581   21.7351 N.3     1  UNL1       -0.2726
     24 C          -2.3560  -17.5648   20.6538 C.3     1  UNL1        0.0721
     25 C          -2.3805  -18.5308   19.5066 C.3     1  UNL1        0.0174
     26 C          -3.4404  -19.5902   19.4407 C.3     1  UNL1        0.0031
     27 C          -4.4758  -19.6836   20.5220 C.3     1  UNL1        0.0204
     28 C          -4.4512  -18.7175   21.6692 C.3     1  UNL1        0.0724
     29 C          -5.5356  -20.7430   20.4561 C.3     1  UNL1        0.0277
     30 C          -6.9609  -20.3621   20.1849 C.ar    1  UNL1       -0.0220
     31 C          -7.7582  -19.6450   21.2338 C.ar    1  UNL1       -0.0020
     32 C          -9.1834  -19.2642   20.9626 C.ar    1  UNL1        0.0293
     33 C          -9.8114  -19.6004   19.6426 C.ar    1  UNL1        0.1401
     34 F         -11.2368  -19.2196   19.3714 F       1  UNL1       -0.2042
     35 C          -9.0142  -20.3175   18.5937 C.ar    1  UNL1        0.0293
     36 C          -7.5889  -20.6984   18.8649 C.ar    1  UNL1       -0.0020
@<TRIPOS>BOND
     1     2     1    1
     2     2    21    1
     3    21    22    1
     4    22    23    1
     5    23    24    1
     6    24    25    1
     7    25    26    1
     8    26    27    1
     9    27    29    1
    10    29    30    1
    11    30    31   ar
    12    31    32   ar
    13    32    33   ar
    14    33    34    1
    15    33    35   ar
    16    35    36   ar
    17    27    28    1
    18     2     3    1
    19     3     4   am
    20     4     5    2
    21     4     6   am
    22     6     9    1
    23     9    10   ar
    24    10    11   ar
    25    11    12   ar
    26    12    13   ar
    27    13    15    1
    28    15    16   ar
    29    16    17   ar
    30    17    18   ar
    31    18    19   ar
    32    19    20    1
    33    13    14   ar
    34    28    23    1
    35    14     9   ar
    36    36    30   ar
    37    19    15   ar
    38     3     7    1
    39     6     8    1
@<TRIPOS>MOLECULE
*****
 36 39 0 0 0
SMALL
GASTEIGER

@<TRIPOS>ATOM
      1 C         -13.4920  -18.1506   23.5339 C.3     1  UNL1        0.0214
      2 C         -12.4133  -17.5393   22.6896 C.3     1  UNL1        0.0745
      3 N         -11.6723  -16.3304   23.1791 N.am    1  UNL1       -0.2903
      4 C         -10.2939  -16.4768   23.7521 C.2     1  UNL1        0.3044
      5 O          -9.6565  -17.8320   23.8357 O.2     1  UNL1       -0.2525
      6 N          -9.5529  -15.2679   24.2416 N.am    1  UNL1       -0.2683
      7 H         -12.0907  -15.4410   23.1242 H       1  UNL1        0.1509
      8 H          -9.9713  -14.3784   24.1867 H       1  UNL1        0.1564
      9 C          -8.1744  -15.4143   24.8147 C.ar    1  UNL1        0.0517
     10 C          -7.9789  -15.4372   26.3017 C.ar    1  UNL1        0.0147
     11 C          -6.6005  -15.5836   26.8748 C.ar    1  UNL1        0.0014
     12 C          -5.4175  -15.7070   25.9608 C.ar    1  UNL1        0.0032
     13 C          -5.6130  -15.6840   24.4738 C.ar    1  UNL1        0.0386
     14 C          -6.9915  -15.5377   23.9007 C.ar    1  UNL1        0.0178
     15 C          -4.4300  -15.8075   23.5599 C.ar    1  UNL1        0.1839
     16 N          -3.9875  -14.7919   22.5484 N.ar    1  UNL1       -0.1081
     17 N          -2.7658  -15.3249   21.8603 N.ar    1  UNL1       -0.0227
     18 N          -2.4532  -16.6698   22.4465 N.ar    1  UNL1       -0.0429
     19 N          -3.4817  -16.9680   23.4969 N.ar    1  UNL1       -0.2113
     20 C          -3.5500  -18.2089   24.3368 C.3     1  UNL1        0.1573
     21 C         -12.0757  -18.1369   21.3558 C.3     1  UNL1        0.0369
     22 C         -10.8787  -17.6472   20.5960 C.3     1  UNL1        0.0738
     23 N          -9.7869  -18.6041   20.2186 N.3     1  UNL1       -0.2726
     24 C          -9.9251  -19.4527   18.9895 C.3     1  UNL1        0.0721
     25 C          -8.8334  -20.4096   18.6121 C.3     1  UNL1        0.0174
     26 C          -7.6034  -20.5179   19.4638 C.3     1  UNL1        0.0031
     27 C          -7.4652  -19.6693   20.6929 C.3     1  UNL1        0.0204
     28 C          -8.5569  -18.7124   21.0703 C.3     1  UNL1        0.0724
     29 C          -6.2352  -19.7775   21.5446 C.3     1  UNL1        0.0277
     30 C          -4.8880  -19.4758   20.9583 C.ar    1  UNL1       -0.0220
     31 C          -3.6541  -20.0734   21.5670 C.ar    1  UNL1       -0.0020
     32 C          -2.3068  -19.7716   20.9807 C.ar    1  UNL1        0.0293
     33 C          -2.1934  -18.8722   19.7856 C.ar    1  UNL1        0.1401
     34 F          -0.8461  -18.5705   19.1993 F       1  UNL1       -0.2042
     35 C          -3.4272  -18.2746   19.1769 C.ar    1  UNL1        0.0293
     36 C          -4.7745  -18.5764   19.7632 C.ar    1  UNL1       -0.0020
@<TRIPOS>BOND
     1     2     1    1
     2     2    21    1
     3    21    22    1
     4    22    23    1
     5    23    24    1
     6    24    25    1
     7    25    26    1
     8    26    27    1
     9    27    29    1
    10    29    30    1
    11    30    31   ar
    12    31    32   ar
    13    32    33   ar
    14    33    34    1
    15    33    35   ar
    16    35    36   ar
    17    27    28    1
    18     2     3    1
    19     3     4   am
    20     4     5    2
    21     4     6   am
    22     6     9    1
    23     9    10   ar
    24    10    11   ar
    25    11    12   ar
    26    12    13   ar
    27    13    15    1
    28    15    16   ar
    29    16    17   ar
    30    17    18   ar
    31    18    19   ar
    32    19    20    1
    33    13    14   ar
    34    28    23    1
    35    14     9   ar
    36    36    30   ar
    37    19    15   ar
    38     3     7    1
    39     6     8    1
@<TRIPOS>MOLECULE
*****
 36 39 0 0 0
SMALL
GASTEIGER

@<TRIPOS>ATOM
      1 C          -6.7204  -14.4343   27.5990 C.3     1  UNL1        0.0214
      2 C          -6.4137  -15.5183   26.6087 C.3     1  UNL1        0.0745
      3 N          -7.3186  -16.7093   26.4962 N.am    1  UNL1       -0.2903
      4 C          -8.5011  -16.6684   25.5744 C.2     1  UNL1        0.3044
      5 O          -8.7788  -15.4364   24.7651 O.2     1  UNL1       -0.2525
      6 N          -9.4060  -17.8594   25.4620 N.am    1  UNL1       -0.2683
      7 H          -7.1363  -17.5179   27.0275 H       1  UNL1        0.1509
      8 H          -9.2238  -18.6680   25.9932 H       1  UNL1        0.1564
      9 C         -10.5886  -17.8185   24.5401 C.ar    1  UNL1        0.0517
     10 C         -11.8607  -18.5165   24.9206 C.ar    1  UNL1        0.0147
     11 C         -13.0432  -18.4756   23.9988 C.ar    1  UNL1        0.0014
     12 C         -12.9538  -17.7366   22.6965 C.ar    1  UNL1        0.0032
     13 C         -11.6819  -17.0386   22.3160 C.ar    1  UNL1        0.0386
     14 C         -10.4992  -17.0795   23.2378 C.ar    1  UNL1        0.0178
     15 C         -11.5924  -16.2997   21.0137 C.ar    1  UNL1        0.1839
     16 N         -12.6786  -16.1919   19.9847 N.ar    1  UNL1       -0.1081
     17 N         -12.1586  -15.3644   18.8468 N.ar    1  UNL1       -0.0227
     18 N         -10.7511  -14.9607   19.1725 N.ar    1  UNL1       -0.0429
     19 N         -10.4012  -15.5387   20.5117 N.ar    1  UNL1       -0.2113
     20 C          -9.0903  -15.3831   21.2239 C.3     1  UNL1        0.1573
     21 C          -5.2021  -15.4114   25.7308 C.3     1  UNL1        0.0369
     22 C          -5.3520  -15.4417   24.2387 C.3     1  UNL1        0.0738
     23 N          -4.7533  -16.5666   23.4473 N.3     1  UNL1       -0.2726
     24 C          -3.3165  -16.5024   23.0214 C.3     1  UNL1        0.0721
     25 C          -2.7179  -17.6273   22.2301 C.3     1  UNL1        0.0174
     26 C          -3.5560  -18.8164   21.8648 C.3     1  UNL1        0.0031
     27 C          -4.9928  -18.8807   22.2908 C.3     1  UNL1        0.0204
     28 C          -5.5914  -17.7558   23.0820 C.3     1  UNL1        0.0724
     29 C          -5.8309  -20.0698   21.9255 C.3     1  UNL1        0.0277
     30 C          -7.1621  -19.8740   21.2624 C.ar    1  UNL1       -0.0220
     31 C          -7.2377  -19.6676   19.7785 C.ar    1  UNL1       -0.0020
     32 C          -8.5689  -19.4718   19.1155 C.ar    1  UNL1        0.0293
     33 C          -9.8244  -19.4823   19.9362 C.ar    1  UNL1        0.1401
     34 F         -11.1556  -19.2865   19.2731 F       1  UNL1       -0.2042
     35 C          -9.7488  -19.6886   21.4200 C.ar    1  UNL1        0.0293
     36 C          -8.4176  -19.8845   22.0831 C.ar    1  UNL1       -0.0020
@<TRIPOS>BOND
     1     2     1    1
     2     2    21    1
     3    21    22    1
     4    22    23    1
     5    23    24    1
     6    24    25    1
     7    25    26    1
     8    26    27    1
     9    27    29    1
    10    29    30    1
    11    30    31   ar
    12    31    32   ar
    13    32    33   ar
    14    33    34    1
    15    33    35   ar
    16    35    36   ar
    17    27    28    1
    18     2     3    1
    19     3     4   am
    20     4     5    2
    21     4     6   am
    22     6     9    1
    23     9    10   ar
    24    10    11   ar
    25    11    12   ar
    26    12    13   ar
    27    13    15    1
    28    15    16   ar
    29    16    17   ar
    30    17    18   ar
    31    18    19   ar
    32    19    20    1
    33    13    14   ar
    34    28    23    1
    35    14     9   ar
    36    36    30   ar
    37    19    15   ar
    38     3     7    1
    39     6     8    1
@<TRIPOS>MOLECULE
*****
 36 39 0 0 0
SMALL
GASTEIGER

@<TRIPOS>ATOM
      1 C          -7.4145  -14.7988   27.9571 C.3     1  UNL1        0.0214
      2 C          -7.0092  -15.7872   26.9042 C.3     1  UNL1        0.0745
      3 N          -7.8187  -17.0322   26.6928 N.am    1  UNL1       -0.2903
      4 C          -9.0536  -16.9885   25.8425 C.2     1  UNL1        0.3044
      5 O          -9.4790  -15.6998   25.2036 O.2     1  UNL1       -0.2525
      6 N          -9.8631  -18.2335   25.6312 N.am    1  UNL1       -0.2683
      7 H          -7.5395  -17.8781   27.1122 H       1  UNL1        0.1509
      8 H          -9.5839  -19.0793   26.0505 H       1  UNL1        0.1564
      9 C         -11.0980  -18.1898   24.7809 C.ar    1  UNL1        0.0517
     10 C         -12.4120  -18.6458   25.3427 C.ar    1  UNL1        0.0147
     11 C         -13.6469  -18.6021   24.4924 C.ar    1  UNL1        0.0014
     12 C         -13.5680  -18.1025   23.0803 C.ar    1  UNL1        0.0032
     13 C         -12.2541  -17.6465   22.5185 C.ar    1  UNL1        0.0386
     14 C         -11.0190  -17.6902   23.3688 C.ar    1  UNL1        0.0178
     15 C         -12.1751  -17.1468   21.1064 C.ar    1  UNL1        0.1839
     16 N         -12.8122  -15.8963   20.5766 N.ar    1  UNL1       -0.1081
     17 N         -12.4760  -15.7866   19.1189 N.ar    1  UNL1       -0.0227
     18 N         -11.6311  -16.9691   18.7477 N.ar    1  UNL1       -0.0429
     19 N         -11.4452  -17.8098   19.9760 N.ar    1  UNL1       -0.2113
     20 C         -10.6660  -19.0889   20.0593 C.3     1  UNL1        0.1573
     21 C          -5.7942  -15.5307   26.0626 C.3     1  UNL1        0.0369
     22 C          -5.9461  -15.1988   24.6077 C.3     1  UNL1        0.0738
     23 N          -6.2952  -16.2770   23.6249 N.3     1  UNL1       -0.2726
     24 C          -7.6642  -16.3196   23.0132 C.3     1  UNL1        0.0721
     25 C          -8.0132  -17.3977   22.0305 C.3     1  UNL1        0.0174
     26 C          -6.9933  -18.4332   21.6595 C.3     1  UNL1        0.0031
     27 C          -5.6244  -18.3906   22.2712 C.3     1  UNL1        0.0204
     28 C          -5.2754  -17.3125   23.2539 C.3     1  UNL1        0.0724
     29 C          -4.6045  -19.4260   21.9001 C.3     1  UNL1        0.0277
     30 C          -3.3770  -19.0293   21.1349 C.ar    1  UNL1       -0.0220
     31 C          -3.4268  -18.9240   19.6394 C.ar    1  UNL1       -0.0020
     32 C          -2.1993  -18.5272   18.8741 C.ar    1  UNL1        0.0293
     33 C          -0.9219  -18.2357   19.6043 C.ar    1  UNL1        0.1401
     34 F           0.3057  -17.8389   18.8390 F       1  UNL1       -0.2042
     35 C          -0.8720  -18.3409   21.0998 C.ar    1  UNL1        0.0293
     36 C          -2.0996  -18.7377   21.8651 C.ar    1  UNL1       -0.0020
@<TRIPOS>BOND
     1     2     1    1
     2     2    21    1
     3    21    22    1
     4    22    23    1
     5    23    24    1
     6    24    25    1
     7    25    26    1
     8    26    27    1
     9    27    29    1
    10    29    30    1
    11    30    31   ar
    12    31    32   ar
    13    32    33   ar
    14    33    34    1
    15    33    35   ar
    16    35    36   ar
    17    27    28    1
    18     2     3    1
    19     3     4   am
    20     4     5    2
    21     4     6   am
    22     6     9    1
    23     9    10   ar
    24    10    11   ar
    25    11    12   ar
    26    12    13   ar
    27    13    15    1
    28    15    16   ar
    29    16    17   ar
    30    17    18   ar
    31    18    19   ar
    32    19    20    1
    33    13    14   ar
    34    28    23    1
    35    14     9   ar
    36    36    30   ar
    37    19    15   ar
    38     3     7    1
    39     6     8    1
@<TRIPOS>MOLECULE
*****
 36 39 0 0 0
SMALL
GASTEIGER

@<TRIPOS>ATOM
      1 C          -8.8411  -21.7193   17.8496 C.3     1  UNL1        0.0214
      2 C          -8.9406  -20.4073   18.5698 C.3     1  UNL1        0.0745
      3 N          -7.8070  -19.4273   18.5031 N.am    1  UNL1       -0.2903
      4 C          -6.7210  -19.4652   19.5371 C.2     1  UNL1        0.3044
      5 O          -6.7686  -20.4831   20.6377 O.2     1  UNL1       -0.2525
      6 N          -5.5874  -18.4851   19.4704 N.am    1  UNL1       -0.2683
      7 H          -7.7758  -18.7591   17.7807 H       1  UNL1        0.1509
      8 H          -5.5562  -17.8170   18.7480 H       1  UNL1        0.1564
      9 C          -4.5014  -18.5230   20.5043 C.ar    1  UNL1        0.0517
     10 C          -3.1562  -19.0896   20.1586 C.ar    1  UNL1        0.0147
     11 C          -2.0702  -19.1275   21.1926 C.ar    1  UNL1        0.0014
     12 C          -2.3292  -18.5988   22.5722 C.ar    1  UNL1        0.0032
     13 C          -3.6744  -18.0321   22.9178 C.ar    1  UNL1        0.0386
     14 C          -4.7605  -17.9942   21.8839 C.ar    1  UNL1        0.0178
     15 C          -3.9334  -17.5034   24.2974 C.ar    1  UNL1        0.1839
     16 N          -3.5029  -18.1454   25.5830 N.ar    1  UNL1       -0.1081
     17 N          -3.9719  -17.2785   26.7138 N.ar    1  UNL1       -0.0227
     18 N          -4.6923  -16.1009   26.1271 N.ar    1  UNL1       -0.0429
     19 N          -4.6685  -16.2399   24.6338 N.ar    1  UNL1       -0.2113
     20 C          -5.2736  -15.2832   23.6495 C.3     1  UNL1        0.1573
     21 C         -10.1738  -20.0753   19.3568 C.3     1  UNL1        0.0369
     22 C         -10.6243  -18.6499   19.4791 C.3     1  UNL1        0.0738
     23 N         -11.1404  -18.1363   20.7906 N.3     1  UNL1       -0.2726
     24 C         -12.3310  -17.2244   20.8227 C.3     1  UNL1        0.0721
     25 C         -12.8470  -16.7108   22.1342 C.3     1  UNL1        0.0174
     26 C         -12.1726  -17.1092   23.4134 C.3     1  UNL1        0.0031
     27 C         -10.9821  -18.0211   23.3812 C.3     1  UNL1        0.0204
     28 C         -10.4660  -18.5346   22.0698 C.3     1  UNL1        0.0724
     29 C         -10.3077  -18.4194   24.6605 C.3     1  UNL1        0.0277
     30 C          -9.4862  -17.4191   25.4183 C.ar    1  UNL1       -0.0220
     31 C          -9.0035  -16.1736   24.7356 C.ar    1  UNL1       -0.0020
     32 C          -8.1820  -15.1732   25.4934 C.ar    1  UNL1        0.0293
     33 C          -7.8431  -15.4182   26.9340 C.ar    1  UNL1        0.1401
     34 F          -7.0216  -14.4178   27.6918 F       1  UNL1       -0.2042
     35 C          -8.3257  -16.6636   27.6167 C.ar    1  UNL1        0.0293
     36 C          -9.1473  -17.6641   26.8588 C.ar    1  UNL1       -0.0020
@<TRIPOS>BOND
     1     2     1    1
     2     2    21    1
     3    21    22    1
     4    22    23    1
     5    23    24    1
     6    24    25    1
     7    25    26    1
     8    26    27    1
     9    27    29    1
    10    29    30    1
    11    30    31   ar
    12    31    32   ar
    13    32    33   ar
    14    33    34    1
    15    33    35   ar
    16    35    36   ar
    17    27    28    1
    18     2     3    1
    19     3     4   am
    20     4     5    2
    21     4     6   am
    22     6     9    1
    23     9    10   ar
    24    10    11   ar
    25    11    12   ar
    26    12    13   ar
    27    13    15    1
    28    15    16   ar
    29    16    17   ar
    30    17    18   ar
    31    18    19   ar
    32    19    20    1
    33    13    14   ar
    34    28    23    1
    35    14     9   ar
    36    36    30   ar
    37    19    15   ar
    38     3     7    1
    39     6     8    1
@<TRIPOS>MOLECULE
*****
 36 39 0 0 0
SMALL
GASTEIGER

@<TRIPOS>ATOM
      1 C           7.1860   -2.0411   28.7978 C.3     1  UNL1        0.0214
      2 C           6.0357   -1.7898   27.8685 C.3     1  UNL1        0.0745
      3 N           5.6337   -2.8367   26.8724 N.am    1  UNL1       -0.2903
      4 C           6.4349   -3.0259   25.6185 C.2     1  UNL1        0.3044
      5 O           7.6381   -2.1681   25.3608 O.2     1  UNL1       -0.2525
      6 N           6.0329   -4.0728   24.6223 N.am    1  UNL1       -0.2683
      7 H           4.8440   -3.3997   27.0415 H       1  UNL1        0.1509
      8 H           5.2432   -4.6358   24.7915 H       1  UNL1        0.1564
      9 C           6.8341   -4.2620   23.3685 C.ar    1  UNL1        0.0517
     10 C           8.0776   -5.1007   23.3923 C.ar    1  UNL1        0.0147
     11 C           8.8788   -5.2899   22.1385 C.ar    1  UNL1        0.0014
     12 C           8.4366   -4.6404   20.8607 C.ar    1  UNL1        0.0032
     13 C           7.1933   -3.8017   20.8368 C.ar    1  UNL1        0.0386
     14 C           6.3920   -3.6125   22.0907 C.ar    1  UNL1        0.0178
     15 C           6.7511   -3.1522   19.5591 C.ar    1  UNL1        0.1839
     16 N           7.5514   -2.1839   18.7393 N.ar    1  UNL1       -0.1081
     17 N           6.7259   -1.7902   17.5503 N.ar    1  UNL1       -0.0227
     18 N           5.4155   -2.5152   17.6353 N.ar    1  UNL1       -0.0429
     19 N           5.4311   -3.3569   18.8767 N.ar    1  UNL1       -0.2113
     20 C           4.3214   -4.2471   19.3524 C.3     1  UNL1        0.1573
     21 C           5.2873   -0.4914   27.9353 C.3     1  UNL1        0.0369
     22 C           4.2322   -0.1806   26.9156 C.3     1  UNL1        0.0738
     23 N           4.5937   -0.1040   25.4617 N.3     1  UNL1       -0.2726
     24 C           5.7961    0.6810   25.0282 C.3     1  UNL1        0.0721
     25 C           6.1575    0.7576   23.5745 C.3     1  UNL1        0.0174
     26 C           5.3165    0.0493   22.5542 C.3     1  UNL1        0.0031
     27 C           4.1140   -0.7356   22.9877 C.3     1  UNL1        0.0204
     28 C           3.7526   -0.8123   24.4414 C.3     1  UNL1        0.0724
     29 C           3.2730   -1.4440   21.9674 C.3     1  UNL1        0.0277
     30 C           2.5481   -0.6571   20.9161 C.ar    1  UNL1       -0.0220
     31 C           3.1912   -0.4168   19.5824 C.ar    1  UNL1       -0.0020
     32 C           2.4663    0.3701   18.5311 C.ar    1  UNL1        0.0293
     33 C           1.0983    0.9166   18.8133 C.ar    1  UNL1        0.1401
     34 F           0.3734    1.7035   17.7619 F       1  UNL1       -0.2042
     35 C           0.4551    0.6763   20.1469 C.ar    1  UNL1        0.0293
     36 C           1.1800   -0.1106   21.1984 C.ar    1  UNL1       -0.0020
@<TRIPOS>BOND
     1     2     1    1
     2     2    21    1
     3    21    22    1
     4    22    23    1
     5    23    24    1
     6    24    25    1
     7    25    26    1
     8    26    27    1
     9    27    29    1
    10    29    30    1
    11    30    31   ar
    12    31    32   ar
    13    32    33   ar
    14    33    34    1
    15    33    35   ar
    16    35    36   ar
    17    27    28    1
    18     2     3    1
    19     3     4   am
    20     4     5    2
    21     4     6   am
    22     6     9    1
    23     9    10   ar
    24    10    11   ar
    25    11    12   ar
    26    12    13   ar
    27    13    15    1
    28    15    16   ar
    29    16    17   ar
    30    17    18   ar
    31    18    19   ar
    32    19    20    1
    33    13    14   ar
    34    28    23    1
    35    14     9   ar
    36    36    30   ar
    37    19    15   ar
    38     3     7    1
    39     6     8    1
@<TRIPOS>MOLECULE
*****
 36 39 0 0 0
SMALL
GASTEIGER

@<TRIPOS>ATOM
      1 C          -6.2828  -14.8764   25.1327 C.3     1  UNL1        0.0214
      2 C          -7.4845  -15.7585   24.9659 C.3     1  UNL1        0.0745
      3 N          -7.7880  -16.3676   23.6292 N.am    1  UNL1       -0.2903
      4 C          -6.8131  -17.3176   22.9991 C.2     1  UNL1        0.3044
      5 O          -5.5347  -17.6584   23.7057 O.2     1  UNL1       -0.2525
      6 N          -7.1167  -17.9267   21.6624 N.am    1  UNL1       -0.2683
      7 H          -8.6271  -16.1439   23.1654 H       1  UNL1        0.1509
      8 H          -7.9558  -17.7030   21.1986 H       1  UNL1        0.1564
      9 C          -6.1418  -18.8767   21.0323 C.ar    1  UNL1        0.0517
     10 C          -6.5734  -20.2690   20.6780 C.ar    1  UNL1        0.0147
     11 C          -5.5985  -21.2189   20.0479 C.ar    1  UNL1        0.0014
     12 C          -4.1919  -20.7767   19.7720 C.ar    1  UNL1        0.0032
     13 C          -3.7603  -19.3845   20.1262 C.ar    1  UNL1        0.0386
     14 C          -4.7352  -18.4345   20.7564 C.ar    1  UNL1        0.0178
     15 C          -2.3538  -18.9423   19.8503 C.ar    1  UNL1        0.1839
     16 N          -1.1171  -19.4704   20.5151 N.ar    1  UNL1       -0.1081
     17 N           0.0640  -18.7488   19.9368 N.ar    1  UNL1       -0.0227
     18 N          -0.4427  -17.7748   18.9147 N.ar    1  UNL1       -0.0429
     19 N          -1.9369  -17.8945   18.8613 N.ar    1  UNL1       -0.2113
     20 C          -2.8535  -17.1048   17.9745 C.3     1  UNL1        0.1573
     21 C          -8.3827  -16.0315   26.1359 C.3     1  UNL1        0.0369
     22 C          -8.8239  -17.4343   26.4314 C.3     1  UNL1        0.0738
     23 N          -9.6698  -18.1788   25.4413 N.3     1  UNL1       -0.2726
     24 C          -9.5612  -19.6710   25.3342 C.3     1  UNL1        0.0721
     25 C         -10.4071  -20.4154   24.3441 C.3     1  UNL1        0.0174
     26 C         -11.3616  -19.6676   23.4611 C.3     1  UNL1        0.0031
     27 C         -11.4702  -18.1754   23.5682 C.3     1  UNL1        0.0204
     28 C         -10.6244  -17.4310   24.5583 C.3     1  UNL1        0.0724
     29 C         -12.4248  -17.4276   22.6853 C.3     1  UNL1        0.0277
     30 C         -11.9099  -16.6632   21.5018 C.ar    1  UNL1       -0.0220
     31 C         -12.7287  -16.5816   20.2476 C.ar    1  UNL1       -0.0020
     32 C         -12.2137  -15.8172   19.0642 C.ar    1  UNL1        0.0293
     33 C         -10.8800  -15.1344   19.1349 C.ar    1  UNL1        0.1401
     34 F         -10.3651  -14.3700   17.9514 F       1  UNL1       -0.2042
     35 C         -10.0612  -15.2160   20.3890 C.ar    1  UNL1        0.0293
     36 C         -10.5762  -15.9804   21.5726 C.ar    1  UNL1       -0.0020
@<TRIPOS>BOND
     1     2     1    1
     2     2    21    1
     3    21    22    1
     4    22    23    1
     5    23    24    1
     6    24    25    1
     7    25    26    1
     8    26    27    1
     9    27    29    1
    10    29    30    1
    11    30    31   ar
    12    31    32   ar
    13    32    33   ar
    14    33    34    1
    15    33    35   ar
    16    35    36   ar
    17    27    28    1
    18     2     3    1
    19     3     4   am
    20     4     5    2
    21     4     6   am
    22     6     9    1
    23     9    10   ar
    24    10    11   ar
    25    11    12   ar
    26    12    13   ar
    27    13    15    1
    28    15    16   ar
    29    16    17   ar
    30    17    18   ar
    31    18    19   ar
    32    19    20    1
    33    13    14   ar
    34    28    23    1
    35    14     9   ar
    36    36    30   ar
    37    19    15   ar
    38     3     7    1
    39     6     8    1
@<TRIPOS>MOLECULE
*****
 36 39 0 0 0
SMALL
GASTEIGER

@<TRIPOS>ATOM
      1 C          -8.8481  -14.7889   27.6615 C.3     1  UNL1        0.0214
      2 C          -8.2081  -16.1443   27.6048 C.3     1  UNL1        0.0745
      3 N          -9.0201  -17.3411   27.2067 N.am    1  UNL1       -0.2903
      4 C          -9.3525  -17.5754   25.7629 C.2     1  UNL1        0.3044
      5 O          -8.8729  -16.6129   24.7172 O.2     1  UNL1       -0.2525
      6 N         -10.1645  -18.7721   25.3649 N.am    1  UNL1       -0.2683
      7 H          -9.3348  -17.9728   27.8931 H       1  UNL1        0.1509
      8 H         -10.4792  -19.4038   26.0513 H       1  UNL1        0.1564
      9 C         -10.4969  -19.0064   23.9211 C.ar    1  UNL1        0.0517
     10 C         -10.6786  -20.4052   23.4107 C.ar    1  UNL1        0.0147
     11 C         -11.0110  -20.6395   21.9670 C.ar    1  UNL1        0.0014
     12 C         -11.1618  -19.4751   21.0335 C.ar    1  UNL1        0.0032
     13 C         -10.9801  -18.0763   21.5438 C.ar    1  UNL1        0.0386
     14 C         -10.6477  -17.8420   22.9877 C.ar    1  UNL1        0.0178
     15 C         -11.1309  -16.9119   20.6104 C.ar    1  UNL1        0.1839
     16 N         -12.2066  -16.7424   19.5787 N.ar    1  UNL1       -0.1081
     17 N         -11.9729  -15.4382   18.8754 N.ar    1  UNL1       -0.0227
     18 N         -10.7528  -14.8017   19.4724 N.ar    1  UNL1       -0.0429
     19 N         -10.2325  -15.7125   20.5446 N.ar    1  UNL1       -0.2113
     20 C          -9.0255  -15.4670   21.4008 C.3     1  UNL1        0.1573
     21 C          -6.7560  -16.3030   27.9461 C.3     1  UNL1        0.0369
     22 C          -5.7204  -15.5106   27.2049 C.3     1  UNL1        0.0738
     23 N          -5.5253  -15.7228   25.7328 N.3     1  UNL1       -0.2726
     24 C          -6.2768  -14.8780   24.7471 C.3     1  UNL1        0.0721
     25 C          -6.0816  -15.0903   23.2751 C.3     1  UNL1        0.0174
     26 C          -5.1350  -16.1473   22.7888 C.3     1  UNL1        0.0031
     27 C          -4.3835  -16.9921   23.7744 C.3     1  UNL1        0.0204
     28 C          -4.5786  -16.7799   25.2464 C.3     1  UNL1        0.0724
     29 C          -3.4369  -18.0492   23.2881 C.3     1  UNL1        0.0277
     30 C          -2.9279  -18.0087   21.8777 C.ar    1  UNL1       -0.0220
     31 C          -3.5440  -18.8908   20.8324 C.ar    1  UNL1       -0.0020
     32 C          -3.0351  -18.8503   19.4220 C.ar    1  UNL1        0.0293
     33 C          -1.9100  -17.9279   19.0568 C.ar    1  UNL1        0.1401
     34 F          -1.4010  -17.8875   17.6463 F       1  UNL1       -0.2042
     35 C          -1.2939  -17.0459   20.1020 C.ar    1  UNL1        0.0293
     36 C          -1.8028  -17.0863   21.5125 C.ar    1  UNL1       -0.0020
@<TRIPOS>BOND
     1     2     1    1
     2     2    21    1
     3    21    22    1
     4    22    23    1
     5    23    24    1
     6    24    25    1
     7    25    26    1
     8    26    27    1
     9    27    29    1
    10    29    30    1
    11    30    31   ar
    12    31    32   ar
    13    32    33   ar
    14    33    34    1
    15    33    35   ar
    16    35    36   ar
    17    27    28    1
    18     2     3    1
    19     3     4   am
    20     4     5    2
    21     4     6   am
    22     6     9    1
    23     9    10   ar
    24    10    11   ar
    25    11    12   ar
    26    12    13   ar
    27    13    15    1
    28    15    16   ar
    29    16    17   ar
    30    17    18   ar
    31    18    19   ar
    32    19    20    1
    33    13    14   ar
    34    28    23    1
    35    14     9   ar
    36    36    30   ar
    37    19    15   ar
    38     3     7    1
    39     6     8    1
