@<TRIPOS>MOLECULE
*****
 32 34 0 0 0
SMALL
GASTEIGER

@<TRIPOS>ATOM
      1 C          -6.7443  -16.8963   23.0478 C.2     1  UNL1        0.2296
      2 O          -5.3509  -16.6300   23.5349 O.2     1  UNL1       -0.2745
      3 N          -7.1444  -18.2837   22.6412 N.am    1  UNL1       -0.2543
      4 C          -8.5379  -18.5500   22.1540 C.ar    1  UNL1        0.0565
      5 C          -8.7697  -18.9532   20.7280 C.ar    1  UNL1        0.0445
      6 C         -10.1632  -19.2195   20.2410 C.ar    1  UNL1        0.1415
      7 F         -10.3950  -19.6228   18.8149 F       1  UNL1       -0.2041
      8 C         -11.3249  -19.0825   21.1799 C.ar    1  UNL1        0.0328
      9 C         -11.0931  -18.6793   22.6060 C.ar    1  UNL1        0.0406
     10 C          -9.6996  -18.4130   23.0930 C.ar    1  UNL1        0.0181
     11 C         -12.2548  -18.5423   23.5449 C.ar    1  UNL1        0.1807
     12 N         -13.6181  -18.0260   23.1915 N.ar    1  UNL1       -0.1083
     13 N         -14.4630  -18.0622   24.4303 N.ar    1  UNL1       -0.0229
     14 N         -13.6220  -18.6008   25.5495 N.ar    1  UNL1       -0.0464
     15 N         -12.2572  -18.8975   25.0023 N.ar    1  UNL1       -0.2388
     16 H         -11.4966  -19.2615   25.5104 H       1  UNL1        0.1923
     17 C          -7.7378  -15.7753   22.9673 C.3     1  UNL1        0.0856
     18 C          -8.1196  -15.0211   24.2064 C.3     1  UNL1        0.0096
     19 C          -7.6455  -15.6755   26.6756 C.3     1  UNL1        0.0000
     20 C          -8.5048  -15.7669   25.4495 C.3     1  UNL1        0.0005
     21 C          -6.1510  -19.4046   22.7216 C.3     1  UNL1        0.1248
     22 C          -5.0474  -19.5029   21.7104 C.ar    1  UNL1        0.0010
     23 C          -5.3155  -20.1075   20.3641 C.ar    1  UNL1       -0.0024
     24 C          -4.2119  -20.2057   19.3529 C.ar    1  UNL1        0.0028
     25 C          -2.8403  -19.6993   19.6880 C.ar    1  UNL1        0.0372
     26 C          -2.5723  -19.0947   21.0343 C.ar    1  UNL1        0.1465
     27 C          -3.6758  -18.9965   22.0455 C.ar    1  UNL1        0.0346
     28 O          -1.2007  -18.5883   21.3694 O.3     1  UNL1       -0.4045
     29 C          -0.6076  -17.4549   20.5862 C.3     1  UNL1        0.5753
     30 F          -0.0144  -16.3215   19.8029 F       1  UNL1       -0.1328
     31 F          -1.4299  -16.4795   21.3750 F       1  UNL1       -0.1328
     32 F           0.2148  -18.4304   19.7974 F       1  UNL1       -0.1328
@<TRIPOS>BOND
     1    19    20    1
     2    20    18    1
     3    18    17    1
     4    17     1    1
     5     1     2    2
     6     1     3   am
     7     3    21    1
     8    21    22    1
     9    22    23   ar
    10    23    24   ar
    11    24    25   ar
    12    25    26   ar
    13    26    28    1
    14    28    29    1
    15    29    30    1
    16    29    31    1
    17    29    32    1
    18    26    27   ar
    19     3     4    1
    20     4     5   ar
    21     5     6   ar
    22     6     7    1
    23     6     8   ar
    24     8     9   ar
    25     9    11    1
    26    11    12   ar
    27    12    13   ar
    28    13    14   ar
    29    14    15   ar
    30     9    10   ar
    31    27    22   ar
    32    10     4   ar
    33    15    11   ar
    34    15    16    1
@<TRIPOS>MOLECULE
*****
 32 34 0 0 0
SMALL
GASTEIGER

@<TRIPOS>ATOM
      1 C          -6.4389  -15.7594   23.8476 C.2     1  UNL1        0.2296
      2 O          -5.0875  -15.2398   24.2398 O.2     1  UNL1       -0.2745
      3 N          -6.5859  -17.1671   23.3507 N.am    1  UNL1       -0.2543
      4 C          -7.9373  -17.6867   22.9585 C.ar    1  UNL1        0.0565
      5 C          -8.4415  -18.9761   23.5356 C.ar    1  UNL1        0.0445
      6 C          -9.7928  -19.4957   23.1434 C.ar    1  UNL1        0.1415
      7 F         -10.2971  -20.7852   23.7205 F       1  UNL1       -0.2041
      8 C         -10.6400  -18.7258   22.1741 C.ar    1  UNL1        0.0328
      9 C         -10.1358  -17.4363   21.5970 C.ar    1  UNL1        0.0406
     10 C          -8.7845  -16.9168   21.9892 C.ar    1  UNL1        0.0181
     11 C         -10.9830  -16.6664   20.6277 C.ar    1  UNL1        0.1807
     12 N         -10.4942  -15.6322   19.6575 N.ar    1  UNL1       -0.1083
     13 N         -11.6768  -15.1221   18.8886 N.ar    1  UNL1       -0.0229
     14 N         -12.8966  -15.8412   19.3836 N.ar    1  UNL1       -0.0464
     15 N         -12.4678  -16.7956   20.4584 N.ar    1  UNL1       -0.2388
     16 H         -13.0574  -17.4006   20.9640 H       1  UNL1        0.1923
     17 C          -7.6433  -14.8713   23.9522 C.3     1  UNL1        0.0856
     18 C          -8.6187  -15.0599   25.0761 C.3     1  UNL1        0.0096
     19 C          -7.9756  -15.3640   27.5749 C.3     1  UNL1        0.0000
     20 C          -8.2714  -15.9552   26.2284 C.3     1  UNL1        0.0005
     21 C          -5.3816  -18.0551   23.2461 C.3     1  UNL1        0.1248
     22 C          -5.1728  -18.8944   22.0204 C.ar    1  UNL1        0.0010
     23 C          -6.0771  -20.0592   21.7461 C.ar    1  UNL1       -0.0024
     24 C          -5.8683  -20.8984   20.5205 C.ar    1  UNL1        0.0028
     25 C          -4.7552  -20.5727   19.5692 C.ar    1  UNL1        0.0372
     26 C          -3.8509  -19.4079   19.8436 C.ar    1  UNL1        0.1465
     27 C          -4.0597  -18.5687   21.0692 C.ar    1  UNL1        0.0346
     28 O          -2.7377  -19.0822   18.8923 O.3     1  UNL1       -0.4045
     29 C          -1.7436  -18.0138   19.2387 C.3     1  UNL1        0.5753
     30 F          -0.7495  -16.9452   19.5852 F       1  UNL1       -0.1328
     31 F          -0.9605  -19.0047   20.0479 F       1  UNL1       -0.1328
     32 F          -2.5267  -17.0228   18.4296 F       1  UNL1       -0.1328
@<TRIPOS>BOND
     1    19    20    1
     2    20    18    1
     3    18    17    1
     4    17     1    1
     5     1     2    2
     6     1     3   am
     7     3    21    1
     8    21    22    1
     9    22    23   ar
    10    23    24   ar
    11    24    25   ar
    12    25    26   ar
    13    26    28    1
    14    28    29    1
    15    29    30    1
    16    29    31    1
    17    29    32    1
    18    26    27   ar
    19     3     4    1
    20     4     5   ar
    21     5     6   ar
    22     6     7    1
    23     6     8   ar
    24     8     9   ar
    25     9    11    1
    26    11    12   ar
    27    12    13   ar
    28    13    14   ar
    29    14    15   ar
    30     9    10   ar
    31    27    22   ar
    32    10     4   ar
    33    15    11   ar
    34    15    16    1
@<TRIPOS>MOLECULE
*****
 32 34 0 0 0
SMALL
GASTEIGER

@<TRIPOS>ATOM
      1 C         -11.0620  -18.0006   22.3338 C.2     1  UNL1        0.2296
      2 O         -11.9026  -17.0891   23.1779 O.2     1  UNL1       -0.2745
      3 N          -9.7308  -17.5344   21.8232 N.am    1  UNL1       -0.2543
      4 C          -8.8902  -18.4459   20.9790 C.ar    1  UNL1        0.0565
      5 C          -9.4888  -19.1240   19.7824 C.ar    1  UNL1        0.0445
      6 C          -8.6483  -20.0355   18.9383 C.ar    1  UNL1        0.1415
      7 F          -9.2469  -20.7135   17.7416 F       1  UNL1       -0.2041
      8 C          -7.2091  -20.2689   19.2908 C.ar    1  UNL1        0.0328
      9 C          -6.6105  -19.5909   20.4874 C.ar    1  UNL1        0.0406
     10 C          -7.4511  -18.6794   21.3315 C.ar    1  UNL1        0.0181
     11 C          -5.1713  -19.8244   20.8399 C.ar    1  UNL1        0.1807
     12 N          -4.0890  -20.2487   19.8920 N.ar    1  UNL1       -0.1083
     13 N          -2.8105  -20.3611   20.6685 N.ar    1  UNL1       -0.0229
     14 N          -3.1027  -20.0064   22.0963 N.ar    1  UNL1       -0.0464
     15 N          -4.5618  -19.6747   22.2023 N.ar    1  UNL1       -0.2388
     16 H          -5.0360  -19.4058   23.0221 H       1  UNL1        0.1923
     17 C         -11.5526  -19.3783   22.0002 C.3     1  UNL1        0.0856
     18 C         -11.0721  -20.5578   22.7926 C.3     1  UNL1        0.0096
     19 C         -10.1204  -19.7221   25.0610 C.3     1  UNL1        0.0000
     20 C          -9.9199  -20.4052   23.7408 C.3     1  UNL1        0.0005
     21 C          -9.2403  -16.1567   22.1567 C.3     1  UNL1        0.1248
     22 C          -8.4730  -15.9201   23.4238 C.ar    1  UNL1        0.0010
     23 C          -9.2031  -15.7647   24.7248 C.ar    1  UNL1       -0.0024
     24 C          -8.4359  -15.5281   25.9918 C.ar    1  UNL1        0.0028
     25 C          -6.9385  -15.4469   25.9577 C.ar    1  UNL1        0.0372
     26 C          -6.2083  -15.6023   24.6567 C.ar    1  UNL1        0.1465
     27 C          -6.9756  -15.8389   23.3898 C.ar    1  UNL1        0.0346
     28 O          -4.7109  -15.5210   24.6227 O.3     1  UNL1       -0.4045
     29 C          -3.9475  -16.2039   23.5269 C.3     1  UNL1        0.5753
     30 F          -3.1840  -16.8868   22.4310 F       1  UNL1       -0.1328
     31 F          -3.9183  -14.9220   22.7484 F       1  UNL1       -0.1328
     32 F          -3.9766  -17.4857   24.3053 F       1  UNL1       -0.1328
@<TRIPOS>BOND
     1    19    20    1
     2    20    18    1
     3    18    17    1
     4    17     1    1
     5     1     2    2
     6     1     3   am
     7     3    21    1
     8    21    22    1
     9    22    23   ar
    10    23    24   ar
    11    24    25   ar
    12    25    26   ar
    13    26    28    1
    14    28    29    1
    15    29    30    1
    16    29    31    1
    17    29    32    1
    18    26    27   ar
    19     3     4    1
    20     4     5   ar
    21     5     6   ar
    22     6     7    1
    23     6     8   ar
    24     8     9   ar
    25     9    11    1
    26    11    12   ar
    27    12    13   ar
    28    13    14   ar
    29    14    15   ar
    30     9    10   ar
    31    27    22   ar
    32    10     4   ar
    33    15    11   ar
    34    15    16    1
@<TRIPOS>MOLECULE
*****
 32 34 0 0 0
SMALL
GASTEIGER

@<TRIPOS>ATOM
      1 C         -10.4596  -17.6384   22.4280 C.2     1  UNL1        0.2296
      2 O         -11.3262  -16.6439   23.1422 O.2     1  UNL1       -0.2745
      3 N          -9.0861  -17.2448   21.9713 N.am    1  UNL1       -0.2543
      4 C          -8.2196  -18.2394   21.2571 C.ar    1  UNL1        0.0565
      5 C          -8.8167  -19.1500   20.2255 C.ar    1  UNL1        0.0445
      6 C          -7.9501  -20.1445   19.5114 C.ar    1  UNL1        0.1415
      7 F          -8.5472  -21.0552   18.4797 F       1  UNL1       -0.2041
      8 C          -6.4865  -20.2283   19.8288 C.ar    1  UNL1        0.0328
      9 C          -5.8894  -19.3177   20.8603 C.ar    1  UNL1        0.0406
     10 C          -6.7559  -18.3232   21.5745 C.ar    1  UNL1        0.0181
     11 C          -4.4258  -19.4016   21.1777 C.ar    1  UNL1        0.1807
     12 N          -3.5045  -20.5234   20.7999 N.ar    1  UNL1       -0.1083
     13 N          -2.1358  -20.1935   21.3174 N.ar    1  UNL1       -0.0229
     14 N          -2.2111  -18.8678   22.0150 N.ar    1  UNL1       -0.0464
     15 N          -3.6264  -18.3783   21.9287 N.ar    1  UNL1       -0.2388
     16 H          -3.9703  -17.5338   22.2998 H       1  UNL1        0.1923
     17 C         -10.9666  -19.0265   22.1705 C.3     1  UNL1        0.0856
     18 C         -10.8147  -20.0872   23.2201 C.3     1  UNL1        0.0096
     19 C          -9.9230  -18.9906   25.4001 C.3     1  UNL1        0.0000
     20 C          -9.7487  -19.9586   24.2675 C.3     1  UNL1        0.0005
     21 C          -8.5791  -15.8568   22.2289 C.3     1  UNL1        0.1248
     22 C          -7.5047  -15.6283   23.2504 C.ar    1  UNL1        0.0010
     23 C          -6.0688  -15.5496   22.8239 C.ar    1  UNL1       -0.0024
     24 C          -4.9945  -15.3210   23.8455 C.ar    1  UNL1        0.0028
     25 C          -5.3561  -15.1712   25.2935 C.ar    1  UNL1        0.0372
     26 C          -6.7920  -15.2500   25.7200 C.ar    1  UNL1        0.1465
     27 C          -7.8663  -15.4785   24.6985 C.ar    1  UNL1        0.0346
     28 O          -7.1536  -15.1002   27.1680 O.3     1  UNL1       -0.4045
     29 C          -8.2736  -15.9112   27.7492 C.3     1  UNL1        0.5753
     30 F          -9.3936  -16.7223   28.3303 F       1  UNL1       -0.1328
     31 F          -9.0363  -14.6520   28.0366 F       1  UNL1       -0.1328
     32 F          -7.5109  -17.1704   27.4618 F       1  UNL1       -0.1328
@<TRIPOS>BOND
     1    19    20    1
     2    20    18    1
     3    18    17    1
     4    17     1    1
     5     1     2    2
     6     1     3   am
     7     3    21    1
     8    21    22    1
     9    22    23   ar
    10    23    24   ar
    11    24    25   ar
    12    25    26   ar
    13    26    28    1
    14    28    29    1
    15    29    30    1
    16    29    31    1
    17    29    32    1
    18    26    27   ar
    19     3     4    1
    20     4     5   ar
    21     5     6   ar
    22     6     7    1
    23     6     8   ar
    24     8     9   ar
    25     9    11    1
    26    11    12   ar
    27    12    13   ar
    28    13    14   ar
    29    14    15   ar
    30     9    10   ar
    31    27    22   ar
    32    10     4   ar
    33    15    11   ar
    34    15    16    1
@<TRIPOS>MOLECULE
*****
 32 34 0 0 0
SMALL
GASTEIGER

@<TRIPOS>ATOM
      1 C          -9.8466  -18.2334   24.6583 C.2     1  UNL1        0.2296
      2 O         -10.0940  -17.5971   25.9939 O.2     1  UNL1       -0.2745
      3 N          -9.1249  -17.4713   23.5866 N.am    1  UNL1       -0.2543
      4 C          -8.8775  -18.1076   22.2509 C.ar    1  UNL1        0.0565
      5 C         -10.0243  -18.3664   21.3195 C.ar    1  UNL1        0.0445
      6 C          -9.7769  -19.0027   19.9839 C.ar    1  UNL1        0.1415
      7 F         -10.9238  -19.2614   19.0523 F       1  UNL1       -0.2041
      8 C          -8.3826  -19.3802   19.5798 C.ar    1  UNL1        0.0328
      9 C          -7.2357  -19.1215   20.5112 C.ar    1  UNL1        0.0406
     10 C          -7.4831  -18.4852   21.8468 C.ar    1  UNL1        0.0181
     11 C          -5.8414  -19.4990   20.1071 C.ar    1  UNL1        0.1807
     12 N          -5.2283  -20.8630   20.2241 N.ar    1  UNL1       -0.1083
     13 N          -3.8233  -20.7859   19.7043 N.ar    1  UNL1       -0.0229
     14 N          -3.5681  -19.3742   19.2661 N.ar    1  UNL1       -0.0464
     15 N          -4.8153  -18.5789   19.5151 N.ar    1  UNL1       -0.2388
     16 H          -4.9387  -17.6211   19.3235 H       1  UNL1        0.1923
     17 C         -10.3208  -19.6318   24.3942 C.3     1  UNL1        0.0856
     18 C         -11.7578  -19.8830   24.0452 C.3     1  UNL1        0.0096
     19 C         -13.1285  -17.8357   23.2207 C.3     1  UNL1        0.0000
     20 C         -12.7876  -18.8221   24.2981 C.3     1  UNL1        0.0005
     21 C          -8.6506  -16.0730   23.8506 C.3     1  UNL1        0.1248
     22 C          -7.2872  -15.8404   24.4313 C.ar    1  UNL1        0.0010
     23 C          -7.1471  -15.3156   25.8294 C.ar    1  UNL1       -0.0024
     24 C          -5.7838  -15.0831   26.4101 C.ar    1  UNL1        0.0028
     25 C          -4.5606  -15.3754   25.5926 C.ar    1  UNL1        0.0372
     26 C          -4.7007  -15.9003   24.1944 C.ar    1  UNL1        0.1465
     27 C          -6.0640  -16.1328   23.6138 C.ar    1  UNL1        0.0346
     28 O          -3.4775  -16.1926   23.3770 O.3     1  UNL1       -0.4045
     29 C          -3.2184  -17.5864   22.8869 C.3     1  UNL1        0.5753
     30 F          -2.9593  -18.9802   22.3967 F       1  UNL1       -0.1328
     31 F          -3.6856  -18.1357   24.2021 F       1  UNL1       -0.1328
     32 F          -2.7512  -17.0371   21.5716 F       1  UNL1       -0.1328
@<TRIPOS>BOND
     1    19    20    1
     2    20    18    1
     3    18    17    1
     4    17     1    1
     5     1     2    2
     6     1     3   am
     7     3    21    1
     8    21    22    1
     9    22    23   ar
    10    23    24   ar
    11    24    25   ar
    12    25    26   ar
    13    26    28    1
    14    28    29    1
    15    29    30    1
    16    29    31    1
    17    29    32    1
    18    26    27   ar
    19     3     4    1
    20     4     5   ar
    21     5     6   ar
    22     6     7    1
    23     6     8   ar
    24     8     9   ar
    25     9    11    1
    26    11    12   ar
    27    12    13   ar
    28    13    14   ar
    29    14    15   ar
    30     9    10   ar
    31    27    22   ar
    32    10     4   ar
    33    15    11   ar
    34    15    16    1
@<TRIPOS>MOLECULE
*****
 32 34 0 0 0
SMALL
GASTEIGER

@<TRIPOS>ATOM
      1 C          -7.7140  -17.0562   22.9322 C.2     1  UNL1        0.2296
      2 O          -6.2507  -17.3697   23.0340 O.2     1  UNL1       -0.2745
      3 N          -8.5985  -17.8837   22.0474 N.am    1  UNL1       -0.2543
      4 C         -10.0619  -17.5701   21.9456 C.ar    1  UNL1        0.0565
      5 C         -10.5866  -16.8158   20.7599 C.ar    1  UNL1        0.0445
      6 C         -12.0499  -16.5023   20.6582 C.ar    1  UNL1        0.1415
      7 F         -12.5746  -15.7480   19.4725 F       1  UNL1       -0.2041
      8 C         -12.9885  -16.9429   21.7421 C.ar    1  UNL1        0.0328
      9 C         -12.4638  -17.6972   22.9277 C.ar    1  UNL1        0.0406
     10 C         -11.0005  -18.0107   23.0295 C.ar    1  UNL1        0.0181
     11 C         -13.4025  -18.1378   24.0116 C.ar    1  UNL1        0.1807
     12 N         -14.8845  -18.3228   23.8731 N.ar    1  UNL1       -0.1083
     13 N         -15.4219  -18.7702   25.2002 N.ar    1  UNL1       -0.0229
     14 N         -14.2719  -18.8617   26.1589 N.ar    1  UNL1       -0.0464
     15 N         -13.0238  -18.4709   25.4243 N.ar    1  UNL1       -0.2388
     16 H         -12.1156  -18.4387   25.8029 H       1  UNL1        0.1923
     17 C          -8.2928  -15.9150   23.7151 C.3     1  UNL1        0.0856
     18 C          -7.4795  -15.2521   24.7870 C.3     1  UNL1        0.0096
     19 C          -8.3555  -15.2617   27.2329 C.3     1  UNL1        0.0000
     20 C          -7.4559  -15.8250   26.1730 C.3     1  UNL1        0.0005
     21 C          -8.0198  -19.0248   21.2645 C.3     1  UNL1        0.1248
     22 C          -6.5321  -19.1955   21.1760 C.ar    1  UNL1        0.0010
     23 C          -5.8294  -20.1422   22.1032 C.ar    1  UNL1       -0.0024
     24 C          -4.3418  -20.3129   22.0147 C.ar    1  UNL1        0.0028
     25 C          -3.5569  -19.5368   20.9990 C.ar    1  UNL1        0.0372
     26 C          -4.2597  -18.5900   20.0718 C.ar    1  UNL1        0.1465
     27 C          -5.7473  -18.4194   20.1603 C.ar    1  UNL1        0.0346
     28 O          -3.4748  -17.8139   19.0561 O.3     1  UNL1       -0.4045
     29 C          -2.0216  -17.5261   19.2913 C.3     1  UNL1        0.5753
     30 F          -0.5684  -17.2382   19.5266 F       1  UNL1       -0.1328
     31 F          -1.6559  -18.4636   18.1790 F       1  UNL1       -0.1328
     32 F          -2.3874  -16.5887   20.4037 F       1  UNL1       -0.1328
@<TRIPOS>BOND
     1    19    20    1
     2    20    18    1
     3    18    17    1
     4    17     1    1
     5     1     2    2
     6     1     3   am
     7     3    21    1
     8    21    22    1
     9    22    23   ar
    10    23    24   ar
    11    24    25   ar
    12    25    26   ar
    13    26    28    1
    14    28    29    1
    15    29    30    1
    16    29    31    1
    17    29    32    1
    18    26    27   ar
    19     3     4    1
    20     4     5   ar
    21     5     6   ar
    22     6     7    1
    23     6     8   ar
    24     8     9   ar
    25     9    11    1
    26    11    12   ar
    27    12    13   ar
    28    13    14   ar
    29    14    15   ar
    30     9    10   ar
    31    27    22   ar
    32    10     4   ar
    33    15    11   ar
    34    15    16    1
@<TRIPOS>MOLECULE
*****
 32 34 0 0 0
SMALL
GASTEIGER

@<TRIPOS>ATOM
      1 C          -5.9024  -17.3605   23.1099 C.2     1  UNL1        0.2296
      2 O          -4.4093  -17.2216   23.0756 O.2     1  UNL1       -0.2745
      3 N          -6.5739  -18.4380   22.3111 N.am    1  UNL1       -0.2543
      4 C          -8.0671  -18.5769   22.3453 C.ar    1  UNL1        0.0565
      5 C          -8.7045  -19.6068   23.2302 C.ar    1  UNL1        0.0445
      6 C         -10.1976  -19.7457   23.2644 C.ar    1  UNL1        0.1415
      7 F         -10.8350  -20.7756   24.1494 F       1  UNL1       -0.2041
      8 C         -11.0534  -18.8547   22.4138 C.ar    1  UNL1        0.0328
      9 C         -10.4161  -17.8248   21.5289 C.ar    1  UNL1        0.0406
     10 C          -8.9230  -17.6859   21.4946 C.ar    1  UNL1        0.0181
     11 C         -11.2719  -16.9338   20.6782 C.ar    1  UNL1        0.1807
     12 N         -12.7525  -16.7383   20.8178 N.ar    1  UNL1       -0.1083
     13 N         -13.1931  -15.7655   19.7644 N.ar    1  UNL1       -0.0229
     14 N         -11.9847  -15.3597   18.9737 N.ar    1  UNL1       -0.0464
     15 N         -10.7974  -16.0818   19.5385 N.ar    1  UNL1       -0.2388
     16 H          -9.8695  -16.0092   19.2174 H       1  UNL1        0.1923
     17 C          -6.7242  -16.4219   23.9429 C.3     1  UNL1        0.0856
     18 C          -6.0798  -15.2296   24.5856 C.3     1  UNL1        0.0096
     19 C          -6.7684  -15.6016   27.0629 C.3     1  UNL1        0.0000
     20 C          -5.7226  -15.2641   26.0420 C.3     1  UNL1        0.0005
     21 C          -5.7523  -19.3766   21.4780 C.3     1  UNL1        0.1248
     22 C          -4.2913  -19.1095   21.2675 C.ar    1  UNL1        0.0010
     23 C          -3.2711  -19.8094   22.1156 C.ar    1  UNL1       -0.0024
     24 C          -1.8102  -19.5422   21.9051 C.ar    1  UNL1        0.0028
     25 C          -1.3695  -18.5752   20.8465 C.ar    1  UNL1        0.0372
     26 C          -2.3897  -17.8753   19.9984 C.ar    1  UNL1        0.1465
     27 C          -3.8506  -18.1424   20.2090 C.ar    1  UNL1        0.0346
     28 O          -1.9490  -16.9082   18.9399 O.3     1  UNL1       -0.4045
     29 C          -1.5930  -17.4062   17.5705 C.3     1  UNL1        0.5753
     30 F          -1.2370  -17.9041   16.2010 F       1  UNL1       -0.1328
     31 F          -2.8248  -16.7559   17.0138 F       1  UNL1       -0.1328
     32 F          -0.3613  -18.0564   18.1271 F       1  UNL1       -0.1328
@<TRIPOS>BOND
     1    19    20    1
     2    20    18    1
     3    18    17    1
     4    17     1    1
     5     1     2    2
     6     1     3   am
     7     3    21    1
     8    21    22    1
     9    22    23   ar
    10    23    24   ar
    11    24    25   ar
    12    25    26   ar
    13    26    28    1
    14    28    29    1
    15    29    30    1
    16    29    31    1
    17    29    32    1
    18    26    27   ar
    19     3     4    1
    20     4     5   ar
    21     5     6   ar
    22     6     7    1
    23     6     8   ar
    24     8     9   ar
    25     9    11    1
    26    11    12   ar
    27    12    13   ar
    28    13    14   ar
    29    14    15   ar
    30     9    10   ar
    31    27    22   ar
    32    10     4   ar
    33    15    11   ar
    34    15    16    1
@<TRIPOS>MOLECULE
*****
 32 34 0 0 0
SMALL
GASTEIGER

@<TRIPOS>ATOM
      1 C           2.2732    2.8592   22.1511 C.2     1  UNL1        0.2296
      2 O           3.1707    2.5861   20.9808 O.2     1  UNL1       -0.2745
      3 N           1.1555    1.9131   22.4760 N.am    1  UNL1       -0.2543
      4 C           0.2579    2.1863   23.6464 C.ar    1  UNL1        0.0565
      5 C          -0.8253    3.2180   23.5361 C.ar    1  UNL1        0.0445
      6 C          -1.7228    3.4912   24.7065 C.ar    1  UNL1        0.1415
      7 F          -2.8061    4.5229   24.5962 F       1  UNL1       -0.2041
      8 C          -1.5371    2.7327   25.9872 C.ar    1  UNL1        0.0328
      9 C          -0.4539    1.7010   26.0975 C.ar    1  UNL1        0.0406
     10 C           0.4436    1.4278   24.9271 C.ar    1  UNL1        0.0181
     11 C          -0.2681    0.9425   27.3782 C.ar    1  UNL1        0.1807
     12 N          -1.3273    0.6752   28.4062 N.ar    1  UNL1       -0.1083
     13 N          -0.7044   -0.1144   29.5191 N.ar    1  UNL1       -0.0229
     14 N           0.7398   -0.3350   29.1790 N.ar    1  UNL1       -0.0464
     15 N           1.0094    0.3181   27.8558 N.ar    1  UNL1       -0.2388
     16 H           1.8732    0.3342   27.3838 H       1  UNL1        0.1923
     17 C           2.4933    4.0786   22.9966 C.3     1  UNL1        0.0856
     18 C           3.4053    4.0121   24.1856 C.3     1  UNL1        0.0096
     19 C           1.6361    4.9715   25.8287 C.3     1  UNL1        0.0000
     20 C           2.8399    4.1143   25.5712 C.3     1  UNL1        0.0005
     21 C           0.9353    0.6938   21.6306 C.3     1  UNL1        0.1248
     22 C           2.0106   -0.3463   21.5199 C.ar    1  UNL1        0.0010
     23 C           2.8149   -0.7251   22.7280 C.ar    1  UNL1       -0.0024
     24 C           3.8900   -1.7651   22.6172 C.ar    1  UNL1        0.0028
     25 C           4.1609   -2.4263   21.2984 C.ar    1  UNL1        0.0372
     26 C           3.3567   -2.0475   20.0902 C.ar    1  UNL1        0.1465
     27 C           2.2815   -1.0075   20.2010 C.ar    1  UNL1        0.0346
     28 O           3.6276   -2.7087   18.7714 O.3     1  UNL1       -0.4045
     29 C           4.1876   -4.0996   18.7307 C.3     1  UNL1        0.5753
     30 F           4.7477   -5.4906   18.6901 F       1  UNL1       -0.1328
     31 F           5.5211   -3.5506   18.3181 F       1  UNL1       -0.1328
     32 F           2.8541   -4.6486   19.1434 F       1  UNL1       -0.1328
@<TRIPOS>BOND
     1    19    20    1
     2    20    18    1
     3    18    17    1
     4    17     1    1
     5     1     2    2
     6     1     3   am
     7     3    21    1
     8    21    22    1
     9    22    23   ar
    10    23    24   ar
    11    24    25   ar
    12    25    26   ar
    13    26    28    1
    14    28    29    1
    15    29    30    1
    16    29    31    1
    17    29    32    1
    18    26    27   ar
    19     3     4    1
    20     4     5   ar
    21     5     6   ar
    22     6     7    1
    23     6     8   ar
    24     8     9   ar
    25     9    11    1
    26    11    12   ar
    27    12    13   ar
    28    13    14   ar
    29    14    15   ar
    30     9    10   ar
    31    27    22   ar
    32    10     4   ar
    33    15    11   ar
    34    15    16    1
@<TRIPOS>MOLECULE
*****
 32 34 0 0 0
SMALL
GASTEIGER

@<TRIPOS>ATOM
      1 C           6.6374   -4.7980   26.9382 C.2     1  UNL1        0.2296
      2 O           7.0723   -5.7658   25.8779 O.2     1  UNL1       -0.2745
      3 N           6.6005   -3.3280   26.6423 N.am    1  UNL1       -0.2543
      4 C           6.1656   -2.3602   27.7027 C.ar    1  UNL1        0.0565
      5 C           7.1742   -1.7844   28.6519 C.ar    1  UNL1        0.0445
      6 C           6.7393   -0.8167   29.7122 C.ar    1  UNL1        0.1415
      7 F           7.7479   -0.2409   30.6615 F       1  UNL1       -0.2041
      8 C           5.2957   -0.4247   29.8232 C.ar    1  UNL1        0.0328
      9 C           4.2870   -1.0004   28.8740 C.ar    1  UNL1        0.0406
     10 C           4.7219   -1.9682   27.8137 C.ar    1  UNL1        0.0181
     11 C           2.8434   -0.6084   28.9850 C.ar    1  UNL1        0.1807
     12 N           2.0495   -0.5180   30.2545 N.ar    1  UNL1       -0.1083
     13 N           0.6556   -0.0917   29.9002 N.ar    1  UNL1       -0.0229
     14 N           0.5881    0.0813   28.4117 N.ar    1  UNL1       -0.0464
     15 N           1.9402   -0.2380   27.8461 N.ar    1  UNL1       -0.2388
     16 H           2.1909   -0.2095   26.8945 H       1  UNL1        0.1923
     17 C           6.2394   -5.3003   28.2945 C.3     1  UNL1        0.0856
     18 C           7.2878   -5.5604   29.3353 C.3     1  UNL1        0.0096
     19 C           6.8909   -4.2135   31.5212 C.3     1  UNL1        0.0000
     20 C           6.9255   -5.5230   30.7904 C.3     1  UNL1        0.0005
     21 C           6.9985   -2.8257   25.2861 C.3     1  UNL1        0.1248
     22 C           5.9595   -2.6411   24.2200 C.ar    1  UNL1        0.0010
     23 C           5.2108   -1.3453   24.1188 C.ar    1  UNL1       -0.0024
     24 C           4.1718   -1.1608   23.0527 C.ar    1  UNL1        0.0028
     25 C           3.8816   -2.2720   22.0879 C.ar    1  UNL1        0.0372
     26 C           4.6303   -3.5678   22.1892 C.ar    1  UNL1        0.1465
     27 C           5.6692   -3.7524   23.2552 C.ar    1  UNL1        0.0346
     28 O           4.3401   -4.6791   21.2244 O.3     1  UNL1       -0.4045
     29 C           4.4980   -4.4527   19.7500 C.3     1  UNL1        0.5753
     30 F           4.6560   -4.2263   18.2756 F       1  UNL1       -0.1328
     31 F           5.9160   -4.0152   19.9691 F       1  UNL1       -0.1328
     32 F           3.0801   -4.8902   19.5309 F       1  UNL1       -0.1328
@<TRIPOS>BOND
     1    19    20    1
     2    20    18    1
     3    18    17    1
     4    17     1    1
     5     1     2    2
     6     1     3   am
     7     3    21    1
     8    21    22    1
     9    22    23   ar
    10    23    24   ar
    11    24    25   ar
    12    25    26   ar
    13    26    28    1
    14    28    29    1
    15    29    30    1
    16    29    31    1
    17    29    32    1
    18    26    27   ar
    19     3     4    1
    20     4     5   ar
    21     5     6   ar
    22     6     7    1
    23     6     8   ar
    24     8     9   ar
    25     9    11    1
    26    11    12   ar
    27    12    13   ar
    28    13    14   ar
    29    14    15   ar
    30     9    10   ar
    31    27    22   ar
    32    10     4   ar
    33    15    11   ar
    34    15    16    1
