@<TRIPOS>MOLECULE
*****
 32 35 0 0 0
SMALL
GASTEIGER

@<TRIPOS>ATOM
      1 C          -7.7668  -19.7217   21.4988 C.ar    1  UNL1        0.0992
      2 C          -7.9975  -19.5585   22.9720 C.ar    1  UNL1        0.0624
      3 C          -9.3774  -19.0033   23.1664 C.ar    1  UNL1        0.1566
      4 C          -9.9995  -18.8234   21.8134 C.ar    1  UNL1        0.1330
      5 S          -9.0042  -19.2674   20.7828 S.2     1  UNL1       -0.0559
      6 C          -2.2071  -19.0423   20.9847 C.ar    1  UNL1        0.1740
      7 C          -2.7316  -20.1966   20.1830 C.ar    1  UNL1        0.0607
      8 C          -4.1959  -20.5211   20.2049 C.ar    1  UNL1        0.1023
      9 N          -4.9974  -21.5895   19.5223 N.ar    1  UNL1       -0.2235
     10 C          -6.4326  -21.4201   19.9239 C.ar    1  UNL1        0.1831
     11 N          -6.5181  -20.2469   20.8548 N.ar    1  UNL1       -0.2822
     12 C          -5.1357  -19.6913   21.0284 C.ar    1  UNL1        0.0867
     13 C          -4.6113  -18.5371   21.8301 C.ar    1  UNL1        0.0591
     14 C          -3.1470  -18.2126   21.8082 C.ar    1  UNL1        0.1739
     15 C          -0.1577  -17.9691   19.8021 C.3     1  UNL1        0.2526
     16 O          -0.7427  -18.7177   20.9628 O.3     1  UNL1       -0.4683
     17 O          -2.6226  -17.0582   22.6099 O.3     1  UNL1       -0.4683
     18 C          -2.1839  -15.8021   21.9175 C.3     1  UNL1        0.2526
     19 C         -11.3754  -18.2927   21.5392 C.1     1  UNL1        0.1101
     20 N         -12.7514  -17.7620   21.2650 N.1     1  UNL1       -0.1902
     21 O         -10.0219  -18.6842   24.4827 O.3     1  UNL1       -0.4693
     22 C         -10.0400  -17.2712   24.9859 C.3     1  UNL1        0.2333
     23 C          -8.7988  -16.6684   25.5739 C.ar    1  UNL1        0.0383
     24 C          -8.5050  -16.8327   27.0356 C.ar    1  UNL1        0.0006
     25 C          -7.2636  -16.2298   27.6235 C.ar    1  UNL1       -0.0001
     26 C          -6.3162  -15.4626   26.7497 C.ar    1  UNL1        0.0013
     27 C          -6.6100  -15.2982   25.2880 C.ar    1  UNL1        0.0181
     28 C          -7.8512  -15.9010   24.7001 C.ar    1  UNL1        0.1052
     29 S          -8.1450  -15.7366   23.2384 S.O2    1  UNL1        0.0103
     30 C          -8.4389  -15.5722   21.7766 C.3     1  UNL1        0.1816
     31 O          -6.7547  -16.1921   22.9076 O.2     1  UNL1       -0.1686
     32 O          -9.5354  -15.2811   23.5691 O.2     1  UNL1       -0.1686
@<TRIPOS>BOND
     1    15    16    1
     2    16     6    1
     3     6     7   ar
     4     7     8   ar
     5     8     9   ar
     6     9    10   ar
     7    10    11   ar
     8    11     1    1
     9     1     2   ar
    10     2     3   ar
    11     3    21    1
    12    21    22    1
    13    22    23    1
    14    23    24   ar
    15    24    25   ar
    16    25    26   ar
    17    26    27   ar
    18    27    28   ar
    19    28    29    1
    20    29    30    1
    21    29    31    2
    22    29    32    2
    23     3     4   ar
    24     4    19    1
    25    19    20    3
    26     4     5   ar
    27    11    12   ar
    28    12    13   ar
    29    13    14   ar
    30    14    17    1
    31    17    18    1
    32    14     6   ar
    33    12     8   ar
    34     5     1   ar
    35    28    23   ar
@<TRIPOS>MOLECULE
*****
 32 35 0 0 0
SMALL
GASTEIGER

@<TRIPOS>ATOM
      1 C          -8.0729  -19.1174   21.4237 C.ar    1  UNL1        0.0992
      2 C          -8.1180  -18.4074   22.7443 C.ar    1  UNL1        0.0624
      3 C          -9.4935  -17.8340   22.9155 C.ar    1  UNL1        0.1566
      4 C         -10.2985  -18.1895   21.7008 C.ar    1  UNL1        0.1330
      5 S          -9.4205  -18.9827   20.7788 S.2     1  UNL1       -0.0559
      6 C          -2.4600  -19.2087   21.0730 C.ar    1  UNL1        0.1740
      7 C          -3.1116  -20.3227   20.3084 C.ar    1  UNL1        0.0607
      8 C          -4.6063  -20.4485   20.2943 C.ar    1  UNL1        0.1023
      9 N          -5.5243  -21.4346   19.6347 N.ar    1  UNL1       -0.2235
     10 C          -6.9346  -21.0559   19.9776 C.ar    1  UNL1        0.1831
     11 N          -6.8882  -19.8358   20.8490 N.ar    1  UNL1       -0.2822
     12 C          -5.4492  -19.4604   21.0447 C.ar    1  UNL1        0.0867
     13 C          -4.7976  -18.3466   21.8093 C.ar    1  UNL1        0.0591
     14 C          -3.3029  -18.2208   21.8234 C.ar    1  UNL1        0.1739
     15 C          -0.2691  -18.2919   20.0196 C.3     1  UNL1        0.2526
     16 O          -0.9653  -19.0829   21.0872 O.3     1  UNL1       -0.4683
     17 O          -2.6513  -17.1068   22.5881 O.3     1  UNL1       -0.4683
     18 C          -2.1410  -15.8973   21.8625 C.3     1  UNL1        0.2526
     19 C         -11.7300  -17.8172   21.4517 C.1     1  UNL1        0.1101
     20 N         -13.1616  -17.4449   21.2026 N.1     1  UNL1       -0.1902
     21 O          -9.9788  -17.0437   24.0945 O.3     1  UNL1       -0.4693
     22 C          -9.3580  -15.7162   24.4145 C.3     1  UNL1        0.2333
     23 C          -7.8777  -15.6137   24.6334 C.ar    1  UNL1        0.0383
     24 C          -6.9674  -15.3172   23.4787 C.ar    1  UNL1        0.0006
     25 C          -5.4870  -15.2147   23.6978 C.ar    1  UNL1       -0.0001
     26 C          -4.9169  -15.4087   25.0716 C.ar    1  UNL1        0.0013
     27 C          -5.8272  -15.7052   26.2263 C.ar    1  UNL1        0.0181
     28 C          -7.3075  -15.8077   26.0073 C.ar    1  UNL1        0.1052
     29 S          -8.2178  -16.1042   27.1620 S.O2    1  UNL1        0.0103
     30 C          -9.1282  -16.4007   28.3168 C.3     1  UNL1        0.1816
     31 O          -8.2041  -14.6541   27.5452 O.2     1  UNL1       -0.1686
     32 O          -8.2315  -17.5544   26.7788 O.2     1  UNL1       -0.1686
@<TRIPOS>BOND
     1    15    16    1
     2    16     6    1
     3     6     7   ar
     4     7     8   ar
     5     8     9   ar
     6     9    10   ar
     7    10    11   ar
     8    11     1    1
     9     1     2   ar
    10     2     3   ar
    11     3    21    1
    12    21    22    1
    13    22    23    1
    14    23    24   ar
    15    24    25   ar
    16    25    26   ar
    17    26    27   ar
    18    27    28   ar
    19    28    29    1
    20    29    30    1
    21    29    31    2
    22    29    32    2
    23     3     4   ar
    24     4    19    1
    25    19    20    3
    26     4     5   ar
    27    11    12   ar
    28    12    13   ar
    29    13    14   ar
    30    14    17    1
    31    17    18    1
    32    14     6   ar
    33    12     8   ar
    34     5     1   ar
    35    28    23   ar
@<TRIPOS>MOLECULE
*****
 32 35 0 0 0
SMALL
GASTEIGER

@<TRIPOS>ATOM
      1 C          -7.2076  -19.1655   20.7286 C.ar    1  UNL1        0.0992
      2 C          -8.6361  -18.7717   20.9611 C.ar    1  UNL1        0.0624
      3 C          -9.4659  -19.3678   19.8628 C.ar    1  UNL1        0.1566
      4 C          -8.5502  -20.1301   18.9516 C.ar    1  UNL1        0.1330
      5 S          -7.1545  -20.0051   19.4866 S.2     1  UNL1       -0.0559
      6 C          -5.3776  -15.6930   24.7571 C.ar    1  UNL1        0.1740
      7 C          -4.3294  -16.6652   24.3029 C.ar    1  UNL1        0.0607
      8 C          -4.6484  -17.6659   23.2319 C.ar    1  UNL1        0.1023
      9 N          -3.8255  -18.7403   22.5851 N.ar    1  UNL1       -0.2235
     10 C          -4.6841  -19.4329   21.5686 C.ar    1  UNL1        0.1831
     11 N          -6.0375  -18.7864   21.5872 N.ar    1  UNL1       -0.2822
     12 C          -6.0155  -17.6944   22.6153 C.ar    1  UNL1        0.0867
     13 C          -7.0635  -16.7222   23.0695 C.ar    1  UNL1        0.0591
     14 C          -6.7446  -15.7215   24.1404 C.ar    1  UNL1        0.1739
     15 C          -5.8588  -14.6706   27.0966 C.3     1  UNL1        0.2526
     16 O          -5.0586  -14.6923   25.8281 O.3     1  UNL1       -0.4683
     17 O          -7.7928  -14.7493   24.5947 O.3     1  UNL1       -0.4683
     18 C          -8.9719  -15.2329   25.3855 C.3     1  UNL1        0.2526
     19 C          -8.9585  -20.8849   17.7213 C.1     1  UNL1        0.1101
     20 N          -9.3668  -21.6397   16.4910 N.1     1  UNL1       -0.1902
     21 O         -10.9507  -19.2265   19.7038 O.3     1  UNL1       -0.4693
     22 C         -11.8340  -19.1831   20.9153 C.3     1  UNL1        0.2333
     23 C         -11.2359  -19.3131   22.2847 C.ar    1  UNL1        0.0383
     24 C         -10.5926  -20.6020   22.7029 C.ar    1  UNL1        0.0006
     25 C          -9.9945  -20.7319   24.0724 C.ar    1  UNL1       -0.0001
     26 C         -10.0397  -19.5730   25.0236 C.ar    1  UNL1        0.0013
     27 C         -10.6831  -18.2841   24.6054 C.ar    1  UNL1        0.0181
     28 C         -11.2811  -18.1542   23.2360 C.ar    1  UNL1        0.1052
     29 S         -11.9245  -16.8653   22.8178 S.O2    1  UNL1        0.0103
     30 C         -12.5678  -15.5764   22.3995 C.3     1  UNL1        0.1816
     31 O         -10.5882  -16.3385   22.3855 O.2     1  UNL1       -0.1686
     32 O         -13.2607  -17.3921   23.2500 O.2     1  UNL1       -0.1686
@<TRIPOS>BOND
     1    15    16    1
     2    16     6    1
     3     6     7   ar
     4     7     8   ar
     5     8     9   ar
     6     9    10   ar
     7    10    11   ar
     8    11     1    1
     9     1     2   ar
    10     2     3   ar
    11     3    21    1
    12    21    22    1
    13    22    23    1
    14    23    24   ar
    15    24    25   ar
    16    25    26   ar
    17    26    27   ar
    18    27    28   ar
    19    28    29    1
    20    29    30    1
    21    29    31    2
    22    29    32    2
    23     3     4   ar
    24     4    19    1
    25    19    20    3
    26     4     5   ar
    27    11    12   ar
    28    12    13   ar
    29    13    14   ar
    30    14    17    1
    31    17    18    1
    32    14     6   ar
    33    12     8   ar
    34     5     1   ar
    35    28    23   ar
@<TRIPOS>MOLECULE
*****
 32 35 0 0 0
SMALL
GASTEIGER

@<TRIPOS>ATOM
      1 C          -6.8243  -19.7209   20.3909 C.ar    1  UNL1        0.0992
      2 C          -8.1553  -19.0996   20.6951 C.ar    1  UNL1        0.0624
      3 C          -9.1110  -19.4964   19.6092 C.ar    1  UNL1        0.1566
      4 C          -8.3708  -20.3628   18.6338 C.ar    1  UNL1        0.1330
      5 S          -6.9575  -20.5015   19.1170 S.2     1  UNL1       -0.0559
      6 C          -1.3145  -18.5966   20.2717 C.ar    1  UNL1        0.1740
      7 C          -1.8213  -18.8906   21.6526 C.ar    1  UNL1        0.0607
      8 C          -3.2708  -19.2118   21.8668 C.ar    1  UNL1        0.1023
      9 N          -4.0537  -19.5413   23.1032 N.ar    1  UNL1       -0.2235
     10 C          -5.4801  -19.7720   22.7007 C.ar    1  UNL1        0.1831
     11 N          -5.5788  -19.5852   21.2157 N.ar    1  UNL1       -0.2822
     12 C          -4.2133  -19.2390   20.7003 C.ar    1  UNL1        0.0867
     13 C          -3.7065  -18.9450   19.3195 C.ar    1  UNL1        0.0591
     14 C          -2.2570  -18.6238   19.1053 C.ar    1  UNL1        0.1739
     15 C           0.5823  -16.8460   19.9752 C.3     1  UNL1        0.2526
     16 O           0.1350  -18.2754   20.0574 O.3     1  UNL1       -0.4683
     17 O          -1.7502  -18.3298   17.7244 O.3     1  UNL1       -0.4683
     18 C          -2.2589  -17.1324   16.9779 C.3     1  UNL1        0.2526
     19 C          -8.9433  -20.9818   17.3932 C.1     1  UNL1        0.1101
     20 N          -9.5157  -21.6008   16.1526 N.1     1  UNL1       -0.1902
     21 O         -10.5538  -19.0969   19.5152 O.3     1  UNL1       -0.4693
     22 C         -11.4780  -19.3469   20.6698 C.3     1  UNL1        0.2333
     23 C         -11.0508  -18.9920   22.0631 C.ar    1  UNL1        0.0383
     24 C         -10.8657  -20.0709   23.0887 C.ar    1  UNL1        0.0006
     25 C         -10.4384  -19.7159   24.4820 C.ar    1  UNL1       -0.0001
     26 C         -10.1962  -18.2820   24.8498 C.ar    1  UNL1        0.0013
     27 C         -10.3813  -17.2031   23.8243 C.ar    1  UNL1        0.0181
     28 C         -10.8086  -17.5581   22.4310 C.ar    1  UNL1        0.1052
     29 S         -10.9936  -16.4792   21.4054 S.O2    1  UNL1        0.0103
     30 C         -11.1788  -15.4003   20.3798 C.3     1  UNL1        0.1816
     31 O          -9.5053  -16.3618   21.2602 O.2     1  UNL1       -0.1686
     32 O         -12.4820  -16.5966   21.5506 O.2     1  UNL1       -0.1686
@<TRIPOS>BOND
     1    15    16    1
     2    16     6    1
     3     6     7   ar
     4     7     8   ar
     5     8     9   ar
     6     9    10   ar
     7    10    11   ar
     8    11     1    1
     9     1     2   ar
    10     2     3   ar
    11     3    21    1
    12    21    22    1
    13    22    23    1
    14    23    24   ar
    15    24    25   ar
    16    25    26   ar
    17    26    27   ar
    18    27    28   ar
    19    28    29    1
    20    29    30    1
    21    29    31    2
    22    29    32    2
    23     3     4   ar
    24     4    19    1
    25    19    20    3
    26     4     5   ar
    27    11    12   ar
    28    12    13   ar
    29    13    14   ar
    30    14    17    1
    31    17    18    1
    32    14     6   ar
    33    12     8   ar
    34     5     1   ar
    35    28    23   ar
@<TRIPOS>MOLECULE
*****
 32 35 0 0 0
SMALL
GASTEIGER

@<TRIPOS>ATOM
      1 C           3.1801   -0.1959   24.8516 C.ar    1  UNL1        0.0992
      2 C           3.3552   -0.3175   23.3668 C.ar    1  UNL1        0.0624
      3 C           4.3441   -1.4146   23.1051 C.ar    1  UNL1        0.1566
      4 C           4.7802   -1.9710   24.4281 C.ar    1  UNL1        0.1330
      5 S           4.0608   -1.2178   25.5075 S.2     1  UNL1       -0.0559
      6 C           0.8731    1.2083   29.7854 C.ar    1  UNL1        0.1740
      7 C           0.4796    2.1331   28.6718 C.ar    1  UNL1        0.0607
      8 C           1.0057    1.9045   27.2858 C.ar    1  UNL1        0.1023
      9 N           0.7944    2.6432   25.9976 N.ar    1  UNL1       -0.2235
     10 C           1.5832    1.9463   24.9289 C.ar    1  UNL1        0.1831
     11 N           2.2820    0.7769   25.5567 N.ar    1  UNL1       -0.2822
     12 C           1.9251    0.7511   27.0134 C.ar    1  UNL1        0.0867
     13 C           2.3185   -0.1738   28.1269 C.ar    1  UNL1        0.0591
     14 C           1.7924    0.0549   29.5129 C.ar    1  UNL1        0.1739
     15 C           0.9775    2.4755   32.0511 C.3     1  UNL1        0.2526
     16 O           0.3470    1.4369   31.1715 O.3     1  UNL1       -0.4683
     17 O           2.1859   -0.8700   30.6265 O.3     1  UNL1       -0.4683
     18 C           3.3790   -0.5531   31.4784 C.3     1  UNL1        0.2526
     19 C           5.7631   -3.0850   24.6353 C.1     1  UNL1        0.1101
     20 N           6.7460   -4.1990   24.8425 N.1     1  UNL1       -0.1902
     21 O           4.8144   -1.8746   21.7570 O.3     1  UNL1       -0.4693
     22 C           3.8179   -2.3049   20.7217 C.3     1  UNL1        0.2333
     23 C           3.0739   -1.2760   19.9234 C.ar    1  UNL1        0.0383
     24 C           1.6625   -0.9211   20.2867 C.ar    1  UNL1        0.0006
     25 C           0.9185    0.1079   19.4882 C.ar    1  UNL1       -0.0001
     26 C           1.5859    0.7821   18.3264 C.ar    1  UNL1        0.0013
     27 C           2.9973    0.4273   17.9630 C.ar    1  UNL1        0.0181
     28 C           3.7413   -0.6016   18.7614 C.ar    1  UNL1        0.1052
     29 S           5.1526   -0.9564   18.3981 S.O2    1  UNL1        0.0103
     30 C           6.5641   -1.3113   18.0347 C.3     1  UNL1        0.1816
     31 O           4.6476   -2.0479   17.5016 O.2     1  UNL1       -0.1686
     32 O           5.6578    0.1350   19.2945 O.2     1  UNL1       -0.1686
@<TRIPOS>BOND
     1    15    16    1
     2    16     6    1
     3     6     7   ar
     4     7     8   ar
     5     8     9   ar
     6     9    10   ar
     7    10    11   ar
     8    11     1    1
     9     1     2   ar
    10     2     3   ar
    11     3    21    1
    12    21    22    1
    13    22    23    1
    14    23    24   ar
    15    24    25   ar
    16    25    26   ar
    17    26    27   ar
    18    27    28   ar
    19    28    29    1
    20    29    30    1
    21    29    31    2
    22    29    32    2
    23     3     4   ar
    24     4    19    1
    25    19    20    3
    26     4     5   ar
    27    11    12   ar
    28    12    13   ar
    29    13    14   ar
    30    14    17    1
    31    17    18    1
    32    14     6   ar
    33    12     8   ar
    34     5     1   ar
    35    28    23   ar
@<TRIPOS>MOLECULE
*****
 32 35 0 0 0
SMALL
GASTEIGER

@<TRIPOS>ATOM
      1 C           7.2745   -4.6289   23.2606 C.ar    1  UNL1        0.0992
      2 C           6.0939   -3.7114   23.1394 C.ar    1  UNL1        0.0624
      3 C           6.2473   -2.9236   21.8722 C.ar    1  UNL1        0.1566
      4 C           7.5226   -3.3541   21.2102 C.ar    1  UNL1        0.1330
      5 S           8.1574   -4.4080   22.0683 S.2     1  UNL1       -0.0559
      6 C           7.0397   -5.4122   28.8254 C.ar    1  UNL1        0.1740
      7 C           7.5538   -6.6127   28.0873 C.ar    1  UNL1        0.0607
      8 C           7.6813   -6.5765   26.5932 C.ar    1  UNL1        0.1023
      9 N           8.1530   -7.5979   25.6012 N.ar    1  UNL1       -0.2235
     10 C           8.0580   -6.9926   24.2320 C.ar    1  UNL1        0.1831
     11 N           7.5276   -5.5971   24.3779 N.ar    1  UNL1       -0.2822
     12 C           7.2947   -5.3399   25.8372 C.ar    1  UNL1        0.0867
     13 C           6.7807   -4.1396   26.5753 C.ar    1  UNL1        0.0591
     14 C           6.6531   -4.1757   28.0694 C.ar    1  UNL1        0.1739
     15 C           7.9778   -4.8344   31.1784 C.3     1  UNL1        0.2526
     16 O           6.9121   -5.4484   30.3196 O.3     1  UNL1       -0.4683
     17 O           6.1391   -2.9753   28.8075 O.3     1  UNL1       -0.4683
     18 C           7.0436   -1.8056   29.0594 C.3     1  UNL1        0.2526
     19 C           8.0675   -2.8238   19.9172 C.1     1  UNL1        0.1101
     20 N           8.6123   -2.2935   18.6241 N.1     1  UNL1       -0.1902
     21 O           5.2929   -1.8872   21.3574 O.3     1  UNL1       -0.4693
     22 C           4.4911   -2.1555   20.1184 C.3     1  UNL1        0.2333
     23 C           3.3679   -1.2370   19.7383 C.ar    1  UNL1        0.0383
     24 C           2.0699   -1.2890   20.4883 C.ar    1  UNL1        0.0006
     25 C           0.9467   -0.3704   20.1081 C.ar    1  UNL1       -0.0001
     26 C           1.1214    0.6002   18.9778 C.ar    1  UNL1        0.0013
     27 C           2.4194    0.6521   18.2278 C.ar    1  UNL1        0.0181
     28 C           3.5426   -0.2664   18.6080 C.ar    1  UNL1        0.1052
     29 S           4.8405   -0.2145   17.8580 S.O2    1  UNL1        0.0103
     30 C           6.1386   -0.1625   17.1079 C.3     1  UNL1        0.1816
     31 O           5.3920    0.7370   18.8780 O.2     1  UNL1       -0.1686
     32 O           4.2891   -1.1659   16.8379 O.2     1  UNL1       -0.1686
@<TRIPOS>BOND
     1    15    16    1
     2    16     6    1
     3     6     7   ar
     4     7     8   ar
     5     8     9   ar
     6     9    10   ar
     7    10    11   ar
     8    11     1    1
     9     1     2   ar
    10     2     3   ar
    11     3    21    1
    12    21    22    1
    13    22    23    1
    14    23    24   ar
    15    24    25   ar
    16    25    26   ar
    17    26    27   ar
    18    27    28   ar
    19    28    29    1
    20    29    30    1
    21    29    31    2
    22    29    32    2
    23     3     4   ar
    24     4    19    1
    25    19    20    3
    26     4     5   ar
    27    11    12   ar
    28    12    13   ar
    29    13    14   ar
    30    14    17    1
    31    17    18    1
    32    14     6   ar
    33    12     8   ar
    34     5     1   ar
    35    28    23   ar
@<TRIPOS>MOLECULE
*****
 32 35 0 0 0
SMALL
GASTEIGER

@<TRIPOS>ATOM
      1 C           4.9813   -0.9790   25.9979 C.ar    1  UNL1        0.0992
      2 C           3.9552   -0.8893   24.9074 C.ar    1  UNL1        0.0624
      3 C           4.2997   -1.9082   23.8618 C.ar    1  UNL1        0.1566
      4 C           5.5387   -2.6276   24.3060 C.ar    1  UNL1        0.1330
      5 S           5.9599   -2.0533   25.6262 S.2     1  UNL1       -0.0559
      6 C           2.0160    0.8898   30.3968 C.ar    1  UNL1        0.1740
      7 C           3.4318    1.3855   30.3932 C.ar    1  UNL1        0.0607
      8 C           4.3645    0.9830   29.2896 C.ar    1  UNL1        0.1023
      9 N           5.8033    1.3116   29.0216 N.ar    1  UNL1       -0.2235
     10 C           6.2094    0.6166   27.7559 C.ar    1  UNL1        0.1831
     11 N           5.0217   -0.1415   27.2416 N.ar    1  UNL1       -0.2822
     12 C           3.8814    0.0849   28.1896 C.ar    1  UNL1        0.0867
     13 C           2.4657   -0.4107   28.1932 C.ar    1  UNL1        0.0591
     14 C           1.5330   -0.0082   29.2968 C.ar    1  UNL1        0.1739
     15 C           0.4408    2.6477   31.4826 C.3     1  UNL1        0.2526
     16 O           1.0832    1.2923   31.5005 O.3     1  UNL1       -0.4683
     17 O           0.1172   -0.5038   29.3004 O.3     1  UNL1       -0.4683
     18 C          -0.9515    0.2738   28.5912 C.3     1  UNL1        0.2526
     19 C           6.2343   -3.7280   23.5609 C.1     1  UNL1        0.1101
     20 N           6.9300   -4.8284   22.8158 N.1     1  UNL1       -0.1902
     21 O           3.5388   -2.1629   22.5945 O.3     1  UNL1       -0.4693
     22 C           4.0579   -1.6367   21.2893 C.3     1  UNL1        0.2333
     23 C           3.1395   -0.9028   20.3578 C.ar    1  UNL1        0.0383
     24 C           1.7375   -0.5828   20.7845 C.ar    1  UNL1        0.0006
     25 C           0.8191    0.1511   19.8528 C.ar    1  UNL1       -0.0001
     26 C           1.3027    0.5651   18.4946 C.ar    1  UNL1        0.0013
     27 C           2.7047    0.2451   18.0680 C.ar    1  UNL1        0.0181
     28 C           3.6230   -0.4888   18.9995 C.ar    1  UNL1        0.1052
     29 S           5.0250   -0.8087   18.5729 S.O2    1  UNL1        0.0103
     30 C           6.4271   -1.1287   18.1463 C.3     1  UNL1        0.1816
     31 O           4.5519   -2.1085   17.9926 O.2     1  UNL1       -0.1686
     32 O           5.4982    0.4910   19.1533 O.2     1  UNL1       -0.1686
@<TRIPOS>BOND
     1    15    16    1
     2    16     6    1
     3     6     7   ar
     4     7     8   ar
     5     8     9   ar
     6     9    10   ar
     7    10    11   ar
     8    11     1    1
     9     1     2   ar
    10     2     3   ar
    11     3    21    1
    12    21    22    1
    13    22    23    1
    14    23    24   ar
    15    24    25   ar
    16    25    26   ar
    17    26    27   ar
    18    27    28   ar
    19    28    29    1
    20    29    30    1
    21    29    31    2
    22    29    32    2
    23     3     4   ar
    24     4    19    1
    25    19    20    3
    26     4     5   ar
    27    11    12   ar
    28    12    13   ar
    29    13    14   ar
    30    14    17    1
    31    17    18    1
    32    14     6   ar
    33    12     8   ar
    34     5     1   ar
    35    28    23   ar
@<TRIPOS>MOLECULE
*****
 32 35 0 0 0
SMALL
GASTEIGER

@<TRIPOS>ATOM
      1 C           7.8469   -4.4293   23.3430 C.ar    1  UNL1        0.0992
      2 C           7.2875   -3.6894   24.5218 C.ar    1  UNL1        0.0624
      3 C           7.1289   -4.6660   25.6493 C.ar    1  UNL1        0.1566
      4 C           7.5903   -6.0094   25.1673 C.ar    1  UNL1        0.1330
      5 S           8.0340   -5.8631   23.7419 S.2     1  UNL1       -0.0559
      6 C           5.6721   -2.3508   18.5905 C.ar    1  UNL1        0.1740
      7 C           7.1721   -2.3484   18.5969 C.ar    1  UNL1        0.0607
      8 C           7.9178   -2.8693   19.7896 C.ar    1  UNL1        0.1023
      9 N           9.3840   -2.9922   20.0814 N.ar    1  UNL1       -0.2235
     10 C           9.5358   -3.5916   21.4481 C.ar    1  UNL1        0.1831
     11 N           8.1635   -3.8391   22.0008 N.ar    1  UNL1       -0.2822
     12 C           7.1635   -3.3926   20.9758 C.ar    1  UNL1        0.0867
     13 C           5.6635   -3.3951   20.9693 C.ar    1  UNL1        0.0591
     14 C           4.9179   -2.8742   19.7766 C.ar    1  UNL1        0.1739
     15 C           4.8144   -0.3515   17.1702 C.3     1  UNL1        0.2526
     16 O           4.9263   -1.8299   17.3977 O.3     1  UNL1       -0.4683
     17 O           3.4178   -2.8766   19.7702 O.3     1  UNL1       -0.4683
     18 C           2.6645   -1.6112   20.0546 C.3     1  UNL1        0.2526
     19 C           7.6054   -7.2766   25.9698 C.1     1  UNL1        0.1101
     20 N           7.6204   -8.5438   26.7723 N.1     1  UNL1       -0.1902
     21 O           6.6015   -4.3539   27.0184 O.3     1  UNL1       -0.4693
     22 C           7.4063   -3.5038   27.9563 C.3     1  UNL1        0.2333
     23 C           6.9225   -3.2668   29.3562 C.ar    1  UNL1        0.0383
     24 C           6.0603   -2.0778   29.6607 C.ar    1  UNL1        0.0006
     25 C           5.5766   -1.8409   31.0607 C.ar    1  UNL1       -0.0001
     26 C           5.9551   -2.7931   32.1561 C.ar    1  UNL1        0.0013
     27 C           6.8174   -3.9821   31.8517 C.ar    1  UNL1        0.0181
     28 C           7.3011   -4.2190   30.4518 C.ar    1  UNL1        0.1052
     29 S           8.1633   -5.4080   30.1473 S.O2    1  UNL1        0.0103
     30 C           9.0256   -6.5971   29.8428 C.3     1  UNL1        0.1816
     31 O           6.9378   -6.2221   29.8552 O.2     1  UNL1       -0.1686
     32 O           9.3889   -4.5940   30.4394 O.2     1  UNL1       -0.1686
@<TRIPOS>BOND
     1    15    16    1
     2    16     6    1
     3     6     7   ar
     4     7     8   ar
     5     8     9   ar
     6     9    10   ar
     7    10    11   ar
     8    11     1    1
     9     1     2   ar
    10     2     3   ar
    11     3    21    1
    12    21    22    1
    13    22    23    1
    14    23    24   ar
    15    24    25   ar
    16    25    26   ar
    17    26    27   ar
    18    27    28   ar
    19    28    29    1
    20    29    30    1
    21    29    31    2
    22    29    32    2
    23     3     4   ar
    24     4    19    1
    25    19    20    3
    26     4     5   ar
    27    11    12   ar
    28    12    13   ar
    29    13    14   ar
    30    14    17    1
    31    17    18    1
    32    14     6   ar
    33    12     8   ar
    34     5     1   ar
    35    28    23   ar
@<TRIPOS>MOLECULE
*****
 32 35 0 0 0
SMALL
GASTEIGER

@<TRIPOS>ATOM
      1 C           5.1099   -2.1950   24.6241 C.ar    1  UNL1        0.0992
      2 C           4.2062   -2.1589   23.4274 C.ar    1  UNL1        0.0624
      3 C           4.8616   -2.9410   22.3279 C.ar    1  UNL1        0.1566
      4 C           6.1703   -3.4604   22.8451 C.ar    1  UNL1        0.1330
      5 S           6.3238   -2.9994   24.2642 S.2     1  UNL1       -0.0559
      6 C           6.1431   -2.3896   30.1496 C.ar    1  UNL1        0.1740
      7 C           5.2480   -1.2499   29.7621 C.ar    1  UNL1        0.0607
      8 C           4.8694   -1.0489   28.3246 C.ar    1  UNL1        0.1023
      9 N           4.0105   -0.0227   27.6470 N.ar    1  UNL1       -0.2235
     10 C           3.9961   -0.3271   26.1783 C.ar    1  UNL1        0.1831
     11 N           4.8461   -1.5415   25.9482 N.ar    1  UNL1       -0.2822
     12 C           5.3858   -1.9876   27.2748 C.ar    1  UNL1        0.0867
     13 C           6.2808   -3.1272   27.6623 C.ar    1  UNL1        0.0591
     14 C           6.6594   -3.3282   29.0998 C.ar    1  UNL1        0.1739
     15 C           5.7245   -1.9294   32.6722 C.3     1  UNL1        0.2526
     16 O           6.5217   -2.5906   31.5871 O.3     1  UNL1       -0.4683
     17 O           7.5544   -4.4679   29.4873 O.3     1  UNL1       -0.4683
     18 C           6.9662   -5.7196   30.0678 C.3     1  UNL1        0.2526
     19 C           7.1531   -4.2944   22.0778 C.1     1  UNL1        0.1101
     20 N           8.1358   -5.1284   21.3106 N.1     1  UNL1       -0.1902
     21 O           4.3058   -3.1643   20.9527 O.3     1  UNL1       -0.4693
     22 C           4.4926   -2.1224   19.8899 C.3     1  UNL1        0.2333
     23 C           3.3798   -1.1688   19.5707 C.ar    1  UNL1        0.0383
     24 C           2.0817   -1.2537   20.3175 C.ar    1  UNL1        0.0006
     25 C           0.9689   -0.2999   19.9981 C.ar    1  UNL1       -0.0001
     26 C           1.1541    0.7387   18.9319 C.ar    1  UNL1        0.0013
     27 C           2.4522    0.8237   18.1851 C.ar    1  UNL1        0.0181
     28 C           3.5650   -0.1300   18.5044 C.ar    1  UNL1        0.1052
     29 S           4.8631   -0.0451   17.7576 S.O2    1  UNL1        0.0103
     30 C           6.1612    0.0399   17.0108 C.3     1  UNL1        0.1816
     31 O           4.3167   -0.9617   16.7035 O.2     1  UNL1       -0.1686
     32 O           5.4095    0.8715   18.8117 O.2     1  UNL1       -0.1686
@<TRIPOS>BOND
     1    15    16    1
     2    16     6    1
     3     6     7   ar
     4     7     8   ar
     5     8     9   ar
     6     9    10   ar
     7    10    11   ar
     8    11     1    1
     9     1     2   ar
    10     2     3   ar
    11     3    21    1
    12    21    22    1
    13    22    23    1
    14    23    24   ar
    15    24    25   ar
    16    25    26   ar
    17    26    27   ar
    18    27    28   ar
    19    28    29    1
    20    29    30    1
    21    29    31    2
    22    29    32    2
    23     3     4   ar
    24     4    19    1
    25    19    20    3
    26     4     5   ar
    27    11    12   ar
    28    12    13   ar
    29    13    14   ar
    30    14    17    1
    31    17    18    1
    32    14     6   ar
    33    12     8   ar
    34     5     1   ar
    35    28    23   ar
