@<TRIPOS>MOLECULE
*****
 35 38 0 0 0
SMALL
GASTEIGER

@<TRIPOS>ATOM
      1 C          -5.6564  -17.0951   23.3041 C.ar    1  UNL1        0.2019
      2 N          -4.3808  -16.3675   22.9984 N.ar    1  UNL1       -0.2135
      3 C          -3.5293  -17.2621   22.1471 C.ar    1  UNL1        0.1001
      4 C          -2.1685  -17.0761   21.5442 C.ar    1  UNL1        0.0252
      5 C          -1.5571  -18.1707   20.7208 C.ar    1  UNL1        0.0547
      6 C          -2.3065  -19.4513   20.5004 C.ar    1  UNL1        0.0061
      7 C          -3.6673  -19.6372   21.1033 C.ar    1  UNL1        0.0189
      8 C          -4.2787  -18.5427   21.9266 C.ar    1  UNL1        0.0802
      9 N          -5.5933  -18.4394   22.6417 N.ar    1  UNL1       -0.2953
     10 C          -0.1962  -17.9848   20.1179 C.2     1  UNL1        0.2428
     11 N           0.4035  -16.6128   20.0287 N.am    1  UNL1       -0.3253
     12 O           0.5649  -19.1709   19.6042 O.2     1  UNL1       -0.2704
     13 H          -0.0961  -15.8344   20.3659 H       1  UNL1        0.1453
     14 H           1.2967  -16.4908   19.6330 H       1  UNL1        0.1453
     15 N          -6.7951  -16.5705   24.1275 N.pl3   1  UNL1       -0.2839
     16 H          -6.6362  -16.2666   25.0504 H       1  UNL1        0.1550
     17 C         -10.9377  -16.3856   22.3799 C.ar    1  UNL1        0.0253
     18 C         -10.7495  -16.7238   23.8291 C.ar    1  UNL1        0.0074
     19 C          -9.3687  -16.7854   24.4116 C.ar    1  UNL1        0.0152
     20 C          -8.1759  -16.5088   23.5450 C.ar    1  UNL1        0.0504
     21 C          -8.3642  -16.1707   22.0958 C.ar    1  UNL1        0.0152
     22 C          -9.7451  -16.1091   21.5132 C.ar    1  UNL1        0.0074
     23 C         -13.0793  -17.5900   21.5352 C.3     1  UNL1        0.0742
     24 S         -12.3187  -16.3240   21.7973 S.3     1  UNL1       -0.1127
     25 C          -6.6579  -19.4952   22.6864 C.3     1  UNL1        0.1354
     26 C          -7.7212  -19.5335   21.6292 C.ar    1  UNL1        0.0044
     27 C          -7.3767  -19.2046   20.2068 C.ar    1  UNL1       -0.0024
     28 C          -8.4400  -19.2428   19.1495 C.ar    1  UNL1       -0.0003
     29 C          -9.8479  -19.6100   19.5146 C.ar    1  UNL1       -0.0001
     30 C         -10.1923  -19.9389   20.9369 C.ar    1  UNL1        0.0036
     31 C          -9.1290  -19.9007   21.9943 C.ar    1  UNL1        0.0693
     32 C          -9.4735  -20.2296   23.4166 C.3     1  UNL1        0.4183
     33 F          -9.8179  -20.5585   24.8389 F       1  UNL1       -0.1659
     34 F         -10.7784  -19.5050   23.2681 F       1  UNL1       -0.1659
     35 F          -8.1686  -20.9542   23.5651 F       1  UNL1       -0.1659
@<TRIPOS>BOND
     1    23    24    1
     2    24    17    1
     3    17    18   ar
     4    18    19   ar
     5    19    20   ar
     6    20    15    1
     7    15     1    1
     8     1     2   ar
     9     2     3   ar
    10     3     4   ar
    11     4     5   ar
    12     5    10    1
    13    10    11   am
    14    10    12    2
    15     5     6   ar
    16     6     7   ar
    17     7     8   ar
    18     8     9   ar
    19     9    25    1
    20    25    26    1
    21    26    27   ar
    22    27    28   ar
    23    28    29   ar
    24    29    30   ar
    25    30    31   ar
    26    31    32    1
    27    32    33    1
    28    32    34    1
    29    32    35    1
    30    20    21   ar
    31    21    22   ar
    32    22    17   ar
    33     9     1   ar
    34    31    26   ar
    35     8     3   ar
    36    15    16    1
    37    11    13    1
    38    11    14    1
@<TRIPOS>MOLECULE
*****
 35 38 0 0 0
SMALL
GASTEIGER

@<TRIPOS>ATOM
      1 C          -6.3993  -18.1719   21.7763 C.ar    1  UNL1        0.2019
      2 N          -5.6746  -17.4670   22.8844 N.ar    1  UNL1       -0.2135
      3 C          -6.6995  -16.9023   23.8229 C.ar    1  UNL1        0.1001
      4 C          -6.5715  -16.1100   25.0901 C.ar    1  UNL1        0.0252
      5 C          -7.8016  -15.6737   25.8293 C.ar    1  UNL1        0.0547
      6 C          -9.1597  -16.0296   25.3012 C.ar    1  UNL1        0.0061
      7 C          -9.2877  -16.8219   24.0340 C.ar    1  UNL1        0.0189
      8 C          -8.0576  -17.2582   23.2949 C.ar    1  UNL1        0.0802
      9 N          -7.8721  -18.0429   22.0300 N.ar    1  UNL1       -0.2953
     10 C          -7.6736  -14.8814   27.0966 C.2     1  UNL1        0.2428
     11 N          -6.3326  -14.3636   27.5252 N.am    1  UNL1       -0.3253
     12 O          -8.8866  -14.6069   27.9352 O.2     1  UNL1       -0.2704
     13 H          -5.5365  -14.5438   26.9747 H       1  UNL1        0.1453
     14 H          -6.2486  -13.8436   28.3569 H       1  UNL1        0.1453
     15 N          -5.7630  -18.8813   20.6179 N.pl3   1  UNL1       -0.2839
     16 H          -6.3182  -19.4058   19.9967 H       1  UNL1        0.1550
     17 C          -1.3163  -18.6120   19.9820 C.ar    1  UNL1        0.0253
     18 C          -1.8589  -19.2613   21.2206 C.ar    1  UNL1        0.0074
     19 C          -3.3411  -19.3511   21.4325 C.ar    1  UNL1        0.0152
     20 C          -4.2808  -18.7915   20.4059 C.ar    1  UNL1        0.0504
     21 C          -3.7382  -18.1422   19.1673 C.ar    1  UNL1        0.0152
     22 C          -2.2559  -18.0525   18.9554 C.ar    1  UNL1        0.0074
     23 C           0.9022  -17.2693   20.1416 C.3     1  UNL1        0.0742
     24 S           0.1660  -18.5223   19.7701 S.3     1  UNL1       -0.1127
     25 C          -8.9671  -18.6006   21.1698 C.3     1  UNL1        0.1354
     26 C         -10.3327  -17.9809   21.1986 C.ar    1  UNL1        0.0044
     27 C         -10.6263  -16.7733   20.3586 C.ar    1  UNL1       -0.0024
     28 C         -11.9920  -16.1536   20.3873 C.ar    1  UNL1       -0.0003
     29 C         -13.0642  -16.7415   21.2562 C.ar    1  UNL1       -0.0001
     30 C         -12.7706  -17.9490   22.0962 C.ar    1  UNL1        0.0036
     31 C         -11.4050  -18.5687   22.0674 C.ar    1  UNL1        0.0693
     32 C         -11.1115  -19.7763   22.9075 C.3     1  UNL1        0.4183
     33 F         -10.8181  -20.9837   23.7476 F       1  UNL1       -0.1659
     34 F         -11.1036  -20.6316   21.6753 F       1  UNL1       -0.1659
     35 F         -11.1194  -18.9210   24.1397 F       1  UNL1       -0.1659
@<TRIPOS>BOND
     1    23    24    1
     2    24    17    1
     3    17    18   ar
     4    18    19   ar
     5    19    20   ar
     6    20    15    1
     7    15     1    1
     8     1     2   ar
     9     2     3   ar
    10     3     4   ar
    11     4     5   ar
    12     5    10    1
    13    10    11   am
    14    10    12    2
    15     5     6   ar
    16     6     7   ar
    17     7     8   ar
    18     8     9   ar
    19     9    25    1
    20    25    26    1
    21    26    27   ar
    22    27    28   ar
    23    28    29   ar
    24    29    30   ar
    25    30    31   ar
    26    31    32    1
    27    32    33    1
    28    32    34    1
    29    32    35    1
    30    20    21   ar
    31    21    22   ar
    32    22    17   ar
    33     9     1   ar
    34    31    26   ar
    35     8     3   ar
    36    15    16    1
    37    11    13    1
    38    11    14    1
@<TRIPOS>MOLECULE
*****
 35 38 0 0 0
SMALL
GASTEIGER

@<TRIPOS>ATOM
      1 C          -6.5208  -18.0084   21.9524 C.ar    1  UNL1        0.2019
      2 N          -5.7361  -17.3508   23.0486 N.ar    1  UNL1       -0.2135
      3 C          -6.7088  -16.7254   24.0040 C.ar    1  UNL1        0.1001
      4 C          -6.5116  -15.9441   25.2692 C.ar    1  UNL1        0.0252
      5 C          -7.7004  -15.4340   26.0286 C.ar    1  UNL1        0.0547
      6 C          -9.0862  -15.7052   25.5228 C.ar    1  UNL1        0.0061
      7 C          -9.2834  -16.4865   24.2576 C.ar    1  UNL1        0.0189
      8 C          -8.0947  -16.9966   23.4982 C.ar    1  UNL1        0.0802
      9 N          -7.9784  -17.7895   22.2303 N.ar    1  UNL1       -0.2953
     10 C          -7.5032  -14.6527   27.2938 C.2     1  UNL1        0.2428
     11 N          -6.1340  -14.1709   27.6721 N.am    1  UNL1       -0.3253
     12 O          -8.6753  -14.3531   28.1806 O.2     1  UNL1       -0.2704
     13 H          -5.3647  -14.3675   27.0900 H       1  UNL1        0.1453
     14 H          -6.0046  -13.6581   28.5025 H       1  UNL1        0.1453
     15 N          -5.9483  -18.7540   20.7835 N.pl3   1  UNL1       -0.2839
     16 H          -6.5406  -19.2735   20.1931 H       1  UNL1        0.1550
     17 C          -1.5236  -18.6165   19.9755 C.ar    1  UNL1        0.0253
     18 C          -2.0398  -19.2942   21.2101 C.ar    1  UNL1        0.0074
     19 C          -3.5147  -19.3400   21.4794 C.ar    1  UNL1        0.0152
     20 C          -4.4734  -18.7082   20.5141 C.ar    1  UNL1        0.0504
     21 C          -3.9572  -18.0305   19.2795 C.ar    1  UNL1        0.0152
     22 C          -2.4822  -17.9847   19.0102 C.ar    1  UNL1        0.0074
     23 C           0.7496  -17.3651   20.1054 C.3     1  UNL1        0.0742
     24 S          -0.0486  -18.5707   19.7061 S.3     1  UNL1       -0.1127
     25 C          -9.1196  -18.2778   21.3880 C.3     1  UNL1        0.1354
     26 C         -10.5212  -18.2229   21.9194 C.ar    1  UNL1        0.0044
     27 C         -10.9257  -19.1078   23.0611 C.ar    1  UNL1       -0.0024
     28 C         -12.3273  -19.0529   23.5926 C.ar    1  UNL1       -0.0003
     29 C         -13.3245  -18.1130   22.9823 C.ar    1  UNL1       -0.0001
     30 C         -12.9200  -17.2282   21.8406 C.ar    1  UNL1        0.0036
     31 C         -11.5184  -17.2831   21.3092 C.ar    1  UNL1        0.0693
     32 C         -11.1140  -16.3982   20.1675 C.3     1  UNL1        0.4183
     33 F         -10.7096  -15.5133   19.0259 F       1  UNL1       -0.1659
     34 F         -11.6385  -17.4129   19.1953 F       1  UNL1       -0.1659
     35 F         -10.5895  -15.3835   21.1397 F       1  UNL1       -0.1659
@<TRIPOS>BOND
     1    23    24    1
     2    24    17    1
     3    17    18   ar
     4    18    19   ar
     5    19    20   ar
     6    20    15    1
     7    15     1    1
     8     1     2   ar
     9     2     3   ar
    10     3     4   ar
    11     4     5   ar
    12     5    10    1
    13    10    11   am
    14    10    12    2
    15     5     6   ar
    16     6     7   ar
    17     7     8   ar
    18     8     9   ar
    19     9    25    1
    20    25    26    1
    21    26    27   ar
    22    27    28   ar
    23    28    29   ar
    24    29    30   ar
    25    30    31   ar
    26    31    32    1
    27    32    33    1
    28    32    34    1
    29    32    35    1
    30    20    21   ar
    31    21    22   ar
    32    22    17   ar
    33     9     1   ar
    34    31    26   ar
    35     8     3   ar
    36    15    16    1
    37    11    13    1
    38    11    14    1
@<TRIPOS>MOLECULE
*****
 35 38 0 0 0
SMALL
GASTEIGER

@<TRIPOS>ATOM
      1 C           6.5835   -2.5220   24.2374 C.ar    1  UNL1        0.2019
      2 N           6.4225   -3.3311   25.4901 N.ar    1  UNL1       -0.2135
      3 C           7.0665   -4.6670   25.2652 C.ar    1  UNL1        0.1001
      4 C           7.2161   -5.8705   26.1480 C.ar    1  UNL1        0.0252
      5 C           7.9248   -7.0905   25.6389 C.ar    1  UNL1        0.0547
      6 C           8.4838   -7.1071   24.2471 C.ar    1  UNL1        0.0061
      7 C           8.3342   -5.9037   23.3643 C.ar    1  UNL1        0.0189
      8 C           7.6256   -4.6836   23.8734 C.ar    1  UNL1        0.0802
      9 N           7.3271   -3.3580   23.2382 N.ar    1  UNL1       -0.2953
     10 C           8.0744   -8.2941   26.5216 C.2     1  UNL1        0.2428
     11 N           6.8627   -9.0746   26.9373 N.am    1  UNL1       -0.3253
     12 O           9.4356   -8.7171   26.9887 O.2     1  UNL1       -0.2704
     13 H           5.9693   -8.7969   26.6308 H       1  UNL1        0.1453
     14 H           6.9609   -9.8645   27.5167 H       1  UNL1        0.1453
     15 N           6.0880   -1.1228   24.0216 N.pl3   1  UNL1       -0.2839
     16 H           6.3941   -0.3959   24.6109 H       1  UNL1        0.1550
     17 C           3.2028   -0.2475   20.6811 C.ar    1  UNL1        0.0253
     18 C           2.8142   -1.1922   21.7795 C.ar    1  UNL1        0.0074
     19 C           3.7759   -1.4840   22.8930 C.ar    1  UNL1        0.0152
     20 C           5.1263   -0.8310   22.9081 C.ar    1  UNL1        0.0504
     21 C           5.5149    0.1137   21.8097 C.ar    1  UNL1        0.0152
     22 C           4.5530    0.4055   20.6962 C.ar    1  UNL1        0.0074
     23 C           2.7474    0.2268   18.1676 C.3     1  UNL1        0.0742
     24 S           2.2409    0.0442   19.5676 S.3     1  UNL1       -0.1127
     25 C           7.7057   -2.9414   21.8478 C.3     1  UNL1        0.1354
     26 C           6.7152   -3.0738   20.7292 C.ar    1  UNL1        0.0044
     27 C           5.4446   -3.8429   20.9396 C.ar    1  UNL1       -0.0024
     28 C           4.4540   -3.9754   19.8211 C.ar    1  UNL1       -0.0003
     29 C           4.7340   -3.3387   18.4920 C.ar    1  UNL1       -0.0001
     30 C           6.0045   -2.5697   18.2816 C.ar    1  UNL1        0.0036
     31 C           6.9951   -2.4372   19.4002 C.ar    1  UNL1        0.0693
     32 C           8.2655   -1.6681   19.1897 C.3     1  UNL1        0.4183
     33 F           9.5360   -0.8989   18.9792 F       1  UNL1       -0.1659
     34 F           8.9981   -2.9503   18.9264 F       1  UNL1       -0.1659
     35 F           7.5330   -0.3859   19.4529 F       1  UNL1       -0.1659
@<TRIPOS>BOND
     1    23    24    1
     2    24    17    1
     3    17    18   ar
     4    18    19   ar
     5    19    20   ar
     6    20    15    1
     7    15     1    1
     8     1     2   ar
     9     2     3   ar
    10     3     4   ar
    11     4     5   ar
    12     5    10    1
    13    10    11   am
    14    10    12    2
    15     5     6   ar
    16     6     7   ar
    17     7     8   ar
    18     8     9   ar
    19     9    25    1
    20    25    26    1
    21    26    27   ar
    22    27    28   ar
    23    28    29   ar
    24    29    30   ar
    25    30    31   ar
    26    31    32    1
    27    32    33    1
    28    32    34    1
    29    32    35    1
    30    20    21   ar
    31    21    22   ar
    32    22    17   ar
    33     9     1   ar
    34    31    26   ar
    35     8     3   ar
    36    15    16    1
    37    11    13    1
    38    11    14    1
@<TRIPOS>MOLECULE
*****
 35 38 0 0 0
SMALL
GASTEIGER

@<TRIPOS>ATOM
      1 C           4.0367   -1.6379   23.1013 C.ar    1  UNL1        0.2019
      2 N           4.2313   -1.1266   24.4980 N.ar    1  UNL1       -0.2135
      3 C           5.1855   -2.0470   25.1998 C.ar    1  UNL1        0.1001
      4 C           5.7456   -2.0411   26.5913 C.ar    1  UNL1        0.0252
      5 C           6.7008   -3.1152   27.0197 C.ar    1  UNL1        0.0547
      6 C           7.0959   -4.1953   26.0568 C.ar    1  UNL1        0.0061
      7 C           6.5358   -4.2012   24.6653 C.ar    1  UNL1        0.0189
      8 C           5.5806   -3.1271   24.2368 C.ar    1  UNL1        0.0802
      9 N           4.8706   -2.8742   22.9399 N.ar    1  UNL1       -0.2953
     10 C           7.2610   -3.1094   28.4113 C.2     1  UNL1        0.2428
     11 N           6.8309   -4.1547   29.3973 N.am    1  UNL1       -0.3253
     12 O           8.2512   -2.0581   28.8167 O.2     1  UNL1       -0.2704
     13 H           6.1810   -4.8447   29.1312 H       1  UNL1        0.1453
     14 H           7.1986   -4.1509   30.3105 H       1  UNL1        0.1453
     15 N           3.1617   -1.0211   22.0506 N.pl3   1  UNL1       -0.2839
     16 H           2.1874   -1.1597   22.0778 H       1  UNL1        0.1550
     17 C           4.9904    1.4628   18.7740 C.ar    1  UNL1        0.0253
     18 C           5.6176    1.4395   20.1364 C.ar    1  UNL1        0.0074
     19 C           5.0081    0.6115   21.2286 C.ar    1  UNL1        0.0152
     20 C           3.7713   -0.1932   20.9584 C.ar    1  UNL1        0.0504
     21 C           3.1441   -0.1698   19.5960 C.ar    1  UNL1        0.0152
     22 C           3.7537    0.6582   18.5038 C.ar    1  UNL1        0.0074
     23 C           6.5848    1.6737   16.7335 C.3     1  UNL1        0.0742
     24 S           5.6000    2.2908   17.6818 S.3     1  UNL1       -0.1127
     25 C           4.9760   -3.7109   21.6994 C.3     1  UNL1        0.1354
     26 C           5.5596   -3.1259   20.4476 C.ar    1  UNL1        0.0044
     27 C           6.8053   -2.2933   20.5187 C.ar    1  UNL1       -0.0024
     28 C           7.3891   -1.7083   19.2669 C.ar    1  UNL1       -0.0003
     29 C           6.7270   -1.9560   17.9439 C.ar    1  UNL1       -0.0001
     30 C           5.4814   -2.7886   17.8727 C.ar    1  UNL1        0.0036
     31 C           4.8977   -3.3736   19.1245 C.ar    1  UNL1        0.0693
     32 C           3.6520   -4.2062   19.0533 C.3     1  UNL1        0.4183
     33 F           2.4064   -5.0388   18.9820 F       1  UNL1       -0.1659
     34 F           2.8290   -3.0060   19.4171 F       1  UNL1       -0.1659
     35 F           4.4750   -5.4063   18.6895 F       1  UNL1       -0.1659
@<TRIPOS>BOND
     1    23    24    1
     2    24    17    1
     3    17    18   ar
     4    18    19   ar
     5    19    20   ar
     6    20    15    1
     7    15     1    1
     8     1     2   ar
     9     2     3   ar
    10     3     4   ar
    11     4     5   ar
    12     5    10    1
    13    10    11   am
    14    10    12    2
    15     5     6   ar
    16     6     7   ar
    17     7     8   ar
    18     8     9   ar
    19     9    25    1
    20    25    26    1
    21    26    27   ar
    22    27    28   ar
    23    28    29   ar
    24    29    30   ar
    25    30    31   ar
    26    31    32    1
    27    32    33    1
    28    32    34    1
    29    32    35    1
    30    20    21   ar
    31    21    22   ar
    32    22    17   ar
    33     9     1   ar
    34    31    26   ar
    35     8     3   ar
    36    15    16    1
    37    11    13    1
    38    11    14    1
@<TRIPOS>MOLECULE
*****
 35 38 0 0 0
SMALL
GASTEIGER

@<TRIPOS>ATOM
      1 C           5.8946   -3.4810   24.1299 C.ar    1  UNL1        0.2019
      2 N           5.3659   -2.5367   25.1685 N.ar    1  UNL1       -0.2135
      3 C           4.3370   -1.6605   24.5177 C.ar    1  UNL1        0.1001
      4 C           3.4840   -0.5479   25.0509 C.ar    1  UNL1        0.0252
      5 C           2.5236    0.1619   24.1433 C.ar    1  UNL1        0.0547
      6 C           2.4164   -0.2409   22.7023 C.ar    1  UNL1        0.0061
      7 C           3.2694   -1.3534   22.1691 C.ar    1  UNL1        0.0189
      8 C           4.2298   -2.0632   23.0767 C.ar    1  UNL1        0.0802
      9 N           5.1924   -3.1884   22.8371 N.ar    1  UNL1       -0.2953
     10 C           1.6705    1.2746   24.6765 C.2     1  UNL1        0.2428
     11 N           0.3825    0.9616   25.3786 N.am    1  UNL1       -0.3253
     12 O           2.1055    2.7001   24.5076 O.2     1  UNL1       -0.2704
     13 H           0.0970    0.0259   25.4894 H       1  UNL1        0.1453
     14 H          -0.1775    1.6918   25.7286 H       1  UNL1        0.1453
     15 N           6.9416   -4.5332   24.3460 N.pl3   1  UNL1       -0.2839
     16 H           7.2713   -5.0633   23.5848 H       1  UNL1        0.1550
     17 C           8.5754   -5.2669   28.4742 C.ar    1  UNL1        0.0253
     18 C           7.4557   -6.1157   27.9490 C.ar    1  UNL1        0.0074
     19 C           6.9111   -5.8711   26.5729 C.ar    1  UNL1        0.0152
     20 C           7.4862   -4.7778   25.7221 C.ar    1  UNL1        0.0504
     21 C           8.6059   -3.9290   26.2473 C.ar    1  UNL1        0.0152
     22 C           9.1505   -4.1736   27.6234 C.ar    1  UNL1        0.0074
     23 C           9.2578   -6.9141   30.3641 C.3     1  UNL1        0.0742
     24 S           9.1201   -5.5116   29.8503 S.3     1  UNL1       -0.1127
     25 C           5.4139   -3.8966   21.5335 C.3     1  UNL1        0.1354
     26 C           5.8340   -3.1208   20.3204 C.ar    1  UNL1        0.0044
     27 C           7.0738   -2.2773   20.3618 C.ar    1  UNL1       -0.0024
     28 C           7.4940   -1.5016   19.1487 C.ar    1  UNL1       -0.0003
     29 C           6.6745   -1.5693   17.8942 C.ar    1  UNL1       -0.0001
     30 C           5.4348   -2.4127   17.8528 C.ar    1  UNL1        0.0036
     31 C           5.0146   -3.1885   19.0659 C.ar    1  UNL1        0.0693
     32 C           3.7748   -4.0319   19.0244 C.3     1  UNL1        0.4183
     33 F           2.5351   -4.8752   18.9829 F       1  UNL1       -0.1659
     34 F           4.5955   -5.2178   18.6120 F       1  UNL1       -0.1659
     35 F           2.9542   -2.8460   19.4368 F       1  UNL1       -0.1659
@<TRIPOS>BOND
     1    23    24    1
     2    24    17    1
     3    17    18   ar
     4    18    19   ar
     5    19    20   ar
     6    20    15    1
     7    15     1    1
     8     1     2   ar
     9     2     3   ar
    10     3     4   ar
    11     4     5   ar
    12     5    10    1
    13    10    11   am
    14    10    12    2
    15     5     6   ar
    16     6     7   ar
    17     7     8   ar
    18     8     9   ar
    19     9    25    1
    20    25    26    1
    21    26    27   ar
    22    27    28   ar
    23    28    29   ar
    24    29    30   ar
    25    30    31   ar
    26    31    32    1
    27    32    33    1
    28    32    34    1
    29    32    35    1
    30    20    21   ar
    31    21    22   ar
    32    22    17   ar
    33     9     1   ar
    34    31    26   ar
    35     8     3   ar
    36    15    16    1
    37    11    13    1
    38    11    14    1
@<TRIPOS>MOLECULE
*****
 35 38 0 0 0
SMALL
GASTEIGER

@<TRIPOS>ATOM
      1 C           4.9815    0.3876   18.0632 C.ar    1  UNL1        0.2019
      2 N           4.7209    1.8481   17.8413 N.ar    1  UNL1       -0.2135
      3 C           3.3018    2.1311   18.2364 C.ar    1  UNL1        0.1001
      4 C           2.4914    3.3932   18.2320 C.ar    1  UNL1        0.0252
      5 C           1.0644    3.3698   18.6937 C.ar    1  UNL1        0.0547
      6 C           0.4479    2.0843   19.1599 C.ar    1  UNL1        0.0061
      7 C           1.2584    0.8221   19.1643 C.ar    1  UNL1        0.0189
      8 C           2.6853    0.8455   18.7026 C.ar    1  UNL1        0.0802
      9 N           3.7234   -0.2320   18.5955 N.ar    1  UNL1       -0.2953
     10 C           0.2539    4.6320   18.6894 C.2     1  UNL1        0.2428
     11 N           0.9113    5.9444   18.3801 N.am    1  UNL1       -0.3253
     12 O          -1.2139    4.5819   18.9942 O.2     1  UNL1       -0.2704
     13 H           1.8747    5.9773   18.1800 H       1  UNL1        0.1453
     14 H           0.3793    6.7728   18.3772 H       1  UNL1        0.1453
     15 N           6.2732   -0.3276   17.7991 N.pl3   1  UNL1       -0.2839
     16 H           6.6105   -0.4107   16.8779 H       1  UNL1        0.1550
     17 C           8.6069   -2.0934   21.2175 C.ar    1  UNL1        0.0253
     18 C           7.6529   -0.9628   21.4656 C.ar    1  UNL1        0.0074
     19 C           6.8750   -0.3742   20.3261 C.ar    1  UNL1        0.0152
     20 C           7.0511   -0.9162   18.9386 C.ar    1  UNL1        0.0504
     21 C           8.0052   -2.0468   18.6905 C.ar    1  UNL1        0.0152
     22 C           8.7831   -2.6354   19.8301 C.ar    1  UNL1        0.0074
     23 C           8.8047   -3.8100   23.1578 C.3     1  UNL1        0.0742
     24 S           9.3849   -2.6820   22.3571 S.3     1  UNL1       -0.1127
     25 C           3.5362   -1.6756   18.9572 C.3     1  UNL1        0.1354
     26 C           3.8575   -2.1492   20.3437 C.ar    1  UNL1        0.0044
     27 C           3.6968   -1.2195   21.5099 C.ar    1  UNL1       -0.0024
     28 C           4.0180   -1.6930   22.8964 C.ar    1  UNL1       -0.0003
     29 C           4.5001   -3.0963   23.1168 C.ar    1  UNL1       -0.0001
     30 C           4.6608   -4.0259   21.9507 C.ar    1  UNL1        0.0036
     31 C           4.3396   -3.5524   20.5641 C.ar    1  UNL1        0.0693
     32 C           4.5003   -4.4821   19.3981 C.3     1  UNL1        0.4183
     33 F           4.6610   -5.4118   18.2320 F       1  UNL1       -0.1659
     34 F           5.9696   -4.1825   19.3617 F       1  UNL1       -0.1659
     35 F           3.0310   -4.7818   19.4344 F       1  UNL1       -0.1659
@<TRIPOS>BOND
     1    23    24    1
     2    24    17    1
     3    17    18   ar
     4    18    19   ar
     5    19    20   ar
     6    20    15    1
     7    15     1    1
     8     1     2   ar
     9     2     3   ar
    10     3     4   ar
    11     4     5   ar
    12     5    10    1
    13    10    11   am
    14    10    12    2
    15     5     6   ar
    16     6     7   ar
    17     7     8   ar
    18     8     9   ar
    19     9    25    1
    20    25    26    1
    21    26    27   ar
    22    27    28   ar
    23    28    29   ar
    24    29    30   ar
    25    30    31   ar
    26    31    32    1
    27    32    33    1
    28    32    34    1
    29    32    35    1
    30    20    21   ar
    31    21    22   ar
    32    22    17   ar
    33     9     1   ar
    34    31    26   ar
    35     8     3   ar
    36    15    16    1
    37    11    13    1
    38    11    14    1
@<TRIPOS>MOLECULE
*****
 35 38 0 0 0
SMALL
GASTEIGER

@<TRIPOS>ATOM
      1 C           1.2348    0.8085   19.8317 C.ar    1  UNL1        0.2019
      2 N           0.3408    1.9746   20.1335 N.ar    1  UNL1       -0.2135
      3 C           0.1683    2.0536   21.6214 C.ar    1  UNL1        0.1001
      4 C          -0.6039    2.9986   22.4935 C.ar    1  UNL1        0.0252
      5 C          -0.5889    2.8262   23.9835 C.ar    1  UNL1        0.0547
      6 C           0.1985    1.7089   24.6013 C.ar    1  UNL1        0.0061
      7 C           0.9707    0.7640   23.7292 C.ar    1  UNL1        0.0189
      8 C           0.9557    0.9363   22.2393 C.ar    1  UNL1        0.0802
      9 N           1.6147    0.1668   21.1331 N.ar    1  UNL1       -0.2953
     10 C          -1.3612    3.7712   24.8557 C.2     1  UNL1        0.2428
     11 N          -1.3394    5.2435   24.5696 N.am    1  UNL1       -0.3253
     12 O          -2.1551    3.2439   26.0139 O.2     1  UNL1       -0.2704
     13 H          -0.8183    5.5896   23.8094 H       1  UNL1        0.1453
     14 H          -1.8463    5.8637   25.1420 H       1  UNL1        0.1453
     15 N           1.6720    0.3624   18.4679 N.pl3   1  UNL1       -0.2839
     16 H           1.0377   -0.1016   17.8749 H       1  UNL1        0.1550
     17 C           5.8826    1.1454   17.0869 C.ar    1  UNL1        0.0253
     18 C           5.1380    2.1960   17.8561 C.ar    1  UNL1        0.0074
     19 C           3.7345    1.9350   18.3165 C.ar    1  UNL1        0.0152
     20 C           3.0755    0.6234   18.0075 C.ar    1  UNL1        0.0504
     21 C           3.8201   -0.4272   17.2383 C.ar    1  UNL1        0.0152
     22 C           5.2237   -0.1662   16.7779 C.ar    1  UNL1        0.0074
     23 C           8.3949    1.5247   17.6299 C.3     1  UNL1        0.0742
     24 S           7.2862    1.4064   16.6265 S.3     1  UNL1       -0.1127
     25 C           2.4986   -1.0337   21.2993 C.3     1  UNL1        0.1354
     26 C           3.9592   -0.9409   20.9710 C.ar    1  UNL1        0.0044
     27 C           4.7124    0.3254   21.2528 C.ar    1  UNL1       -0.0024
     28 C           6.1731    0.4182   20.9244 C.ar    1  UNL1       -0.0003
     29 C           6.8806   -0.7553   20.3142 C.ar    1  UNL1       -0.0001
     30 C           6.1275   -2.0215   20.0324 C.ar    1  UNL1        0.0036
     31 C           4.6668   -2.1143   20.3608 C.ar    1  UNL1        0.0693
     32 C           3.9138   -3.3806   20.0789 C.3     1  UNL1        0.4183
     33 F           3.1607   -4.6468   19.7970 F       1  UNL1       -0.1659
     34 F           4.2836   -3.9025   21.4357 F       1  UNL1       -0.1659
     35 F           3.5439   -2.8587   18.7222 F       1  UNL1       -0.1659
@<TRIPOS>BOND
     1    23    24    1
     2    24    17    1
     3    17    18   ar
     4    18    19   ar
     5    19    20   ar
     6    20    15    1
     7    15     1    1
     8     1     2   ar
     9     2     3   ar
    10     3     4   ar
    11     4     5   ar
    12     5    10    1
    13    10    11   am
    14    10    12    2
    15     5     6   ar
    16     6     7   ar
    17     7     8   ar
    18     8     9   ar
    19     9    25    1
    20    25    26    1
    21    26    27   ar
    22    27    28   ar
    23    28    29   ar
    24    29    30   ar
    25    30    31   ar
    26    31    32    1
    27    32    33    1
    28    32    34    1
    29    32    35    1
    30    20    21   ar
    31    21    22   ar
    32    22    17   ar
    33     9     1   ar
    34    31    26   ar
    35     8     3   ar
    36    15    16    1
    37    11    13    1
    38    11    14    1
@<TRIPOS>MOLECULE
*****
 35 38 0 0 0
SMALL
GASTEIGER

@<TRIPOS>ATOM
      1 C          -0.3597    2.9206   22.1124 C.ar    1  UNL1        0.2019
      2 N           0.3757    1.9563   22.9952 N.ar    1  UNL1       -0.2135
      3 C          -0.1896    2.0716   24.3798 C.ar    1  UNL1        0.1001
      4 C           0.1434    1.3674   25.6617 C.ar    1  UNL1        0.0252
      5 C          -0.6085    1.6988   26.9166 C.ar    1  UNL1        0.0547
      6 C          -1.6933    2.7343   26.8896 C.ar    1  UNL1        0.0061
      7 C          -2.0263    3.4385   25.6077 C.ar    1  UNL1        0.0189
      8 C          -1.2744    3.1071   24.3528 C.ar    1  UNL1        0.0802
      9 N          -1.3796    3.6319   22.9515 N.ar    1  UNL1       -0.2953
     10 C          -0.2756    0.9945   28.1985 C.2     1  UNL1        0.2428
     11 N          -0.5775   -0.4667   28.3518 N.am    1  UNL1       -0.3253
     12 O           0.3593    1.7516   29.3271 O.2     1  UNL1       -0.2704
     13 H          -0.9941   -0.9636   27.6110 H       1  UNL1        0.1453
     14 H          -0.3590   -0.9289   29.1931 H       1  UNL1        0.1453
     15 N          -0.1179    3.1359   20.6478 N.pl3   1  UNL1       -0.2839
     16 H          -0.5834    3.8622   20.1735 H       1  UNL1        0.1550
     17 C           2.7358    0.4617   18.4217 C.ar    1  UNL1        0.0253
     18 C           3.0113    1.9327   18.5240 C.ar    1  UNL1        0.0074
     19 C           2.0601    2.8240   19.2660 C.ar    1  UNL1        0.0152
     20 C           0.8333    2.2445   19.9058 C.ar    1  UNL1        0.0504
     21 C           0.5578    0.7736   19.8035 C.ar    1  UNL1        0.0152
     22 C           1.5091   -0.1178   19.0614 C.ar    1  UNL1        0.0074
     23 C           4.0599   -1.7669   18.2477 C.3     1  UNL1        0.0742
     24 S           3.6870   -0.4296   17.6796 S.3     1  UNL1       -0.1127
     25 C          -2.3366    4.6833   22.4733 C.3     1  UNL1        0.1354
     26 C          -3.4505    4.3145   21.5391 C.ar    1  UNL1        0.0044
     27 C          -3.2074    4.2782   20.0593 C.ar    1  UNL1       -0.0024
     28 C          -4.3214    3.9094   19.1250 C.ar    1  UNL1       -0.0003
     29 C          -5.6786    3.5768   19.6704 C.ar    1  UNL1       -0.0001
     30 C          -5.9217    3.6130   21.1501 C.ar    1  UNL1        0.0036
     31 C          -4.8077    3.9818   22.0845 C.ar    1  UNL1        0.0693
     32 C          -5.0509    4.0180   23.5642 C.3     1  UNL1        0.4183
     33 F          -5.2941    4.0543   25.0438 F       1  UNL1       -0.1659
     34 F          -4.7385    2.5535   23.6513 F       1  UNL1       -0.1659
     35 F          -5.3633    5.4825   23.4770 F       1  UNL1       -0.1659
@<TRIPOS>BOND
     1    23    24    1
     2    24    17    1
     3    17    18   ar
     4    18    19   ar
     5    19    20   ar
     6    20    15    1
     7    15     1    1
     8     1     2   ar
     9     2     3   ar
    10     3     4   ar
    11     4     5   ar
    12     5    10    1
    13    10    11   am
    14    10    12    2
    15     5     6   ar
    16     6     7   ar
    17     7     8   ar
    18     8     9   ar
    19     9    25    1
    20    25    26    1
    21    26    27   ar
    22    27    28   ar
    23    28    29   ar
    24    29    30   ar
    25    30    31   ar
    26    31    32    1
    27    32    33    1
    28    32    34    1
    29    32    35    1
    30    20    21   ar
    31    21    22   ar
    32    22    17   ar
    33     9     1   ar
    34    31    26   ar
    35     8     3   ar
    36    15    16    1
    37    11    13    1
    38    11    14    1
