@<TRIPOS>MOLECULE
*****
 26 30 0 0 0
SMALL
GASTEIGER

@<TRIPOS>ATOM
      1 C          -7.7518  -16.9242   23.0487 C.3     1  UNL1        0.1285
      2 N          -7.0428  -18.1915   22.6727 N.3     1  UNL1       -0.3150
      3 H          -6.4948  -18.5229   23.4666 H       1  UNL1        0.1192
      4 H          -6.4230  -18.0127   21.8826 H       1  UNL1        0.1192
      5 C          -7.5831  -16.3502   24.4243 C.3     1  UNL1        0.0237
      6 C          -6.2507  -15.8118   24.8541 C.3     1  UNL1        0.0019
      7 C          -6.0820  -15.2379   26.2296 C.3     1  UNL1        0.0024
      8 C          -7.2458  -15.2024   27.1754 C.3     1  UNL1        0.0002
      9 C          -8.5782  -15.7409   26.7456 C.3     1  UNL1        0.0024
     10 C          -6.5281  -16.1377   24.2062 C.3     1  UNL1        0.0269
     11 C          -5.0870  -15.8473   23.9083 C.3     1  UNL1        0.0884
     12 O          -3.9232  -15.8828   22.9626 O.3     1  UNL1       -0.3867
     13 C          -4.9183  -15.2734   25.2839 C.3     1  UNL1        0.0269
     14 C          -6.4193  -16.3857   23.4786 C.3     1  UNL1        0.0287
     15 C          -8.7468  -16.3148   25.3701 C.3     1  UNL1        0.0019
     16 H          -3.1440  -15.4989   23.3942 H       1  UNL1        0.2102
     17 C         -10.6096  -18.0010   22.3503 C.3     1  UNL1        0.1672
     18 C         -11.9757  -18.1757   21.7558 C.3     1  UNL1        0.0372
     19 C         -12.2024  -17.0597   20.7794 C.3     1  UNL1        0.0226
     20 C         -12.1409  -15.8545   19.8884 C.3     1  UNL1        0.0216
     21 C         -10.9765  -16.1954   20.7705 C.3     1  UNL1        0.0764
     22 N          -9.9922  -16.7771   21.7413 N.am    1  UNL1       -0.2691
     23 C          -8.6295  -16.2309   22.0492 C.2     1  UNL1        0.2403
     24 O          -8.1445  -14.9913   21.3576 O.2     1  UNL1       -0.2734
     25 N          -9.3362  -19.7860   24.3977 N.1     1  UNL1       -0.1942
     26 C          -9.9729  -18.8935   23.3740 C.1     1  UNL1        0.0925
@<TRIPOS>BOND
     1    25    26    3
     2    17    26    1
     3    17    18    1
     4    19    18    1
     5    19    20    1
     6    21    20    1
     7    21    22    1
     8    22    23   am
     9    23    24    2
    10    23     1    1
    11     1     2    1
    12     1     5    1
    13     5     6    1
    14     6     7    1
    15     7     8    1
    16     8     9    1
    17     9    10    1
    18    10    11    1
    19    11    12    1
    20    11    13    1
    21    11    14    1
    22     9    15    1
    23    22    17    1
    24    14     5    1
    25    21    19    1
    26    15     5    1
    27    13     7    1
    28     2     3    1
    29     2     4    1
    30    12    16    1
@<TRIPOS>MOLECULE
*****
 26 30 0 0 0
SMALL
GASTEIGER

@<TRIPOS>ATOM
      1 C          -8.6990  -16.9718   22.0017 C.3     1  UNL1        0.1285
      2 N          -8.6088  -15.5200   21.6353 N.3     1  UNL1       -0.3150
      3 H          -9.4454  -15.0349   21.9598 H       1  UNL1        0.1192
      4 H          -8.5344  -15.4290   20.6221 H       1  UNL1        0.1192
      5 C          -9.9017  -17.4869   22.7353 C.3     1  UNL1        0.0237
      6 C         -11.2756  -17.2527   22.1808 C.3     1  UNL1        0.0019
      7 C         -12.4783  -17.7678   22.9144 C.3     1  UNL1        0.0024
      8 C         -12.3071  -18.5171   24.2025 C.3     1  UNL1        0.0002
      9 C         -10.9332  -18.7513   24.7570 C.3     1  UNL1        0.0024
     10 C         -10.5548  -17.0712   21.9565 C.3     1  UNL1        0.0269
     11 C         -11.4469  -16.5034   20.8927 C.3     1  UNL1        0.0884
     12 O         -11.6181  -15.7541   19.6046 O.3     1  UNL1       -0.3867
     13 C         -12.6495  -17.0185   21.6263 C.3     1  UNL1        0.0269
     14 C         -10.0730  -16.7376   21.4472 C.3     1  UNL1        0.0287
     15 C          -9.7305  -18.2362   24.0234 C.3     1  UNL1        0.0019
     16 H         -12.5620  -15.6914   19.3900 H       1  UNL1        0.2102
     17 C          -5.9374  -16.8969   23.4789 C.3     1  UNL1        0.1672
     18 C          -4.5295  -17.1798   23.9125 C.3     1  UNL1        0.0372
     19 C          -4.0002  -18.2998   23.0665 C.3     1  UNL1        0.0226
     20 C          -3.7545  -19.4091   22.0872 C.3     1  UNL1        0.0216
     21 C          -5.0809  -18.7091   22.1102 C.3     1  UNL1        0.0764
     22 N          -6.2781  -17.8421   22.3651 N.am    1  UNL1       -0.2691
     23 C          -7.5865  -17.9085   21.6344 C.2     1  UNL1        0.2403
     24 O          -7.7822  -18.9116   20.5365 O.2     1  UNL1       -0.2734
     25 N          -7.7527  -14.8078   24.6364 N.1     1  UNL1       -0.1942
     26 C          -6.8450  -15.8524   24.0577 C.1     1  UNL1        0.0925
@<TRIPOS>BOND
     1    25    26    3
     2    17    26    1
     3    17    18    1
     4    19    18    1
     5    19    20    1
     6    21    20    1
     7    21    22    1
     8    22    23   am
     9    23    24    2
    10    23     1    1
    11     1     2    1
    12     1     5    1
    13     5     6    1
    14     6     7    1
    15     7     8    1
    16     8     9    1
    17     9    10    1
    18    10    11    1
    19    11    12    1
    20    11    13    1
    21    11    14    1
    22     9    15    1
    23    22    17    1
    24    14     5    1
    25    21    19    1
    26    15     5    1
    27    13     7    1
    28     2     3    1
    29     2     4    1
    30    12    16    1
@<TRIPOS>MOLECULE
*****
 26 30 0 0 0
SMALL
GASTEIGER

@<TRIPOS>ATOM
      1 C          -9.2800  -17.0836   22.1320 C.3     1  UNL1        0.1285
      2 N          -9.5971  -16.3199   20.8805 N.3     1  UNL1       -0.3150
      3 H         -10.6078  -16.2929   20.7456 H       1  UNL1        0.1192
      4 H          -9.1596  -16.7792   20.0818 H       1  UNL1        0.1192
      5 C         -10.3896  -17.6628   22.9586 C.3     1  UNL1        0.0237
      6 C         -11.8167  -17.4693   22.5396 C.3     1  UNL1        0.0019
      7 C         -12.9262  -18.0485   23.3662 C.3     1  UNL1        0.0024
      8 C         -12.6086  -18.8213   24.6120 C.3     1  UNL1        0.0002
      9 C         -11.1814  -19.0149   25.0310 C.3     1  UNL1        0.0024
     10 C         -11.1270  -17.2544   22.2550 C.3     1  UNL1        0.0269
     11 C         -12.1344  -16.6964   21.2938 C.3     1  UNL1        0.0884
     12 O         -12.4521  -15.9236   20.0481 O.3     1  UNL1       -0.3867
     13 C         -13.2439  -17.2757   22.1205 C.3     1  UNL1        0.0269
     14 C         -10.7072  -16.8900   21.7129 C.3     1  UNL1        0.0287
     15 C         -10.0719  -18.4356   24.2044 C.3     1  UNL1        0.0019
     16 H         -13.4135  -15.8928   19.9231 H       1  UNL1        0.2102
     17 C          -7.4702  -19.3114   20.8767 C.3     1  UNL1        0.1672
     18 C          -6.3158  -20.2104   20.5457 C.3     1  UNL1        0.0372
     19 C          -5.1505  -19.8008   21.3968 C.3     1  UNL1        0.0226
     20 C          -4.1843  -19.1760   22.3592 C.3     1  UNL1        0.0216
     21 C          -5.5846  -18.6488   22.2538 C.3     1  UNL1        0.0764
     22 N          -7.0182  -18.3463   21.9323 N.am    1  UNL1       -0.2691
     23 C          -7.8533  -17.2680   22.5568 C.2     1  UNL1        0.2403
     24 O          -7.2616  -16.3742   23.6061 O.2     1  UNL1       -0.2734
     25 N         -10.2028  -19.4240   19.6438 N.1     1  UNL1       -0.1942
     26 C          -8.8365  -19.3677   20.2602 C.1     1  UNL1        0.0925
@<TRIPOS>BOND
     1    25    26    3
     2    17    26    1
     3    17    18    1
     4    19    18    1
     5    19    20    1
     6    21    20    1
     7    21    22    1
     8    22    23   am
     9    23    24    2
    10    23     1    1
    11     1     2    1
    12     1     5    1
    13     5     6    1
    14     6     7    1
    15     7     8    1
    16     8     9    1
    17     9    10    1
    18    10    11    1
    19    11    12    1
    20    11    13    1
    21    11    14    1
    22     9    15    1
    23    22    17    1
    24    14     5    1
    25    21    19    1
    26    15     5    1
    27    13     7    1
    28     2     3    1
    29     2     4    1
    30    12    16    1
@<TRIPOS>MOLECULE
*****
 26 30 0 0 0
SMALL
GASTEIGER

@<TRIPOS>ATOM
      1 C          -9.2887  -16.6191   22.5310 C.3     1  UNL1        0.1285
      2 N         -10.7289  -16.2051   22.5980 N.3     1  UNL1       -0.3150
      3 H         -11.2788  -16.7832   21.9625 H       1  UNL1        0.1192
      4 H         -10.8142  -15.2256   22.3264 H       1  UNL1        0.1192
      5 C          -8.8705  -17.7338   21.6185 C.3     1  UNL1        0.0237
      6 C          -9.8386  -18.2835   20.6133 C.3     1  UNL1        0.0019
      7 C          -9.4203  -19.3982   19.7009 C.3     1  UNL1        0.0024
      8 C          -8.0339  -19.9631   19.7937 C.3     1  UNL1        0.0002
      9 C          -7.0657  -19.4134   20.7989 C.3     1  UNL1        0.0024
     10 C          -9.8657  -17.7273   21.1545 C.3     1  UNL1        0.0269
     11 C         -11.2251  -17.7186   20.5205 C.3     1  UNL1        0.0884
     12 O         -12.6115  -17.1536   20.4277 O.3     1  UNL1       -0.3867
     13 C         -10.8068  -18.8332   19.6081 C.3     1  UNL1        0.0269
     14 C         -10.2569  -17.1688   21.5257 C.3     1  UNL1        0.0287
     15 C          -7.4840  -18.2987   21.7113 C.3     1  UNL1        0.0019
     16 H         -13.1039  -17.6177   19.7327 H       1  UNL1        0.2102
     17 C          -9.0645  -17.1508   25.6102 C.3     1  UNL1        0.1672
     18 C          -8.6408  -17.1180   27.0488 C.3     1  UNL1        0.0372
     19 C          -7.5049  -16.1465   27.1754 C.3     1  UNL1        0.0226
     20 C          -6.4097  -15.1378   26.9934 C.3     1  UNL1        0.0216
     21 C          -7.2266  -15.5789   25.8152 C.3     1  UNL1        0.0764
     22 N          -8.1904  -16.1995   24.8478 N.am    1  UNL1       -0.2691
     23 C          -8.2668  -15.9183   23.3763 C.2     1  UNL1        0.2403
     24 O          -7.3213  -14.9364   22.7503 O.2     1  UNL1       -0.2734
     25 N         -11.2723  -18.8248   24.4599 N.1     1  UNL1       -0.1942
     26 C         -10.1684  -17.9878   25.0350 C.1     1  UNL1        0.0925
@<TRIPOS>BOND
     1    25    26    3
     2    17    26    1
     3    17    18    1
     4    19    18    1
     5    19    20    1
     6    21    20    1
     7    21    22    1
     8    22    23   am
     9    23    24    2
    10    23     1    1
    11     1     2    1
    12     1     5    1
    13     5     6    1
    14     6     7    1
    15     7     8    1
    16     8     9    1
    17     9    10    1
    18    10    11    1
    19    11    12    1
    20    11    13    1
    21    11    14    1
    22     9    15    1
    23    22    17    1
    24    14     5    1
    25    21    19    1
    26    15     5    1
    27    13     7    1
    28     2     3    1
    29     2     4    1
    30    12    16    1
@<TRIPOS>MOLECULE
*****
 26 30 0 0 0
SMALL
GASTEIGER

@<TRIPOS>ATOM
      1 C          -8.5717  -17.6333   22.7541 C.3     1  UNL1        0.1285
      2 N          -7.9762  -18.9925   22.5347 N.3     1  UNL1       -0.3150
      3 H          -8.6077  -19.5518   21.9613 H       1  UNL1        0.1192
      4 H          -7.8371  -19.4520   23.4347 H       1  UNL1        0.1192
      5 C          -9.9049  -17.2933   22.1564 C.3     1  UNL1        0.0237
      6 C         -10.3388  -17.9396   20.8743 C.3     1  UNL1        0.0019
      7 C         -11.6719  -17.5995   20.2766 C.3     1  UNL1        0.0024
      8 C         -12.5710  -16.6131   20.9611 C.3     1  UNL1        0.0002
      9 C         -12.1371  -15.9668   22.2433 C.3     1  UNL1        0.0024
     10 C          -9.7082  -17.9833   21.3252 C.3     1  UNL1        0.0269
     11 C          -9.4396  -18.9259   20.1898 C.3     1  UNL1        0.0884
     12 O          -8.5405  -19.9123   19.5053 O.3     1  UNL1       -0.3867
     13 C         -10.7727  -18.5858   19.5921 C.3     1  UNL1        0.0269
     14 C          -9.0057  -18.2797   21.4719 C.3     1  UNL1        0.0287
     15 C         -10.8040  -16.3069   22.8409 C.3     1  UNL1        0.0019
     16 H          -8.9687  -20.2327   18.6960 H       1  UNL1        0.2102
     17 C          -8.9120  -17.4669   25.8640 C.3     1  UNL1        0.1672
     18 C          -8.7950  -17.0659   27.3047 C.3     1  UNL1        0.0372
     19 C          -7.8341  -15.9171   27.3895 C.3     1  UNL1        0.0226
     20 C          -6.8549  -14.8036   27.1633 C.3     1  UNL1        0.0216
     21 C          -7.3573  -15.6082   26.0013 C.3     1  UNL1        0.0764
     22 N          -8.0234  -16.5659   25.0585 N.am    1  UNL1       -0.2691
     23 C          -7.8342  -16.6143   23.5712 C.2     1  UNL1        0.2403
     24 O          -6.9075  -15.6437   22.9011 O.2     1  UNL1       -0.2734
     25 N         -10.6227  -19.6818   24.7834 N.1     1  UNL1       -0.1942
     26 C          -9.7673  -18.5744   25.3237 C.1     1  UNL1        0.0925
@<TRIPOS>BOND
     1    25    26    3
     2    17    26    1
     3    17    18    1
     4    19    18    1
     5    19    20    1
     6    21    20    1
     7    21    22    1
     8    22    23   am
     9    23    24    2
    10    23     1    1
    11     1     2    1
    12     1     5    1
    13     5     6    1
    14     6     7    1
    15     7     8    1
    16     8     9    1
    17     9    10    1
    18    10    11    1
    19    11    12    1
    20    11    13    1
    21    11    14    1
    22     9    15    1
    23    22    17    1
    24    14     5    1
    25    21    19    1
    26    15     5    1
    27    13     7    1
    28     2     3    1
    29     2     4    1
    30    12    16    1
@<TRIPOS>MOLECULE
*****
 26 30 0 0 0
SMALL
GASTEIGER

@<TRIPOS>ATOM
      1 C          -8.3087  -15.8643   23.2264 C.3     1  UNL1        0.1285
      2 N          -7.4114  -15.2306   22.2050 N.3     1  UNL1       -0.3150
      3 H          -6.5571  -14.9058   22.6578 H       1  UNL1        0.1192
      4 H          -7.8907  -14.4392   21.7757 H       1  UNL1        0.1192
      5 C          -7.8780  -15.9364   24.6615 C.3     1  UNL1        0.0237
      6 C          -6.4984  -15.4971   25.0534 C.3     1  UNL1        0.0019
      7 C          -6.0677  -15.5693   26.4884 C.3     1  UNL1        0.0024
      8 C          -7.0166  -16.0806   27.5315 C.3     1  UNL1        0.0002
      9 C          -8.3962  -16.5199   27.1396 C.3     1  UNL1        0.0024
     10 C          -6.8938  -15.5346   24.3863 C.3     1  UNL1        0.0269
     11 C          -5.5494  -14.9857   24.0104 C.3     1  UNL1        0.0884
     12 O          -4.6005  -14.4744   22.9673 O.3     1  UNL1       -0.3867
     13 C          -5.1187  -15.0579   25.4454 C.3     1  UNL1        0.0269
     14 C          -6.9290  -15.4250   23.6184 C.3     1  UNL1        0.0287
     15 C          -8.8269  -16.4478   25.7046 C.3     1  UNL1        0.0019
     16 H          -3.7587  -14.2349   23.3855 H       1  UNL1        0.2102
     17 C          -8.5327  -18.5925   21.7029 C.3     1  UNL1        0.1672
     18 C          -9.0579  -19.8048   20.9926 C.3     1  UNL1        0.0372
     19 C         -10.5530  -19.6971   20.9355 C.3     1  UNL1        0.0226
     20 C         -12.0016  -19.3195   21.0310 C.3     1  UNL1        0.0216
     21 C         -10.9518  -18.4183   21.6104 C.3     1  UNL1        0.0764
     22 N          -9.7032  -17.7356   22.0846 N.am    1  UNL1       -0.2691
     23 C          -9.6367  -16.4259   22.8129 C.2     1  UNL1        0.2403
     24 O         -10.8982  -15.6778   23.1275 O.2     1  UNL1       -0.2734
     25 N          -5.6479  -17.9878   22.2616 N.1     1  UNL1       -0.1942
     26 C          -7.0903  -18.2901   21.9822 C.1     1  UNL1        0.0925
@<TRIPOS>BOND
     1    25    26    3
     2    17    26    1
     3    17    18    1
     4    19    18    1
     5    19    20    1
     6    21    20    1
     7    21    22    1
     8    22    23   am
     9    23    24    2
    10    23     1    1
    11     1     2    1
    12     1     5    1
    13     5     6    1
    14     6     7    1
    15     7     8    1
    16     8     9    1
    17     9    10    1
    18    10    11    1
    19    11    12    1
    20    11    13    1
    21    11    14    1
    22     9    15    1
    23    22    17    1
    24    14     5    1
    25    21    19    1
    26    15     5    1
    27    13     7    1
    28     2     3    1
    29     2     4    1
    30    12    16    1
@<TRIPOS>MOLECULE
*****
 26 30 0 0 0
SMALL
GASTEIGER

@<TRIPOS>ATOM
      1 C          -8.6230  -18.2604   21.9566 C.3     1  UNL1        0.1285
      2 N          -8.7766  -18.2936   20.4648 N.3     1  UNL1       -0.3150
      3 H          -7.9465  -17.8923   20.0285 H       1  UNL1        0.1192
      4 H          -9.5978  -17.7519   20.1955 H       1  UNL1        0.1192
      5 C          -7.3778  -17.6916   22.5698 C.3     1  UNL1        0.0237
      6 C          -6.0660  -18.3979   22.3960 C.3     1  UNL1        0.0019
      7 C          -4.8209  -17.8291   23.0092 C.3     1  UNL1        0.0024
      8 C          -4.8876  -16.5539   23.7963 C.3     1  UNL1        0.0002
      9 C          -6.1994  -15.8476   23.9702 C.3     1  UNL1        0.0024
     10 C          -6.7952  -18.5291   22.1636 C.3     1  UNL1        0.0269
     11 C          -5.9993  -19.6731   21.6089 C.3     1  UNL1        0.0884
     12 O          -5.9326  -20.9482   20.8218 O.3     1  UNL1       -0.3867
     13 C          -4.7542  -19.1042   22.2221 C.3     1  UNL1        0.0269
     14 C          -7.3111  -18.9667   21.7827 C.3     1  UNL1        0.0287
     15 C          -7.4445  -16.4164   23.3569 C.3     1  UNL1        0.0019
     16 H          -5.0182  -21.2715   20.8068 H       1  UNL1        0.2102
     17 C         -11.3243  -16.7206   22.3388 C.3     1  UNL1        0.1672
     18 C         -12.7026  -16.3195   22.7743 C.3     1  UNL1        0.0372
     19 C         -13.2242  -17.3805   23.6975 C.3     1  UNL1        0.0226
     20 C         -13.4682  -18.5777   24.5678 C.3     1  UNL1        0.0216
     21 C         -12.1683  -18.4373   23.8327 C.3     1  UNL1        0.0764
     22 N         -10.9942  -18.0295   22.9930 N.am    1  UNL1       -0.2691
     23 C          -9.7144  -18.7960   22.8350 C.2     1  UNL1        0.2403
     24 O          -9.5263  -20.0980   23.5556 O.2     1  UNL1       -0.2734
     25 N          -9.5415  -15.1763   20.4852 N.1     1  UNL1       -0.1942
     26 C         -10.4329  -15.9485   21.4120 C.1     1  UNL1        0.0925
@<TRIPOS>BOND
     1    25    26    3
     2    17    26    1
     3    17    18    1
     4    19    18    1
     5    19    20    1
     6    21    20    1
     7    21    22    1
     8    22    23   am
     9    23    24    2
    10    23     1    1
    11     1     2    1
    12     1     5    1
    13     5     6    1
    14     6     7    1
    15     7     8    1
    16     8     9    1
    17     9    10    1
    18    10    11    1
    19    11    12    1
    20    11    13    1
    21    11    14    1
    22     9    15    1
    23    22    17    1
    24    14     5    1
    25    21    19    1
    26    15     5    1
    27    13     7    1
    28     2     3    1
    29     2     4    1
    30    12    16    1
@<TRIPOS>MOLECULE
*****
 26 30 0 0 0
SMALL
GASTEIGER

@<TRIPOS>ATOM
      1 C          -8.3186  -16.3877   22.4842 C.3     1  UNL1        0.1285
      2 N          -8.7703  -15.1146   21.8322 N.3     1  UNL1       -0.3150
      3 H          -9.0146  -14.4328   22.5505 H       1  UNL1        0.1192
      4 H          -9.5864  -15.3019   21.2497 H       1  UNL1        0.1192
      5 C          -8.2844  -16.4932   23.9802 C.3     1  UNL1        0.0237
      6 C          -7.1447  -15.8926   24.7485 C.3     1  UNL1        0.0019
      7 C          -7.1106  -15.9980   26.2444 C.3     1  UNL1        0.0024
      8 C          -8.2161  -16.7040   26.9719 C.3     1  UNL1        0.0002
      9 C          -9.3558  -17.3045   26.2036 C.3     1  UNL1        0.0024
     10 C          -7.3354  -15.9409   23.9974 C.3     1  UNL1        0.0269
     11 C          -6.0392  -15.1866   24.0210 C.3     1  UNL1        0.0884
     12 O          -4.9336  -14.4806   23.2934 O.3     1  UNL1       -0.3867
     13 C          -6.0050  -15.2920   25.5168 C.3     1  UNL1        0.0269
     14 C          -7.1789  -15.7872   23.2526 C.3     1  UNL1        0.0287
     15 C          -9.3900  -17.1991   24.7078 C.3     1  UNL1        0.0019
     16 H          -4.2821  -14.1542   23.9336 H       1  UNL1        0.2102
     17 C         -10.3905  -17.9986   20.7735 C.3     1  UNL1        0.1672
     18 C         -11.0310  -18.9922   19.8500 C.3     1  UNL1        0.0372
     19 C          -9.9590  -19.9095   19.3406 C.3     1  UNL1        0.0226
     20 C          -8.6981  -20.6516   19.0098 C.3     1  UNL1        0.0216
     21 C          -8.6561  -19.4830   19.9493 C.3     1  UNL1        0.0764
     22 N          -8.9228  -18.3020   20.8348 N.am    1  UNL1       -0.2691
     23 C          -7.9011  -17.5554   21.6404 C.2     1  UNL1        0.2403
     24 O          -6.4620  -17.9766   21.6020 O.2     1  UNL1       -0.2734
     25 N         -11.7980  -15.7924   22.2402 N.1     1  UNL1       -0.1942
     26 C         -11.0943  -16.8955   21.5069 C.1     1  UNL1        0.0925
@<TRIPOS>BOND
     1    25    26    3
     2    17    26    1
     3    17    18    1
     4    19    18    1
     5    19    20    1
     6    21    20    1
     7    21    22    1
     8    22    23   am
     9    23    24    2
    10    23     1    1
    11     1     2    1
    12     1     5    1
    13     5     6    1
    14     6     7    1
    15     7     8    1
    16     8     9    1
    17     9    10    1
    18    10    11    1
    19    11    12    1
    20    11    13    1
    21    11    14    1
    22     9    15    1
    23    22    17    1
    24    14     5    1
    25    21    19    1
    26    15     5    1
    27    13     7    1
    28     2     3    1
    29     2     4    1
    30    12    16    1
@<TRIPOS>MOLECULE
*****
 26 30 0 0 0
SMALL
GASTEIGER

@<TRIPOS>ATOM
      1 C          -8.2712  -16.3199   23.8597 C.3     1  UNL1        0.1285
      2 N          -8.1543  -14.8495   24.1317 N.3     1  UNL1       -0.3150
      3 H          -7.2186  -14.5306   23.8804 H       1  UNL1        0.1192
      4 H          -8.3189  -14.6729   25.1228 H       1  UNL1        0.1192
      5 C          -7.1015  -17.0746   23.3008 C.3     1  UNL1        0.0237
      6 C          -5.7056  -16.6964   23.6987 C.3     1  UNL1        0.0019
      7 C          -4.5359  -17.4511   23.1399 C.3     1  UNL1        0.0024
      8 C          -4.7622  -18.5840   22.1831 C.3     1  UNL1        0.0002
      9 C          -6.1581  -18.9621   21.7851 C.3     1  UNL1        0.0024
     10 C          -6.4159  -16.4360   23.8734 C.3     1  UNL1        0.0269
     11 C          -5.4793  -15.5636   24.6555 C.3     1  UNL1        0.0884
     12 O          -5.2531  -14.4308   25.6123 O.3     1  UNL1       -0.3867
     13 C          -4.3097  -16.3183   24.0967 C.3     1  UNL1        0.0269
     14 C          -6.8752  -15.9418   24.2576 C.3     1  UNL1        0.0287
     15 C          -7.3277  -18.2075   22.3440 C.3     1  UNL1        0.0019
     16 H          -4.3012  -14.3191   25.7619 H       1  UNL1        0.2102
     17 C         -10.7002  -16.1809   21.8861 C.3     1  UNL1        0.1672
     18 C         -12.0409  -16.3663   21.2392 C.3     1  UNL1        0.0372
     19 C         -12.8679  -17.2452   22.1302 C.3     1  UNL1        0.0226
     20 C         -13.4395  -18.1237   23.2033 C.3     1  UNL1        0.0216
     21 C         -12.0384  -17.6029   23.3277 C.3     1  UNL1        0.0764
     22 N         -10.6987  -16.9452   23.1768 N.am    1  UNL1       -0.2691
     23 C          -9.5578  -17.0357   24.1464 C.2     1  UNL1        0.2403
     24 O          -9.7035  -17.8421   25.4028 O.2     1  UNL1       -0.2734
     25 N          -8.4222  -14.5652   20.7907 N.1     1  UNL1       -0.1942
     26 C          -9.5612  -15.3731   21.3384 C.1     1  UNL1        0.0925
@<TRIPOS>BOND
     1    25    26    3
     2    17    26    1
     3    17    18    1
     4    19    18    1
     5    19    20    1
     6    21    20    1
     7    21    22    1
     8    22    23   am
     9    23    24    2
    10    23     1    1
    11     1     2    1
    12     1     5    1
    13     5     6    1
    14     6     7    1
    15     7     8    1
    16     8     9    1
    17     9    10    1
    18    10    11    1
    19    11    12    1
    20    11    13    1
    21    11    14    1
    22     9    15    1
    23    22    17    1
    24    14     5    1
    25    21    19    1
    26    15     5    1
    27    13     7    1
    28     2     3    1
    29     2     4    1
    30    12    16    1
