@<TRIPOS>MOLECULE
*****
 30 32 0 0 0
SMALL
GASTEIGER

@<TRIPOS>ATOM
      1 N          -6.1576  -18.5290   21.3744 N.3     1  UNL1       -0.2972
      2 H          -6.3344  -17.5761   21.6924 H       1  UNL1        0.1233
      3 C          -7.7099  -19.1244   22.6918 C.3     1  UNL1        0.0161
      4 C          -7.4961  -19.1853   21.2084 C.3     1  UNL1        0.0462
      5 C          -7.2823  -19.2463   19.7250 C.3     1  UNL1        0.0161
      6 C          -8.8346  -19.8418   21.0425 C.3     1  UNL1        0.0424
      7 C         -10.0758  -19.0036   20.9590 C.2     1  UNL1       -0.0006
      8 C         -10.5656  -18.2720   19.7445 C.2     1  UNL1        0.0942
      9 N         -11.8376  -17.5661   20.1103 N.2     1  UNL1       -0.2482
     10 C         -12.1339  -17.8613   21.5508 C.2     1  UNL1        0.0631
     11 C         -13.2544  -17.4360   22.4526 C.3     1  UNL1        0.0717
     12 C         -13.2861  -17.8990   23.8790 C.2     1  UNL1       -0.0198
     13 C         -12.1973  -18.7874   24.4035 C.2     1  UNL1       -0.0042
     14 C         -11.0767  -19.2128   23.5017 C.2     1  UNL1        0.0006
     15 C         -11.0450  -18.7497   22.0753 C.2     1  UNL1        0.0114
     16 C          -5.1448  -19.1173   22.3115 C.3     1  UNL1        0.1020
     17 C          -3.8889  -18.3611   22.6293 C.3     1  UNL1        0.1697
     18 O          -2.5653  -18.8630   22.1331 O.3     1  UNL1       -0.3793
     19 H          -2.6982  -19.6802   21.6277 H       1  UNL1        0.2106
     20 C          -3.9567  -17.1030   23.4434 C.3     1  UNL1        0.2358
     21 O          -5.1135  -16.1630   23.2764 O.3     1  UNL1       -0.4721
     22 C          -6.0227  -15.8793   24.4352 C.ar    1  UNL1        0.1483
     23 C          -5.4724  -15.8487   25.8303 C.ar    1  UNL1        0.0399
     24 C          -6.3816  -15.5650   26.9891 C.ar    1  UNL1        0.0328
     25 C          -7.8411  -15.3119   26.7529 C.ar    1  UNL1        0.1410
     26 F          -8.7503  -15.0281   27.9117 F       1  UNL1       -0.2041
     27 C          -8.3914  -15.3424   25.3578 C.ar    1  UNL1        0.0430
     28 C          -7.4822  -15.6262   24.1990 C.ar    1  UNL1        0.1045
     29 C          -8.0324  -15.6568   22.8039 C.1     1  UNL1        0.1036
     30 N          -8.5826  -15.6873   21.4088 N.1     1  UNL1       -0.1907
@<TRIPOS>BOND
     1     3     4    1
     2     4     5    1
     3     4     6    1
     4     6     7    1
     5     7     8    2
     6     8     9    1
     7     9    10    2
     8    10    11    1
     9    11    12    1
    10    12    13    2
    11    13    14    1
    12    14    15    2
    13     4     1    1
    14     1    16    1
    15    16    17    1
    16    17    18    1
    17    17    20    1
    18    20    21    1
    19    21    22    1
    20    22    23   ar
    21    23    24   ar
    22    24    25   ar
    23    25    26    1
    24    25    27   ar
    25    27    28   ar
    26    28    29    1
    27    29    30    3
    28    15     7    1
    29    28    22   ar
    30    15    10    1
    31     1     2    1
    32    18    19    1
@<TRIPOS>MOLECULE
*****
 30 32 0 0 0
SMALL
GASTEIGER

@<TRIPOS>ATOM
      1 N          -6.7862  -14.7503   24.9393 N.3     1  UNL1       -0.2972
      2 H          -6.7993  -14.2783   25.8434 H       1  UNL1        0.1233
      3 C          -8.3912  -15.3634   26.1835 C.3     1  UNL1        0.0161
      4 C          -8.1730  -15.2705   24.7024 C.3     1  UNL1        0.0462
      5 C          -7.9549  -15.1777   23.2213 C.3     1  UNL1        0.0161
      6 C          -9.5599  -15.7908   24.4655 C.3     1  UNL1        0.0424
      7 C          -9.7799  -17.2536   24.2171 C.2     1  UNL1       -0.0006
      8 C          -9.6468  -18.3501   25.2320 C.2     1  UNL1        0.0942
      9 N          -9.9563  -19.6509   24.5523 N.2     1  UNL1       -0.2482
     10 C         -10.2807  -19.3584   23.1173 C.2     1  UNL1        0.0631
     11 C         -10.6613  -20.2498   21.9725 C.3     1  UNL1        0.0717
     12 C         -10.9328  -19.6595   20.6205 C.2     1  UNL1       -0.0198
     13 C         -10.8238  -18.1779   20.4134 C.2     1  UNL1       -0.0042
     14 C         -10.4433  -17.2865   21.5582 C.2     1  UNL1        0.0006
     15 C         -10.1717  -17.8768   22.9101 C.2     1  UNL1        0.0114
     16 C          -5.6235  -15.6977   24.9622 C.3     1  UNL1        0.1020
     17 C          -4.6755  -15.7497   23.8009 C.3     1  UNL1        0.1697
     18 O          -4.6288  -14.6163   22.8195 O.3     1  UNL1       -0.3793
     19 H          -5.2696  -13.9363   23.0801 H       1  UNL1        0.2106
     20 C          -3.7744  -16.9353   23.6210 C.3     1  UNL1        0.2358
     21 O          -3.4022  -17.3920   22.2416 O.3     1  UNL1       -0.4721
     22 C          -4.1181  -18.5529   21.6172 C.ar    1  UNL1        0.1483
     23 C          -5.5265  -18.8719   22.0232 C.ar    1  UNL1        0.0399
     24 C          -6.2423  -20.0328   21.3989 C.ar    1  UNL1        0.0328
     25 C          -5.5499  -20.8747   20.3686 C.ar    1  UNL1        0.1410
     26 F          -6.2658  -22.0356   19.7442 F       1  UNL1       -0.2041
     27 C          -4.1416  -20.5558   19.9625 C.ar    1  UNL1        0.0430
     28 C          -3.4257  -19.3949   20.5869 C.ar    1  UNL1        0.1045
     29 C          -2.0174  -19.0759   20.1809 C.1     1  UNL1        0.1036
     30 N          -0.6090  -18.7569   19.7750 N.1     1  UNL1       -0.1907
@<TRIPOS>BOND
     1     3     4    1
     2     4     5    1
     3     4     6    1
     4     6     7    1
     5     7     8    2
     6     8     9    1
     7     9    10    2
     8    10    11    1
     9    11    12    1
    10    12    13    2
    11    13    14    1
    12    14    15    2
    13     4     1    1
    14     1    16    1
    15    16    17    1
    16    17    18    1
    17    17    20    1
    18    20    21    1
    19    21    22    1
    20    22    23   ar
    21    23    24   ar
    22    24    25   ar
    23    25    26    1
    24    25    27   ar
    25    27    28   ar
    26    28    29    1
    27    29    30    3
    28    15     7    1
    29    28    22   ar
    30    15    10    1
    31     1     2    1
    32    18    19    1
@<TRIPOS>MOLECULE
*****
 30 32 0 0 0
SMALL
GASTEIGER

@<TRIPOS>ATOM
      1 N          -2.4175  -18.7613   20.7497 N.3     1  UNL1       -0.2972
      2 H          -2.3107  -18.0379   20.0386 H       1  UNL1        0.1233
      3 C          -3.5347  -20.2897   21.7066 C.3     1  UNL1        0.0161
      4 C          -3.7465  -19.4133   20.5078 C.3     1  UNL1        0.0462
      5 C          -3.9584  -18.5370   19.3091 C.3     1  UNL1        0.0161
      6 C          -5.0756  -20.0654   20.2660 C.3     1  UNL1        0.0424
      7 C          -6.3055  -19.5340   20.9406 C.2     1  UNL1       -0.0006
      8 C          -6.3646  -18.9145   22.3054 C.2     1  UNL1        0.0942
      9 N          -7.7879  -18.5265   22.5770 N.2     1  UNL1       -0.2482
     10 C          -8.6084  -18.9062   21.3801 C.2     1  UNL1        0.0631
     11 C         -10.0714  -18.7654   21.0805 C.3     1  UNL1        0.0717
     12 C         -10.6182  -19.2473   19.7695 C.2     1  UNL1       -0.0198
     13 C          -9.7020  -19.8700   18.7581 C.2     1  UNL1       -0.0042
     14 C          -8.2391  -20.0108   19.0577 C.2     1  UNL1        0.0006
     15 C          -7.6922  -19.5289   20.3687 C.2     1  UNL1        0.0114
     16 C          -2.1288  -18.1148   22.0720 C.3     1  UNL1        0.1020
     17 C          -2.7443  -16.7890   22.4089 C.3     1  UNL1        0.1697
     18 O          -2.3536  -15.5631   21.6378 O.3     1  UNL1       -0.3793
     19 H          -1.6985  -15.8007   20.9631 H       1  UNL1        0.2106
     20 C          -3.7505  -16.6891   23.5168 C.3     1  UNL1        0.2358
     21 O          -4.8549  -15.6771   23.4381 O.3     1  UNL1       -0.4721
     22 C          -5.8596  -15.5756   24.5472 C.ar    1  UNL1        0.1483
     23 C          -5.4124  -15.6734   25.9757 C.ar    1  UNL1        0.0399
     24 C          -6.4171  -15.5718   27.0848 C.ar    1  UNL1        0.0328
     25 C          -7.8691  -15.3725   26.7655 C.ar    1  UNL1        0.1410
     26 F          -8.8739  -15.2709   27.8746 F       1  UNL1       -0.2041
     27 C          -8.3164  -15.2747   25.3371 C.ar    1  UNL1        0.0430
     28 C          -7.3116  -15.3762   24.2279 C.ar    1  UNL1        0.1045
     29 C          -7.7588  -15.2785   22.7995 C.1     1  UNL1        0.1036
     30 N          -8.2060  -15.1806   21.3711 N.1     1  UNL1       -0.1907
@<TRIPOS>BOND
     1     3     4    1
     2     4     5    1
     3     4     6    1
     4     6     7    1
     5     7     8    2
     6     8     9    1
     7     9    10    2
     8    10    11    1
     9    11    12    1
    10    12    13    2
    11    13    14    1
    12    14    15    2
    13     4     1    1
    14     1    16    1
    15    16    17    1
    16    17    18    1
    17    17    20    1
    18    20    21    1
    19    21    22    1
    20    22    23   ar
    21    23    24   ar
    22    24    25   ar
    23    25    26    1
    24    25    27   ar
    25    27    28   ar
    26    28    29    1
    27    29    30    3
    28    15     7    1
    29    28    22   ar
    30    15    10    1
    31     1     2    1
    32    18    19    1
@<TRIPOS>MOLECULE
*****
 30 32 0 0 0
SMALL
GASTEIGER

@<TRIPOS>ATOM
      1 N          -7.6913  -19.0729   19.7629 N.3     1  UNL1       -0.2972
      2 H          -7.1967  -19.1073   18.8714 H       1  UNL1        0.1233
      3 C          -6.3606  -20.6949   20.0762 C.3     1  UNL1        0.0161
      4 C          -6.6966  -19.4390   20.8242 C.3     1  UNL1        0.0462
      5 C          -7.0325  -18.1830   21.5723 C.3     1  UNL1        0.0161
      6 C          -5.7018  -19.8051   21.8856 C.3     1  UNL1        0.0424
      7 C          -4.4633  -18.9791   22.0698 C.2     1  UNL1       -0.0006
      8 C          -3.9978  -18.3626   23.3556 C.2     1  UNL1        0.0942
      9 N          -2.7197  -17.6271   23.0808 N.2     1  UNL1       -0.2482
     10 C          -2.3953  -17.7890   21.6253 C.2     1  UNL1        0.0631
     11 C          -1.2579  -17.2835   20.7882 C.3     1  UNL1        0.0717
     12 C          -1.1981  -17.6136   19.3262 C.2     1  UNL1       -0.0198
     13 C          -2.2758  -18.4492   18.7014 C.2     1  UNL1       -0.0042
     14 C          -3.4132  -18.9547   19.5384 C.2     1  UNL1        0.0006
     15 C          -3.4729  -18.6246   21.0004 C.2     1  UNL1        0.0114
     16 C          -8.9422  -19.8836   19.5956 C.3     1  UNL1        0.1020
     17 C         -10.2324  -19.4032   20.1909 C.3     1  UNL1        0.1697
     18 O         -11.1194  -18.4780   19.4116 O.3     1  UNL1       -0.3793
     19 H         -10.7144  -18.2911   18.5502 H       1  UNL1        0.2106
     20 C         -10.6357  -19.8481   21.5655 C.3     1  UNL1        0.2358
     21 O         -11.3170  -18.8878   22.4948 O.3     1  UNL1       -0.4721
     22 C         -10.5148  -18.1314   23.5119 C.ar    1  UNL1        0.1483
     23 C         -10.2730  -18.7245   24.8682 C.ar    1  UNL1        0.0399
     24 C          -9.4708  -17.9681   25.8853 C.ar    1  UNL1        0.0328
     25 C          -8.9106  -16.6186   25.5460 C.ar    1  UNL1        0.1410
     26 F          -8.1084  -15.8622   26.5630 F       1  UNL1       -0.2041
     27 C          -9.1524  -16.0256   24.1896 C.ar    1  UNL1        0.0430
     28 C          -9.9546  -16.7820   23.1725 C.ar    1  UNL1        0.1045
     29 C         -10.1965  -16.1890   21.8162 C.1     1  UNL1        0.1036
     30 N         -10.4384  -15.5962   20.4597 N.1     1  UNL1       -0.1907
@<TRIPOS>BOND
     1     3     4    1
     2     4     5    1
     3     4     6    1
     4     6     7    1
     5     7     8    2
     6     8     9    1
     7     9    10    2
     8    10    11    1
     9    11    12    1
    10    12    13    2
    11    13    14    1
    12    14    15    2
    13     4     1    1
    14     1    16    1
    15    16    17    1
    16    17    18    1
    17    17    20    1
    18    20    21    1
    19    21    22    1
    20    22    23   ar
    21    23    24   ar
    22    24    25   ar
    23    25    26    1
    24    25    27   ar
    25    27    28   ar
    26    28    29    1
    27    29    30    3
    28    15     7    1
    29    28    22   ar
    30    15    10    1
    31     1     2    1
    32    18    19    1
@<TRIPOS>MOLECULE
*****
 30 32 0 0 0
SMALL
GASTEIGER

@<TRIPOS>ATOM
      1 N          -6.7636  -14.7383   25.6219 N.3     1  UNL1       -0.2972
      2 H          -6.8070  -14.5811   26.6288 H       1  UNL1        0.1233
      3 C          -7.9982  -14.6938   23.8975 C.3     1  UNL1        0.0161
      4 C          -8.0592  -15.3835   25.2281 C.3     1  UNL1        0.0462
      5 C          -8.1202  -16.0732   26.5587 C.3     1  UNL1        0.0161
      6 C          -9.3549  -16.0287   24.8342 C.3     1  UNL1        0.0424
      7 C          -9.3768  -17.0684   23.7533 C.2     1  UNL1       -0.0006
      8 C          -8.5901  -18.3455   23.7422 C.2     1  UNL1        0.0942
      9 N          -8.9164  -19.0799   22.4757 N.2     1  UNL1       -0.2482
     10 C          -9.9048  -18.2568   21.7040 C.2     1  UNL1        0.0631
     11 C         -10.5825  -18.4786   20.3844 C.3     1  UNL1        0.0717
     12 C         -11.5447  -17.4573   19.8543 C.2     1  UNL1       -0.0198
     13 C         -11.8292  -16.2141   20.6439 C.2     1  UNL1       -0.0042
     14 C         -11.1516  -15.9922   21.9636 C.2     1  UNL1        0.0006
     15 C         -10.1894  -17.0136   22.4936 C.2     1  UNL1        0.0114
     16 C          -5.4644  -15.4364   25.3483 C.3     1  UNL1        0.1020
     17 C          -5.0747  -15.7701   23.9388 C.3     1  UNL1        0.1697
     18 O          -4.6362  -14.6818   23.0043 O.3     1  UNL1       -0.3793
     19 H          -4.6618  -13.8292   23.4661 H       1  UNL1        0.2106
     20 C          -5.1233  -17.1921   23.4639 C.3     1  UNL1        0.2358
     21 O          -3.8494  -17.9462   23.2223 O.3     1  UNL1       -0.4721
     22 C          -3.2091  -17.9218   21.8660 C.ar    1  UNL1        0.1483
     23 C          -2.0532  -17.0040   21.5988 C.ar    1  UNL1        0.0399
     24 C          -1.4129  -16.9796   20.2425 C.ar    1  UNL1        0.0328
     25 C          -1.9285  -17.8732   19.1536 C.ar    1  UNL1        0.1410
     26 F          -1.2882  -17.8488   17.7973 F       1  UNL1       -0.2041
     27 C          -3.0844  -18.7910   19.4209 C.ar    1  UNL1        0.0430
     28 C          -3.7247  -18.8153   20.7771 C.ar    1  UNL1        0.1045
     29 C          -4.8805  -19.7332   21.0445 C.1     1  UNL1        0.1036
     30 N          -6.0365  -20.6509   21.3118 N.1     1  UNL1       -0.1907
@<TRIPOS>BOND
     1     3     4    1
     2     4     5    1
     3     4     6    1
     4     6     7    1
     5     7     8    2
     6     8     9    1
     7     9    10    2
     8    10    11    1
     9    11    12    1
    10    12    13    2
    11    13    14    1
    12    14    15    2
    13     4     1    1
    14     1    16    1
    15    16    17    1
    16    17    18    1
    17    17    20    1
    18    20    21    1
    19    21    22    1
    20    22    23   ar
    21    23    24   ar
    22    24    25   ar
    23    25    26    1
    24    25    27   ar
    25    27    28   ar
    26    28    29    1
    27    29    30    3
    28    15     7    1
    29    28    22   ar
    30    15    10    1
    31     1     2    1
    32    18    19    1
@<TRIPOS>MOLECULE
*****
 30 32 0 0 0
SMALL
GASTEIGER

@<TRIPOS>ATOM
      1 N          -5.0514  -18.8942   21.1012 N.3     1  UNL1       -0.2972
      2 H          -5.3777  -17.9831   20.7790 H       1  UNL1        0.1233
      3 C          -6.0992  -20.6382   20.5009 C.3     1  UNL1        0.0161
      4 C          -6.2564  -19.6330   21.6031 C.3     1  UNL1        0.0462
      5 C          -6.4138  -18.6279   22.7053 C.3     1  UNL1        0.0161
      6 C          -7.4616  -20.3720   22.1050 C.3     1  UNL1        0.0424
      7 C          -8.6612  -19.6110   22.5865 C.2     1  UNL1       -0.0006
      8 C          -9.0633  -19.4128   24.0179 C.2     1  UNL1        0.0942
      9 N         -10.3200  -18.5939   24.0371 N.2     1  UNL1       -0.2482
     10 C         -10.6944  -18.2861   22.6176 C.2     1  UNL1        0.0631
     11 C         -11.8365  -17.5146   22.0256 C.3     1  UNL1        0.0717
     12 C         -11.9533  -17.3717   20.5370 C.2     1  UNL1       -0.0198
     13 C         -10.9281  -18.0003   19.6405 C.2     1  UNL1       -0.0042
     14 C          -9.7861  -18.7718   20.2325 C.2     1  UNL1        0.0006
     15 C          -9.6692  -18.9147   21.7210 C.2     1  UNL1        0.0114
     16 C          -3.8920  -18.6395   22.0182 C.3     1  UNL1        0.1020
     17 C          -3.3644  -17.2460   22.1907 C.3     1  UNL1        0.1697
     18 O          -2.4467  -16.6585   21.1599 O.3     1  UNL1       -0.3793
     19 H          -2.2973  -17.3060   20.4533 H       1  UNL1        0.2106
     20 C          -3.7544  -16.4400   23.3942 C.3     1  UNL1        0.2358
     21 O          -4.9474  -15.5328   23.3348 O.3     1  UNL1       -0.4721
     22 C          -5.9138  -15.4885   24.4811 C.ar    1  UNL1        0.1483
     23 C          -5.4040  -15.4744   25.8917 C.ar    1  UNL1        0.0399
     24 C          -6.3705  -15.4301   27.0380 C.ar    1  UNL1        0.0328
     25 C          -7.8467  -15.3999   26.7737 C.ar    1  UNL1        0.1410
     26 F          -8.8131  -15.3556   27.9201 F       1  UNL1       -0.2041
     27 C          -8.3565  -15.4139   25.3631 C.ar    1  UNL1        0.0430
     28 C          -7.3901  -15.4582   24.2168 C.ar    1  UNL1        0.1045
     29 C          -7.8998  -15.4723   22.8062 C.1     1  UNL1        0.1036
     30 N          -8.4094  -15.4863   21.3955 N.1     1  UNL1       -0.1907
@<TRIPOS>BOND
     1     3     4    1
     2     4     5    1
     3     4     6    1
     4     6     7    1
     5     7     8    2
     6     8     9    1
     7     9    10    2
     8    10    11    1
     9    11    12    1
    10    12    13    2
    11    13    14    1
    12    14    15    2
    13     4     1    1
    14     1    16    1
    15    16    17    1
    16    17    18    1
    17    17    20    1
    18    20    21    1
    19    21    22    1
    20    22    23   ar
    21    23    24   ar
    22    24    25   ar
    23    25    26    1
    24    25    27   ar
    25    27    28   ar
    26    28    29    1
    27    29    30    3
    28    15     7    1
    29    28    22   ar
    30    15    10    1
    31     1     2    1
    32    18    19    1
@<TRIPOS>MOLECULE
*****
 30 32 0 0 0
SMALL
GASTEIGER

@<TRIPOS>ATOM
      1 N          -6.1788  -14.8055   25.3599 N.3     1  UNL1       -0.2972
      2 H          -6.2005  -14.0348   26.0277 H       1  UNL1        0.1233
      3 C          -7.3223  -14.6433   23.5805 C.3     1  UNL1        0.0161
      4 C          -7.6022  -15.0928   24.9839 C.3     1  UNL1        0.0462
      5 C          -7.8822  -15.5424   26.3873 C.3     1  UNL1        0.0161
      6 C          -9.0256  -15.3802   24.6079 C.3     1  UNL1        0.0424
      7 C          -9.3298  -16.3772   23.5291 C.2     1  UNL1       -0.0006
      8 C          -9.3318  -16.1067   22.0537 C.2     1  UNL1        0.0942
      9 N          -9.6885  -17.3820   21.3493 N.2     1  UNL1       -0.2482
     10 C          -9.9070  -18.4406   22.3892 C.2     1  UNL1        0.0631
     11 C         -10.2791  -19.8899   22.2835 C.3     1  UNL1        0.0717
     12 C         -10.4295  -20.7180   23.5250 C.2     1  UNL1       -0.0198
     13 C         -10.2078  -20.0970   24.8723 C.2     1  UNL1       -0.0042
     14 C          -9.8356  -18.6478   24.9780 C.2     1  UNL1        0.0006
     15 C          -9.6852  -17.8196   23.7365 C.2     1  UNL1        0.0114
     16 C          -5.3319  -15.8830   25.9695 C.3     1  UNL1        0.1020
     17 C          -4.5178  -16.7848   25.0898 C.3     1  UNL1        0.1697
     18 O          -3.6764  -17.8669   25.6990 O.3     1  UNL1       -0.3793
     19 H          -3.7720  -17.8462   26.6640 H       1  UNL1        0.2106
     20 C          -4.5451  -16.6045   23.6009 C.3     1  UNL1        0.2358
     21 O          -3.7440  -17.5169   22.7201 O.3     1  UNL1       -0.4721
     22 C          -4.4280  -18.6079   21.9508 C.ar    1  UNL1        0.1483
     23 C          -5.8660  -18.9327   22.2278 C.ar    1  UNL1        0.0399
     24 C          -6.5500  -20.0238   21.4585 C.ar    1  UNL1        0.0328
     25 C          -5.7961  -20.7899   20.4123 C.ar    1  UNL1        0.1410
     26 F          -6.4801  -21.8810   19.6430 F       1  UNL1       -0.2041
     27 C          -4.3581  -20.4651   20.1354 C.ar    1  UNL1        0.0430
     28 C          -3.6741  -19.3741   20.9046 C.ar    1  UNL1        0.1045
     29 C          -2.2361  -19.0492   20.6278 C.1     1  UNL1        0.1036
     30 N          -0.7982  -18.7244   20.3509 N.1     1  UNL1       -0.1907
@<TRIPOS>BOND
     1     3     4    1
     2     4     5    1
     3     4     6    1
     4     6     7    1
     5     7     8    2
     6     8     9    1
     7     9    10    2
     8    10    11    1
     9    11    12    1
    10    12    13    2
    11    13    14    1
    12    14    15    2
    13     4     1    1
    14     1    16    1
    15    16    17    1
    16    17    18    1
    17    17    20    1
    18    20    21    1
    19    21    22    1
    20    22    23   ar
    21    23    24   ar
    22    24    25   ar
    23    25    26    1
    24    25    27   ar
    25    27    28   ar
    26    28    29    1
    27    29    30    3
    28    15     7    1
    29    28    22   ar
    30    15    10    1
    31     1     2    1
    32    18    19    1
@<TRIPOS>MOLECULE
*****
 30 32 0 0 0
SMALL
GASTEIGER

@<TRIPOS>ATOM
      1 N          -6.0809  -14.7554   24.8274 N.3     1  UNL1       -0.2972
      2 H          -5.7266  -13.8379   24.5569 H       1  UNL1        0.1233
      3 C          -4.8076  -15.1491   23.1771 C.3     1  UNL1        0.0161
      4 C          -4.9881  -15.7427   24.5427 C.3     1  UNL1        0.0462
      5 C          -5.1686  -16.3363   25.9084 C.3     1  UNL1        0.0161
      6 C          -3.8952  -16.7300   24.2580 C.3     1  UNL1        0.0424
      7 C          -3.9569  -17.5821   23.0251 C.2     1  UNL1       -0.0006
      8 C          -4.9879  -18.6305   22.7285 C.2     1  UNL1        0.0942
      9 N          -4.6665  -19.2317   21.3924 N.2     1  UNL1       -0.2482
     10 C          -3.4368  -18.5550   20.8632 C.2     1  UNL1        0.0631
     11 C          -2.6598  -18.7354   19.5929 C.3     1  UNL1        0.0717
     12 C          -1.4443  -17.8963   19.3317 C.2     1  UNL1       -0.0198
     13 C          -1.0057  -16.8768   20.3408 C.2     1  UNL1       -0.0042
     14 C          -1.7827  -16.6964   21.6110 C.2     1  UNL1        0.0006
     15 C          -2.9982  -17.5355   21.8723 C.2     1  UNL1        0.0114
     16 C          -7.4219  -14.9117   24.1738 C.3     1  UNL1        0.1020
     17 C          -8.5683  -15.4963   24.9445 C.3     1  UNL1        0.1697
     18 O          -8.6139  -15.3625   26.4379 O.3     1  UNL1       -0.3793
     19 H          -7.8327  -14.8749   26.7428 H       1  UNL1        0.2106
     20 C          -9.6691  -16.2148   24.2219 C.3     1  UNL1        0.2358
     21 O          -9.6132  -17.7051   24.0617 O.3     1  UNL1       -0.4721
     22 C          -9.7162  -18.3170   22.6960 C.ar    1  UNL1        0.1483
     23 C          -8.4723  -18.6249   21.9164 C.ar    1  UNL1        0.0399
     24 C          -8.5754  -19.2368   20.5508 C.ar    1  UNL1        0.0328
     25 C          -9.9223  -19.5408   19.9648 C.ar    1  UNL1        0.1410
     26 F         -10.0253  -20.1527   18.5992 F       1  UNL1       -0.2041
     27 C         -11.1662  -19.2328   20.7444 C.ar    1  UNL1        0.0430
     28 C         -11.0632  -18.6209   22.1100 C.ar    1  UNL1        0.1045
     29 C         -12.3070  -18.3129   22.8897 C.1     1  UNL1        0.1036
     30 N         -13.5509  -18.0049   23.6693 N.1     1  UNL1       -0.1907
@<TRIPOS>BOND
     1     3     4    1
     2     4     5    1
     3     4     6    1
     4     6     7    1
     5     7     8    2
     6     8     9    1
     7     9    10    2
     8    10    11    1
     9    11    12    1
    10    12    13    2
    11    13    14    1
    12    14    15    2
    13     4     1    1
    14     1    16    1
    15    16    17    1
    16    17    18    1
    17    17    20    1
    18    20    21    1
    19    21    22    1
    20    22    23   ar
    21    23    24   ar
    22    24    25   ar
    23    25    26    1
    24    25    27   ar
    25    27    28   ar
    26    28    29    1
    27    29    30    3
    28    15     7    1
    29    28    22   ar
    30    15    10    1
    31     1     2    1
    32    18    19    1
@<TRIPOS>MOLECULE
*****
 30 32 0 0 0
SMALL
GASTEIGER

@<TRIPOS>ATOM
      1 N          -7.4666  -19.2428   21.8402 N.3     1  UNL1       -0.2972
      2 H          -8.0446  -20.0108   22.1817 H       1  UNL1        0.1233
      3 C          -6.0018  -20.6785   22.3818 C.3     1  UNL1        0.0161
      4 C          -6.2843  -19.8621   21.1555 C.3     1  UNL1        0.0462
      5 C          -6.5667  -19.0457   19.9293 C.3     1  UNL1        0.0161
      6 C          -5.1020  -20.4814   20.4709 C.3     1  UNL1        0.0424
      7 C          -3.9342  -19.6283   20.0727 C.2     1  UNL1       -0.0006
      8 C          -3.1451  -19.7509   18.8030 C.2     1  UNL1        0.0942
      9 N          -2.0737  -18.7012   18.8199 N.2     1  UNL1       -0.2482
     10 C          -2.2006  -17.9299   20.1002 C.2     1  UNL1        0.0631
     11 C          -1.4177  -16.7799   20.6609 C.3     1  UNL1        0.0717
     12 C          -1.7846  -16.2029   21.9960 C.2     1  UNL1       -0.0198
     13 C          -2.9345  -16.7759   22.7702 C.2     1  UNL1       -0.0042
     14 C          -3.7174  -17.9259   22.2095 C.2     1  UNL1        0.0006
     15 C          -3.3504  -18.5029   20.8745 C.2     1  UNL1        0.0114
     16 C          -7.2600  -18.3093   22.9959 C.3     1  UNL1        0.1020
     17 C          -7.3699  -16.8273   22.7919 C.3     1  UNL1        0.1697
     18 O          -6.3323  -15.9115   23.3703 O.3     1  UNL1       -0.3793
     19 H          -5.6659  -16.4351   23.8423 H       1  UNL1        0.2106
     20 C          -8.5176  -16.2611   22.0094 C.3     1  UNL1        0.2358
     21 O          -9.5477  -17.1779   21.4191 O.3     1  UNL1       -0.4721
     22 C         -10.8108  -17.4714   22.1730 C.ar    1  UNL1        0.1483
     23 C         -10.7528  -18.2234   23.4695 C.ar    1  UNL1        0.0399
     24 C         -12.0158  -18.5169   24.2235 C.ar    1  UNL1        0.0328
     25 C         -13.3370  -18.0584   23.6809 C.ar    1  UNL1        0.1410
     26 F         -14.6001  -18.3519   24.4348 F       1  UNL1       -0.2041
     27 C         -13.3950  -17.3063   22.3843 C.ar    1  UNL1        0.0430
     28 C         -12.1319  -17.0128   21.6304 C.ar    1  UNL1        0.1045
     29 C         -12.1898  -16.2608   20.3339 C.1     1  UNL1        0.1036
     30 N         -12.2476  -15.5087   19.0373 N.1     1  UNL1       -0.1907
@<TRIPOS>BOND
     1     3     4    1
     2     4     5    1
     3     4     6    1
     4     6     7    1
     5     7     8    2
     6     8     9    1
     7     9    10    2
     8    10    11    1
     9    11    12    1
    10    12    13    2
    11    13    14    1
    12    14    15    2
    13     4     1    1
    14     1    16    1
    15    16    17    1
    16    17    18    1
    17    17    20    1
    18    20    21    1
    19    21    22    1
    20    22    23   ar
    21    23    24   ar
    22    24    25   ar
    23    25    26    1
    24    25    27   ar
    25    27    28   ar
    26    28    29    1
    27    29    30    3
    28    15     7    1
    29    28    22   ar
    30    15    10    1
    31     1     2    1
    32    18    19    1
