@<TRIPOS>MOLECULE
*****
 22 24 0 0 0
SMALL
GASTEIGER

@<TRIPOS>ATOM
      1 N          -7.6939  -18.0851   22.7213 N.3     1  UNL1       -0.2700
      2 C          -6.3697  -18.4482   22.1175 C.3     1  UNL1        0.0628
      3 C          -6.3138  -19.0885   20.7621 C.3     1  UNL1        0.0481
      4 C          -4.9896  -19.4516   20.1583 C.3     1  UNL1        0.1435
      5 O          -3.7213  -19.1744   20.9097 O.3     1  UNL1       -0.3537
      6 C          -3.7772  -18.5341   22.2650 C.3     1  UNL1        0.1435
      7 C          -5.1015  -18.1710   22.8689 C.3     1  UNL1        0.0481
      8 C          -7.8528  -16.7864   23.4551 C.3     1  UNL1        0.0748
      9 C          -8.3723  -16.6212   24.8525 C.3     1  UNL1        0.0344
     10 C          -8.3606  -15.1577   25.1813 C.3     1  UNL1        0.0700
     11 N          -7.8339  -14.4185   23.9871 N.3     1  UNL1       -0.2963
     12 C          -7.5200  -15.4251   22.9202 C.3     1  UNL1        0.0847
     13 H          -6.9880  -13.9082   24.2412 H       1  UNL1        0.1233
     14 C          -8.8592  -19.0205   22.5914 C.3     1  UNL1        0.0988
     15 C         -13.7815  -18.0113   23.9154 C.3     1  UNL1        0.0307
     16 C         -12.6765  -17.9802   22.9014 C.ar    1  UNL1       -0.0260
     17 C         -12.9277  -17.4134   21.5356 C.ar    1  UNL1       -0.0046
     18 C         -11.8227  -17.3823   20.5216 C.ar    1  UNL1       -0.0006
     19 C         -10.4666  -17.9180   20.8735 C.ar    1  UNL1       -0.0032
     20 C         -10.2154  -18.4848   22.2394 C.ar    1  UNL1       -0.0104
     21 C         -11.3204  -18.5159   23.2533 C.ar    1  UNL1       -0.0284
     22 C         -11.0692  -19.0828   24.6193 C.3     1  UNL1        0.0304
@<TRIPOS>BOND
     1    15    16    1
     2    16    17   ar
     3    17    18   ar
     4    18    19   ar
     5    19    20   ar
     6    20    14    1
     7    14     1    1
     8     1     2    1
     9     2     3    1
    10     3     4    1
    11     4     5    1
    12     5     6    1
    13     6     7    1
    14     8     1    1
    15     8     9    1
    16     9    10    1
    17    10    11    1
    18    11    12    1
    19    20    21   ar
    20    21    22    1
    21    21    16   ar
    22     7     2    1
    23    12     8    1
    24    11    13    1
@<TRIPOS>MOLECULE
*****
 22 24 0 0 0
SMALL
GASTEIGER

@<TRIPOS>ATOM
      1 N          -7.0255  -18.4937   22.3058 N.3     1  UNL1       -0.2700
      2 C          -5.6792  -18.8624   21.7569 C.3     1  UNL1        0.0628
      3 C          -5.5418  -19.2747   20.3212 C.3     1  UNL1        0.0481
      4 C          -4.1955  -19.6435   19.7723 C.3     1  UNL1        0.1435
      5 O          -2.9864  -19.6000   20.6591 O.3     1  UNL1       -0.3537
      6 C          -3.1238  -19.1877   22.0947 C.3     1  UNL1        0.1435
      7 C          -4.4702  -18.8189   22.6437 C.3     1  UNL1        0.0481
      8 C          -7.2801  -17.0981   22.7933 C.3     1  UNL1        0.0748
      9 C          -6.8120  -16.5201   24.0959 C.3     1  UNL1        0.0344
     10 C          -7.2901  -15.1003   24.1715 C.3     1  UNL1        0.0700
     11 N          -8.0537  -14.8009   22.9156 N.3     1  UNL1       -0.2963
     12 C          -8.0475  -16.0355   22.0639 C.3     1  UNL1        0.0847
     13 H          -7.6080  -14.0324   22.4144 H       1  UNL1        0.1233
     14 C          -8.1174  -19.5204   22.3671 C.3     1  UNL1        0.0988
     15 C         -12.9184  -17.7598   21.4446 C.3     1  UNL1        0.0307
     16 C         -11.8796  -18.2578   22.4054 C.ar    1  UNL1       -0.0260
     17 C         -12.2026  -18.3736   23.8656 C.ar    1  UNL1       -0.0046
     18 C         -11.1639  -18.8716   24.8263 C.ar    1  UNL1       -0.0006
     19 C          -9.8022  -19.2539   24.3268 C.ar    1  UNL1       -0.0032
     20 C          -9.4792  -19.1381   22.8666 C.ar    1  UNL1       -0.0104
     21 C         -10.5179  -18.6401   21.9059 C.ar    1  UNL1       -0.0284
     22 C         -10.1948  -18.5243   20.4456 C.3     1  UNL1        0.0304
@<TRIPOS>BOND
     1    15    16    1
     2    16    17   ar
     3    17    18   ar
     4    18    19   ar
     5    19    20   ar
     6    20    14    1
     7    14     1    1
     8     1     2    1
     9     2     3    1
    10     3     4    1
    11     4     5    1
    12     5     6    1
    13     6     7    1
    14     8     1    1
    15     8     9    1
    16     9    10    1
    17    10    11    1
    18    11    12    1
    19    20    21   ar
    20    21    22    1
    21    21    16   ar
    22     7     2    1
    23    12     8    1
    24    11    13    1
@<TRIPOS>MOLECULE
*****
 22 24 0 0 0
SMALL
GASTEIGER

@<TRIPOS>ATOM
      1 N          -8.4221  -17.0184   21.7897 N.3     1  UNL1       -0.2700
      2 C          -9.8966  -17.1637   21.5557 C.3     1  UNL1        0.0628
      3 C         -10.6219  -18.3725   22.0685 C.3     1  UNL1        0.0481
      4 C         -12.0964  -18.5178   21.8345 C.3     1  UNL1        0.1435
      5 O         -12.8456  -17.4543   21.0878 O.3     1  UNL1       -0.3537
      6 C         -12.1204  -16.2456   20.5749 C.3     1  UNL1        0.1435
      7 C         -10.6459  -16.1003   20.8089 C.3     1  UNL1        0.0481
      8 C          -7.5035  -18.1749   21.5272 C.3     1  UNL1        0.0748
      9 C          -6.3872  -18.6339   22.4178 C.3     1  UNL1        0.0344
     10 C          -5.7338  -19.8181   21.7691 C.3     1  UNL1        0.0700
     11 N          -6.4463  -20.0909   20.4775 N.3     1  UNL1       -0.2963
     12 C          -7.5400  -19.0753   20.3281 C.3     1  UNL1        0.0847
     13 H          -6.8452  -21.0295   20.4938 H       1  UNL1        0.1233
     14 C          -7.8662  -15.7167   22.2861 C.3     1  UNL1        0.0988
     15 C          -8.3136  -15.7972   27.4623 C.3     1  UNL1        0.0307
     16 C          -7.4609  -15.6799   26.2338 C.ar    1  UNL1       -0.0260
     17 C          -5.9794  -15.4854   26.3649 C.ar    1  UNL1       -0.0046
     18 C          -5.1268  -15.3680   25.1363 C.ar    1  UNL1       -0.0006
     19 C          -5.7557  -15.4451   23.7768 C.ar    1  UNL1       -0.0032
     20 C          -7.2372  -15.6396   23.6457 C.ar    1  UNL1       -0.0104
     21 C          -8.0898  -15.7570   24.8742 C.ar    1  UNL1       -0.0284
     22 C          -9.5714  -15.9514   24.7431 C.3     1  UNL1        0.0304
@<TRIPOS>BOND
     1    15    16    1
     2    16    17   ar
     3    17    18   ar
     4    18    19   ar
     5    19    20   ar
     6    20    14    1
     7    14     1    1
     8     1     2    1
     9     2     3    1
    10     3     4    1
    11     4     5    1
    12     5     6    1
    13     6     7    1
    14     8     1    1
    15     8     9    1
    16     9    10    1
    17    10    11    1
    18    11    12    1
    19    20    21   ar
    20    21    22    1
    21    21    16   ar
    22     7     2    1
    23    12     8    1
    24    11    13    1
@<TRIPOS>MOLECULE
*****
 22 24 0 0 0
SMALL
GASTEIGER

@<TRIPOS>ATOM
      1 N          -8.3749  -17.6698   22.5768 N.3     1  UNL1       -0.2700
      2 C          -9.4950  -17.5636   21.5848 C.3     1  UNL1        0.0628
      3 C         -10.3513  -16.3325   21.5493 C.3     1  UNL1        0.0481
      4 C         -11.4714  -16.2263   20.5573 C.3     1  UNL1        0.1435
      5 O         -11.7352  -17.3512   19.6007 O.3     1  UNL1       -0.3537
      6 C         -10.8790  -18.5823   19.6362 C.3     1  UNL1        0.1435
      7 C          -9.7588  -18.6885   20.6282 C.3     1  UNL1        0.0481
      8 C          -8.1057  -16.5413   23.5277 C.3     1  UNL1        0.0748
      9 C          -8.5459  -16.4712   24.9599 C.3     1  UNL1        0.0344
     10 C          -8.0613  -15.1714   25.5307 C.3     1  UNL1        0.0700
     11 N          -7.3216  -14.4382   24.4512 N.3     1  UNL1       -0.2963
     12 C          -7.3490  -15.2848   23.2133 C.3     1  UNL1        0.0847
     13 H          -6.3564  -14.2785   24.7400 H       1  UNL1        0.1233
     14 C          -7.5239  -18.9043   22.6179 C.3     1  UNL1        0.0988
     15 C          -3.6107  -20.2483   19.4746 C.3     1  UNL1        0.0307
     16 C          -4.1167  -19.5001   20.6722 C.ar    1  UNL1       -0.0260
     17 C          -3.1721  -18.6759   21.4957 C.ar    1  UNL1       -0.0046
     18 C          -3.6781  -17.9277   22.6934 C.ar    1  UNL1       -0.0006
     19 C          -5.1287  -18.0039   23.0674 C.ar    1  UNL1       -0.0032
     20 C          -6.0733  -18.8282   22.2439 C.ar    1  UNL1       -0.0104
     21 C          -5.5673  -19.5763   21.0462 C.ar    1  UNL1       -0.0284
     22 C          -6.5119  -20.4006   20.2227 C.3     1  UNL1        0.0304
@<TRIPOS>BOND
     1    15    16    1
     2    16    17   ar
     3    17    18   ar
     4    18    19   ar
     5    19    20   ar
     6    20    14    1
     7    14     1    1
     8     1     2    1
     9     2     3    1
    10     3     4    1
    11     4     5    1
    12     5     6    1
    13     6     7    1
    14     8     1    1
    15     8     9    1
    16     9    10    1
    17    10    11    1
    18    11    12    1
    19    20    21   ar
    20    21    22    1
    21    21    16   ar
    22     7     2    1
    23    12     8    1
    24    11    13    1
@<TRIPOS>MOLECULE
*****
 22 24 0 0 0
SMALL
GASTEIGER

@<TRIPOS>ATOM
      1 N          -7.3330  -17.9042   22.1782 N.3     1  UNL1       -0.2700
      2 C          -6.1102  -18.6598   21.7494 C.3     1  UNL1        0.0628
      3 C          -6.1127  -19.4181   20.4552 C.3     1  UNL1        0.0481
      4 C          -4.8899  -20.1737   20.0264 C.3     1  UNL1        0.1435
      5 O          -3.6647  -20.1710   20.8917 O.3     1  UNL1       -0.3537
      6 C          -3.6622  -19.4127   22.1859 C.3     1  UNL1        0.1435
      7 C          -4.8850  -18.6571   22.6148 C.3     1  UNL1        0.0481
      8 C          -8.6579  -18.6033   22.2557 C.3     1  UNL1        0.0748
      9 C          -9.0000  -19.7459   23.1652 C.3     1  UNL1        0.0344
     10 C         -10.4268  -20.1312   22.9088 C.3     1  UNL1        0.0700
     11 N         -10.9666  -19.2266   21.8408 N.3     1  UNL1       -0.2963
     12 C          -9.8733  -18.2823   21.4372 C.3     1  UNL1        0.0847
     13 H         -11.7623  -18.7007   22.2022 H       1  UNL1        0.1233
     14 C          -7.2309  -16.4495   22.5296 C.3     1  UNL1        0.0988
     15 C          -8.5627  -15.3340   27.4268 C.3     1  UNL1        0.0307
     16 C          -7.5102  -15.4813   26.3682 C.ar    1  UNL1       -0.0260
     17 C          -6.0712  -15.2181   26.6996 C.ar    1  UNL1       -0.0046
     18 C          -5.0187  -15.3654   25.6410 C.ar    1  UNL1       -0.0006
     19 C          -5.4052  -15.7759   24.2511 C.ar    1  UNL1       -0.0032
     20 C          -6.8443  -16.0390   23.9197 C.ar    1  UNL1       -0.0104
     21 C          -7.8968  -15.8917   24.9782 C.ar    1  UNL1       -0.0284
     22 C          -9.3359  -16.1549   24.6467 C.3     1  UNL1        0.0304
@<TRIPOS>BOND
     1    15    16    1
     2    16    17   ar
     3    17    18   ar
     4    18    19   ar
     5    19    20   ar
     6    20    14    1
     7    14     1    1
     8     1     2    1
     9     2     3    1
    10     3     4    1
    11     4     5    1
    12     5     6    1
    13     6     7    1
    14     8     1    1
    15     8     9    1
    16     9    10    1
    17    10    11    1
    18    11    12    1
    19    20    21   ar
    20    21    22    1
    21    21    16   ar
    22     7     2    1
    23    12     8    1
    24    11    13    1
@<TRIPOS>MOLECULE
*****
 22 24 0 0 0
SMALL
GASTEIGER

@<TRIPOS>ATOM
      1 N          -6.5842  -17.8072   22.1919 N.3     1  UNL1       -0.2700
      2 C          -5.4247  -18.6635   21.7769 C.3     1  UNL1        0.0628
      3 C          -4.1520  -18.6386   22.5705 C.3     1  UNL1        0.0481
      4 C          -2.9925  -19.4950   22.1555 C.3     1  UNL1        0.1435
      5 O          -3.1056  -20.3762   20.9469 O.3     1  UNL1       -0.3537
      6 C          -4.3782  -20.4011   20.1534 C.3     1  UNL1        0.1435
      7 C          -5.5378  -19.5448   20.5683 C.3     1  UNL1        0.0481
      8 C          -6.3762  -16.6816   23.1614 C.3     1  UNL1        0.0748
      9 C          -5.1927  -16.5043   24.0658 C.3     1  UNL1        0.0344
     10 C          -5.4003  -15.2488   24.8600 C.3     1  UNL1        0.0700
     11 N          -6.7120  -14.6502   24.4463 N.3     1  UNL1       -0.2963
     12 C          -7.3151  -15.5357   23.3965 C.3     1  UNL1        0.0847
     13 H          -6.5616  -13.7157   24.0662 H       1  UNL1        0.1233
     14 C          -7.9517  -18.0765   21.6375 C.3     1  UNL1        0.0988
     15 C         -12.8148  -17.9297   23.4619 C.3     1  UNL1        0.0307
     16 C         -11.4553  -18.5631   23.4368 C.ar    1  UNL1       -0.0260
     17 C         -11.1679  -19.7564   24.2990 C.ar    1  UNL1       -0.0046
     18 C          -9.8084  -20.3898   24.2740 C.ar    1  UNL1       -0.0006
     19 C          -8.7364  -19.8298   23.3868 C.ar    1  UNL1       -0.0032
     20 C          -9.0238  -18.6365   22.5247 C.ar    1  UNL1       -0.0104
     21 C         -10.3833  -18.0031   22.5497 C.ar    1  UNL1       -0.0284
     22 C         -10.6707  -16.8097   21.6875 C.3     1  UNL1        0.0304
@<TRIPOS>BOND
     1    15    16    1
     2    16    17   ar
     3    17    18   ar
     4    18    19   ar
     5    19    20   ar
     6    20    14    1
     7    14     1    1
     8     1     2    1
     9     2     3    1
    10     3     4    1
    11     4     5    1
    12     5     6    1
    13     6     7    1
    14     8     1    1
    15     8     9    1
    16     9    10    1
    17    10    11    1
    18    11    12    1
    19    20    21   ar
    20    21    22    1
    21    21    16   ar
    22     7     2    1
    23    12     8    1
    24    11    13    1
@<TRIPOS>MOLECULE
*****
 22 24 0 0 0
SMALL
GASTEIGER

@<TRIPOS>ATOM
      1 N          -7.4141  -18.4631   22.6138 N.3     1  UNL1       -0.2700
      2 C          -7.1998  -17.1679   23.3393 C.3     1  UNL1        0.0628
      3 C          -5.8198  -16.5906   23.4519 C.3     1  UNL1        0.0481
      4 C          -5.6055  -15.2954   24.1774 C.3     1  UNL1        0.1435
      5 O          -6.7712  -14.5774   24.7904 O.3     1  UNL1       -0.3537
      6 C          -8.1511  -15.1545   24.6778 C.3     1  UNL1        0.1435
      7 C          -8.3654  -16.4498   23.9523 C.3     1  UNL1        0.0481
      8 C          -6.3643  -18.9794   21.6748 C.3     1  UNL1        0.0748
      9 C          -5.0657  -19.6181   22.0693 C.3     1  UNL1        0.0344
     10 C          -4.3278  -19.9811   20.8148 C.3     1  UNL1        0.0700
     11 N          -5.1703  -19.5666   19.6450 N.3     1  UNL1       -0.2963
     12 C          -6.4290  -18.9476   20.1765 C.3     1  UNL1        0.0847
     13 H          -5.3989  -20.3823   19.0768 H       1  UNL1        0.1233
     14 C          -8.6781  -19.2421   22.8271 C.3     1  UNL1        0.0988
     15 C         -13.6353  -17.9479   23.6935 C.3     1  UNL1        0.0307
     16 C         -12.4642  -18.0541   22.7623 C.ar    1  UNL1       -0.0260
     17 C         -12.6004  -17.6193   21.3333 C.ar    1  UNL1       -0.0046
     18 C         -11.4292  -17.7254   20.4021 C.ar    1  UNL1       -0.0006
     19 C         -10.1218  -18.2663   20.9000 C.ar    1  UNL1       -0.0032
     20 C          -9.9855  -18.7011   22.3291 C.ar    1  UNL1       -0.0104
     21 C         -11.1567  -18.5950   23.2603 C.ar    1  UNL1       -0.0284
     22 C         -11.0204  -19.0298   24.6894 C.3     1  UNL1        0.0304
@<TRIPOS>BOND
     1    15    16    1
     2    16    17   ar
     3    17    18   ar
     4    18    19   ar
     5    19    20   ar
     6    20    14    1
     7    14     1    1
     8     1     2    1
     9     2     3    1
    10     3     4    1
    11     4     5    1
    12     5     6    1
    13     6     7    1
    14     8     1    1
    15     8     9    1
    16     9    10    1
    17    10    11    1
    18    11    12    1
    19    20    21   ar
    20    21    22    1
    21    21    16   ar
    22     7     2    1
    23    12     8    1
    24    11    13    1
@<TRIPOS>MOLECULE
*****
 22 24 0 0 0
SMALL
GASTEIGER

@<TRIPOS>ATOM
      1 N          -6.5789  -18.1493   21.9996 N.3     1  UNL1       -0.2700
      2 C          -6.4592  -17.0017   22.9580 C.3     1  UNL1        0.0628
      3 C          -7.6406  -16.1142   23.2166 C.3     1  UNL1        0.0481
      4 C          -7.5210  -14.9666   24.1750 C.3     1  UNL1        0.1435
      5 O          -6.2200  -14.7063   24.8748 O.3     1  UNL1       -0.3537
      6 C          -5.0387  -15.5937   24.6162 C.3     1  UNL1        0.1435
      7 C          -5.1583  -16.7414   23.6577 C.3     1  UNL1        0.0481
      8 C          -5.3538  -18.9056   21.5784 C.3     1  UNL1        0.0748
      9 C          -4.9934  -19.2882   20.1735 C.3     1  UNL1        0.0344
     10 C          -3.6910  -20.0311   20.2151 C.3     1  UNL1        0.0700
     11 N          -3.2464  -20.1077   21.6457 N.3     1  UNL1       -0.2963
     12 C          -4.2741  -19.4120   22.4882 C.3     1  UNL1        0.0847
     13 H          -2.3423  -19.6476   21.7523 H       1  UNL1        0.1233
     14 C          -7.9235  -18.5407   21.4622 C.3     1  UNL1        0.0988
     15 C         -12.7889  -17.9276   23.1806 C.3     1  UNL1        0.0307
     16 C         -11.4586  -18.6156   23.2644 C.ar    1  UNL1       -0.0260
     17 C         -11.2307  -19.6851   24.2912 C.ar    1  UNL1       -0.0046
     18 C          -9.9004  -20.3731   24.3750 C.ar    1  UNL1       -0.0006
     19 C          -8.7981  -19.9916   23.4320 C.ar    1  UNL1       -0.0032
     20 C          -9.0260  -18.9222   22.4053 C.ar    1  UNL1       -0.0104
     21 C         -10.3562  -18.2342   22.3214 C.ar    1  UNL1       -0.0284
     22 C         -10.5841  -17.1647   21.2946 C.3     1  UNL1        0.0304
@<TRIPOS>BOND
     1    15    16    1
     2    16    17   ar
     3    17    18   ar
     4    18    19   ar
     5    19    20   ar
     6    20    14    1
     7    14     1    1
     8     1     2    1
     9     2     3    1
    10     3     4    1
    11     4     5    1
    12     5     6    1
    13     6     7    1
    14     8     1    1
    15     8     9    1
    16     9    10    1
    17    10    11    1
    18    11    12    1
    19    20    21   ar
    20    21    22    1
    21    21    16   ar
    22     7     2    1
    23    12     8    1
    24    11    13    1
@<TRIPOS>MOLECULE
*****
 22 24 0 0 0
SMALL
GASTEIGER

@<TRIPOS>ATOM
      1 N          -9.6424  -17.9451   24.0072 N.3     1  UNL1       -0.2700
      2 C          -8.8353  -17.0631   24.9129 C.3     1  UNL1        0.0628
      3 C          -8.9984  -17.1658   26.4006 C.3     1  UNL1        0.0481
      4 C          -8.1912  -16.2838   27.3063 C.3     1  UNL1        0.1435
      5 O          -7.2209  -15.2989   26.7245 O.3     1  UNL1       -0.3537
      6 C          -7.0577  -15.1961   25.2370 C.3     1  UNL1        0.1435
      7 C          -7.8649  -16.0782   24.3311 C.3     1  UNL1        0.0481
      8 C         -11.0118  -17.5175   23.5690 C.3     1  UNL1        0.0748
      9 C         -11.3360  -16.3057   22.7466 C.3     1  UNL1        0.0344
     10 C         -12.8220  -16.2659   22.5456 C.3     1  UNL1        0.0700
     11 N         -13.4162  -17.4531   23.2439 N.3     1  UNL1       -0.2963
     12 C         -12.2974  -18.2266   23.8764 C.3     1  UNL1        0.0847
     13 H         -13.9062  -18.0416   22.5701 H       1  UNL1        0.1233
     14 C          -9.0803  -19.2549   23.5396 C.3     1  UNL1        0.0988
     15 C          -9.0768  -19.9901   18.3958 C.3     1  UNL1        0.0307
     16 C          -8.3357  -19.6981   19.6668 C.ar    1  UNL1       -0.0260
     17 C          -6.8517  -19.4818   19.6369 C.ar    1  UNL1       -0.0046
     18 C          -6.1105  -19.1899   20.9079 C.ar    1  UNL1       -0.0006
     19 C          -6.8534  -19.1142   22.2088 C.ar    1  UNL1       -0.0032
     20 C          -8.3374  -19.3305   22.2387 C.ar    1  UNL1       -0.0104
     21 C          -9.0785  -19.6225   20.9677 C.ar    1  UNL1       -0.0284
     22 C         -10.5626  -19.8387   20.9976 C.3     1  UNL1        0.0304
@<TRIPOS>BOND
     1    15    16    1
     2    16    17   ar
     3    17    18   ar
     4    18    19   ar
     5    19    20   ar
     6    20    14    1
     7    14     1    1
     8     1     2    1
     9     2     3    1
    10     3     4    1
    11     4     5    1
    12     5     6    1
    13     6     7    1
    14     8     1    1
    15     8     9    1
    16     9    10    1
    17    10    11    1
    18    11    12    1
    19    20    21   ar
    20    21    22    1
    21    21    16   ar
    22     7     2    1
    23    12     8    1
    24    11    13    1
