@<TRIPOS>MOLECULE
*****
 37 42 0 0 0
SMALL
GASTEIGER

@<TRIPOS>ATOM
      1 C          -9.0545  -18.4754   22.0526 C.ar    1  UNL1        0.0205
      2 C          -7.9403  -19.2399   21.4013 C.ar    1  UNL1        0.0400
      3 C          -8.1050  -19.7617   20.0047 C.ar    1  UNL1        0.1577
      4 C          -9.3838  -19.5189   19.2592 C.ar    1  UNL1        0.1356
      5 N         -10.4980  -18.7544   19.9105 N.ar    1  UNL1       -0.2406
      6 C         -10.3333  -18.2326   21.3072 C.ar    1  UNL1        0.0846
      7 C          -5.6006  -14.7208   25.0133 C.3     1  UNL1        0.0540
      8 C          -6.6879  -15.4476   25.7479 C.2     1  UNL1        0.0821
      9 N          -7.0038  -15.3183   27.2086 N.2     1  UNL1       -0.1526
     10 N          -8.1612  -16.2221   27.5142 N.2     1  UNL1       -0.1523
     11 C          -8.5606  -16.9101   26.2425 C.2     1  UNL1        0.0860
     12 C          -9.6358  -17.9105   25.9375 C.3     1  UNL1        0.0736
     13 C          -9.8004  -18.4322   24.5409 C.2     1  UNL1       -0.0197
     14 C          -8.8898  -17.9535   23.4493 C.2     1  UNL1       -0.0023
     15 C          -7.8146  -16.9531   23.7542 C.2     1  UNL1        0.0022
     16 C          -7.6500  -16.4314   25.1509 C.2     1  UNL1        0.0309
     17 C         -11.4475  -17.4680   21.9584 C.ar    1  UNL1        0.0584
     18 C         -12.6291  -18.0626   22.6658 C.ar    1  UNL1        0.0453
     19 C         -13.4875  -16.9367   23.1612 C.ar    1  UNL1        0.1798
     20 O         -12.8365  -15.6462   22.7601 O.2     1  UNL1       -0.4473
     21 C         -11.5757  -15.9746   22.0167 C.ar    1  UNL1        0.1812
     22 O          -6.9908  -20.5262   19.3534 O.3     1  UNL1       -0.4724
     23 C          -6.0183  -21.2977   20.1955 C.3     1  UNL1        0.2211
     24 C          -4.6455  -20.7490   20.4488 C.3     1  UNL1        0.0995
     25 N          -3.6557  -20.6564   19.3255 N.3     1  UNL1       -0.3190
     26 H          -2.7814  -20.2634   19.6743 H       1  UNL1        0.1189
     27 H          -4.0298  -20.0551   18.5914 H       1  UNL1        0.1189
     28 C          -4.2625  -20.2927   21.8255 C.3     1  UNL1        0.0472
     29 C          -3.7778  -18.8899   22.0429 C.2     1  UNL1       -0.0005
     30 C          -4.3948  -17.8761   22.9602 C.2     1  UNL1        0.0942
     31 N          -3.5893  -16.6143   22.8655 N.2     1  UNL1       -0.2482
     32 C          -2.4744  -16.8482   21.8895 C.2     1  UNL1        0.0631
     33 C          -1.3683  -15.9624   21.3981 C.3     1  UNL1        0.0717
     34 C          -0.3785  -16.4828   20.3983 C.2     1  UNL1       -0.0198
     35 C          -0.4951  -17.8892   19.8900 C.2     1  UNL1       -0.0042
     36 C          -1.6013  -18.7751   20.3814 C.2     1  UNL1        0.0006
     37 C          -2.5909  -18.2546   21.3812 C.2     1  UNL1        0.0114
@<TRIPOS>BOND
     1     7     8    1
     2     8     9    2
     3     9    10    1
     4    10    11    2
     5    11    12    1
     6    12    13    1
     7    13    14    2
     8    14     1    1
     9     1     2   ar
    10     2     3   ar
    11     3    22    1
    12    22    23    1
    13    23    24    1
    14    24    25    1
    15    24    28    1
    16    28    29    1
    17    29    30    2
    18    30    31    1
    19    31    32    2
    20    32    33    1
    21    33    34    1
    22    34    35    2
    23    35    36    1
    24    36    37    2
    25     3     4   ar
    26     4     5   ar
    27     5     6   ar
    28     6    17    1
    29    17    18   ar
    30    18    19   ar
    31    19    20   ar
    32    20    21   ar
    33    14    15    1
    34    15    16    2
    35    16     8    1
    36    16    11    1
    37     6     1   ar
    38    21    17   ar
    39    37    29    1
    40    37    32    1
    41    25    26    1
    42    25    27    1
@<TRIPOS>MOLECULE
*****
 37 42 0 0 0
SMALL
GASTEIGER

@<TRIPOS>ATOM
      1 C          -5.8127  -17.7912   22.3899 C.ar    1  UNL1        0.0205
      2 C          -6.8458  -16.9994   23.1354 C.ar    1  UNL1        0.0400
      3 C          -6.4211  -15.9195   24.0860 C.ar    1  UNL1        0.1577
      4 C          -4.9633  -15.6315   24.2911 C.ar    1  UNL1        0.1356
      5 N          -3.9303  -16.4234   23.5455 N.ar    1  UNL1       -0.2406
      6 C          -4.3550  -17.5032   22.5949 C.ar    1  UNL1        0.0846
      7 C         -10.4370  -19.1493   18.9894 C.3     1  UNL1        0.0540
      8 C          -9.2524  -20.0693   19.0131 C.2     1  UNL1        0.0821
      9 N          -9.1111  -21.3449   18.2367 N.2     1  UNL1       -0.1526
     10 N          -7.7725  -21.9391   18.5612 N.2     1  UNL1       -0.1523
     11 C          -7.0866  -21.0307   19.5381 C.2     1  UNL1        0.0860
     12 C          -5.7474  -21.1065   20.2093 C.3     1  UNL1        0.0736
     13 C          -5.3228  -20.0267   21.1599 C.2     1  UNL1       -0.0197
     14 C          -6.2374  -18.8710   21.4392 C.2     1  UNL1       -0.0023
     15 C          -7.5766  -18.7952   20.7679 C.2     1  UNL1        0.0022
     16 C          -8.0012  -19.8751   19.8174 C.2     1  UNL1        0.0309
     17 C          -3.3219  -18.2950   21.8493 C.ar    1  UNL1        0.0584
     18 C          -2.7247  -17.9355   20.5212 C.ar    1  UNL1        0.0453
     19 C          -1.7384  -19.0037   20.1520 C.ar    1  UNL1        0.1798
     20 O          -1.7261  -20.0234   21.2521 O.2     1  UNL1       -0.4473
     21 C          -2.7048  -19.5854   22.3011 C.ar    1  UNL1        0.1812
     22 O          -7.4541  -15.1278   24.8315 O.3     1  UNL1       -0.4724
     23 C          -8.8503  -15.6584   24.9695 C.3     1  UNL1        0.2211
     24 C          -9.0862  -16.9883   25.6220 C.3     1  UNL1        0.0995
     25 N          -8.8061  -17.1661   27.0849 N.3     1  UNL1       -0.3190
     26 H          -9.0209  -18.1251   27.3581 H       1  UNL1        0.1189
     27 H          -9.3854  -16.5215   27.6228 H       1  UNL1        0.1189
     28 C          -9.6021  -18.1403   24.8117 C.3     1  UNL1        0.0472
     29 C         -10.8833  -18.0030   24.0437 C.2     1  UNL1       -0.0005
     30 C         -12.2164  -18.5608   24.4458 C.2     1  UNL1        0.0942
     31 N         -13.2133  -18.1862   23.3894 N.2     1  UNL1       -0.2482
     32 C         -12.4963  -17.3969   22.3345 C.2     1  UNL1        0.0631
     33 C         -12.9686  -16.7667   21.0579 C.3     1  UNL1        0.0717
     34 C         -12.0009  -16.0231   20.1856 C.2     1  UNL1       -0.0198
     35 C         -10.5609  -15.9099   20.5901 C.2     1  UNL1       -0.0042
     36 C         -10.0886  -16.5401   21.8667 C.2     1  UNL1        0.0006
     37 C         -11.0563  -17.2836   22.7389 C.2     1  UNL1        0.0114
@<TRIPOS>BOND
     1     7     8    1
     2     8     9    2
     3     9    10    1
     4    10    11    2
     5    11    12    1
     6    12    13    1
     7    13    14    2
     8    14     1    1
     9     1     2   ar
    10     2     3   ar
    11     3    22    1
    12    22    23    1
    13    23    24    1
    14    24    25    1
    15    24    28    1
    16    28    29    1
    17    29    30    2
    18    30    31    1
    19    31    32    2
    20    32    33    1
    21    33    34    1
    22    34    35    2
    23    35    36    1
    24    36    37    2
    25     3     4   ar
    26     4     5   ar
    27     5     6   ar
    28     6    17    1
    29    17    18   ar
    30    18    19   ar
    31    19    20   ar
    32    20    21   ar
    33    14    15    1
    34    15    16    2
    35    16     8    1
    36    16    11    1
    37     6     1   ar
    38    21    17   ar
    39    37    29    1
    40    37    32    1
    41    25    26    1
    42    25    27    1
@<TRIPOS>MOLECULE
*****
 37 42 0 0 0
SMALL
GASTEIGER

@<TRIPOS>ATOM
      1 C          -1.2171    3.4374   24.5253 C.ar    1  UNL1        0.0205
      2 C          -0.4962    2.9649   23.2977 C.ar    1  UNL1        0.0400
      3 C          -1.0930    3.1975   21.9412 C.ar    1  UNL1        0.1577
      4 C          -2.4107    3.9025   21.8125 C.ar    1  UNL1        0.1356
      5 N          -3.1316    4.3750   23.0401 N.ar    1  UNL1       -0.2406
      6 C          -2.5349    4.1424   24.3965 C.ar    1  UNL1        0.0846
      7 C          -1.3963   -0.5967   28.8247 C.3     1  UNL1        0.0540
      8 C          -0.5364    0.6198   28.9998 C.2     1  UNL1        0.0821
      9 N           0.3147    0.9333   30.1945 N.2     1  UNL1       -0.1526
     10 N           1.0004    2.2437   29.9439 N.2     1  UNL1       -0.1523
     11 C           0.5731    2.7399   28.5944 C.2     1  UNL1        0.0860
     12 C           0.9262    3.9760   27.8216 C.3     1  UNL1        0.0736
     13 C           0.3295    4.2085   26.4652 C.2     1  UNL1       -0.0197
     14 C          -0.6204    3.2049   25.8817 C.2     1  UNL1       -0.0023
     15 C          -0.9735    1.9688   26.6546 C.2     1  UNL1        0.0022
     16 C          -0.3767    1.7363   28.0109 C.2     1  UNL1        0.0309
     17 C          -3.2558    4.6149   25.6241 C.ar    1  UNL1        0.0584
     18 C          -3.0564    5.9333   26.3112 C.ar    1  UNL1        0.0453
     19 C          -3.9801    5.9851   27.4919 C.ar    1  UNL1        0.1798
     20 O          -4.7504    4.6987   27.5346 O.2     1  UNL1       -0.4473
     21 C          -4.3027    3.8519   26.3803 C.ar    1  UNL1        0.1812
     22 O          -0.3720    2.7250   20.7137 O.3     1  UNL1       -0.4724
     23 C           0.0768    1.2975   20.6103 C.3     1  UNL1        0.2211
     24 C           1.2413    0.9389   19.7355 C.3     1  UNL1        0.0995
     25 N           1.0244    0.6468   18.2803 N.3     1  UNL1       -0.3190
     26 H           1.9177    0.4233   17.8415 H       1  UNL1        0.1189
     27 H           0.6178    1.4647   17.8263 H       1  UNL1        0.1189
     28 C           2.6229    0.8724   20.3160 C.3     1  UNL1        0.0472
     29 C           3.7300    0.2178   19.5440 C.2     1  UNL1       -0.0005
     30 C           4.8527    0.9233   18.8427 C.2     1  UNL1        0.0942
     31 N           5.7254   -0.1156   18.2031 N.2     1  UNL1       -0.2482
     32 C           5.1420   -1.4633   18.5091 C.2     1  UNL1        0.0631
     33 C           5.5743   -2.8514   18.1402 C.3     1  UNL1        0.0717
     34 C           4.7735   -4.0335   18.6000 C.2     1  UNL1       -0.0198
     35 C           3.5403   -3.8274   19.4288 C.2     1  UNL1       -0.0042
     36 C           3.1080   -2.4392   19.7977 C.2     1  UNL1        0.0006
     37 C           3.9088   -1.2572   19.3378 C.2     1  UNL1        0.0114
@<TRIPOS>BOND
     1     7     8    1
     2     8     9    2
     3     9    10    1
     4    10    11    2
     5    11    12    1
     6    12    13    1
     7    13    14    2
     8    14     1    1
     9     1     2   ar
    10     2     3   ar
    11     3    22    1
    12    22    23    1
    13    23    24    1
    14    24    25    1
    15    24    28    1
    16    28    29    1
    17    29    30    2
    18    30    31    1
    19    31    32    2
    20    32    33    1
    21    33    34    1
    22    34    35    2
    23    35    36    1
    24    36    37    2
    25     3     4   ar
    26     4     5   ar
    27     5     6   ar
    28     6    17    1
    29    17    18   ar
    30    18    19   ar
    31    19    20   ar
    32    20    21   ar
    33    14    15    1
    34    15    16    2
    35    16     8    1
    36    16    11    1
    37     6     1   ar
    38    21    17   ar
    39    37    29    1
    40    37    32    1
    41    25    26    1
    42    25    27    1
@<TRIPOS>MOLECULE
*****
 37 42 0 0 0
SMALL
GASTEIGER

@<TRIPOS>ATOM
      1 C           3.3595   -0.6696   22.7499 C.ar    1  UNL1        0.0205
      2 C           2.4343   -0.4031   21.5997 C.ar    1  UNL1        0.0400
      3 C           1.2490    0.4976   21.7836 C.ar    1  UNL1        0.1577
      4 C           0.9889    1.1319   23.1178 C.ar    1  UNL1        0.1356
      5 N           1.9142    0.8654   24.2680 N.ar    1  UNL1       -0.2406
      6 C           3.0994   -0.0353   24.0841 C.ar    1  UNL1        0.0846
      7 C           8.7516   -0.4844   20.3661 C.3     1  UNL1        0.0540
      8 C           8.2864   -1.7501   21.0231 C.2     1  UNL1        0.0821
      9 N           9.0733   -3.0213   21.1442 N.2     1  UNL1       -0.1526
     10 N           8.2259   -4.0236   21.8703 N.2     1  UNL1       -0.1523
     11 C           6.9152   -3.3718   22.1981 C.2     1  UNL1        0.0860
     12 C           5.6926   -3.8762   22.9056 C.3     1  UNL1        0.0736
     13 C           4.5074   -2.9755   23.0895 C.2     1  UNL1       -0.0197
     14 C           4.5448   -1.5703   22.5659 C.2     1  UNL1       -0.0023
     15 C           5.7674   -1.0659   21.8584 C.2     1  UNL1        0.0022
     16 C           6.9526   -1.9666   21.6744 C.2     1  UNL1        0.0309
     17 C           4.0246   -0.3018   25.2343 C.ar    1  UNL1        0.0584
     18 C           3.8238   -1.3305   26.3074 C.ar    1  UNL1        0.0453
     19 C           4.9882   -1.2508   27.2496 C.ar    1  UNL1        0.1798
     20 O           5.9087   -0.1728   26.7589 O.2     1  UNL1       -0.4473
     21 C           5.3132    0.4136   25.5134 C.ar    1  UNL1        0.1812
     22 O           0.3238    0.7640   20.6334 O.3     1  UNL1       -0.4724
     23 C           0.7738    1.6292   19.4937 C.3     1  UNL1        0.2211
     24 C           2.1255    1.4168   18.8791 C.3     1  UNL1        0.0995
     25 N           3.2696    2.3109   19.2556 N.3     1  UNL1       -0.3190
     26 H           4.1061    2.0253   18.7465 H       1  UNL1        0.1189
     27 H           3.4411    2.2396   20.2585 H       1  UNL1        0.1189
     28 C           2.3331    0.3102   17.8879 C.3     1  UNL1        0.0472
     29 C           3.6505   -0.4046   17.8268 C.2     1  UNL1       -0.0005
     30 C           4.9047    0.1115   17.1860 C.2     1  UNL1        0.0942
     31 N           5.9743   -0.9258   17.3590 N.2     1  UNL1       -0.2482
     32 C           5.3811   -2.0831   18.1067 C.2     1  UNL1        0.0631
     33 C           5.9631   -3.3885   18.5615 C.3     1  UNL1        0.0717
     34 C           5.1090   -4.3719   19.3056 C.2     1  UNL1       -0.0198
     35 C           3.6729   -4.0497   19.5947 C.2     1  UNL1       -0.0042
     36 C           3.0908   -2.7442   19.1398 C.2     1  UNL1        0.0006
     37 C           3.9449   -1.7609   18.3958 C.2     1  UNL1        0.0114
@<TRIPOS>BOND
     1     7     8    1
     2     8     9    2
     3     9    10    1
     4    10    11    2
     5    11    12    1
     6    12    13    1
     7    13    14    2
     8    14     1    1
     9     1     2   ar
    10     2     3   ar
    11     3    22    1
    12    22    23    1
    13    23    24    1
    14    24    25    1
    15    24    28    1
    16    28    29    1
    17    29    30    2
    18    30    31    1
    19    31    32    2
    20    32    33    1
    21    33    34    1
    22    34    35    2
    23    35    36    1
    24    36    37    2
    25     3     4   ar
    26     4     5   ar
    27     5     6   ar
    28     6    17    1
    29    17    18   ar
    30    18    19   ar
    31    19    20   ar
    32    20    21   ar
    33    14    15    1
    34    15    16    2
    35    16     8    1
    36    16    11    1
    37     6     1   ar
    38    21    17   ar
    39    37    29    1
    40    37    32    1
    41    25    26    1
    42    25    27    1
@<TRIPOS>MOLECULE
*****
 37 42 0 0 0
SMALL
GASTEIGER

@<TRIPOS>ATOM
      1 C           4.2723    2.0287   18.2012 C.ar    1  UNL1        0.0205
      2 C           4.1608    0.5374   18.0862 C.ar    1  UNL1        0.0400
      3 C           5.2047   -0.2373   17.3377 C.ar    1  UNL1        0.1577
      4 C           6.3601    0.4795   16.7042 C.ar    1  UNL1        0.1356
      5 N           6.4716    1.9710   16.8193 N.ar    1  UNL1       -0.2406
      6 C           5.4277    2.7456   17.5678 C.ar    1  UNL1        0.0846
      7 C          -1.2702    3.8972   17.4391 C.3     1  UNL1        0.0540
      8 C          -0.5605    4.2191   18.7208 C.2     1  UNL1        0.0821
      9 N          -1.1288    4.9937   19.8728 N.2     1  UNL1       -0.1526
     10 N          -0.0774    5.0762   20.9395 N.2     1  UNL1       -0.1523
     11 C           1.1406    4.3527   20.4467 C.2     1  UNL1        0.0860
     12 C           2.4831    4.1077   21.0694 C.3     1  UNL1        0.0736
     13 C           3.5269    3.3331   20.3209 C.2     1  UNL1       -0.0197
     14 C           3.2283    2.8034   18.9497 C.2     1  UNL1       -0.0023
     15 C           1.8859    3.0483   18.3270 C.2     1  UNL1        0.0022
     16 C           0.8421    3.8229   19.0755 C.2     1  UNL1        0.0309
     17 C           5.5391    4.2370   17.6828 C.ar    1  UNL1        0.0584
     18 C           4.8009    5.2432   16.8505 C.ar    1  UNL1        0.0453
     19 C           5.2139    6.6121   17.3037 C.ar    1  UNL1        0.1798
     20 O           6.2074    6.4521   18.4161 O.2     1  UNL1       -0.4473
     21 C           6.4084    4.9842   18.6504 C.ar    1  UNL1        0.1812
     22 O           5.0932   -1.7287   17.2227 O.3     1  UNL1       -0.4724
     23 C           5.7574   -2.6110   18.2378 C.3     1  UNL1        0.2211
     24 C           4.9255   -3.3959   19.2081 C.3     1  UNL1        0.0995
     25 N           5.4566   -4.6724   19.7902 N.3     1  UNL1       -0.3190
     26 H           4.7645   -5.0704   20.4251 H       1  UNL1        0.1189
     27 H           6.3172   -4.4802   20.3027 H       1  UNL1        0.1189
     28 C           3.5625   -2.9045   19.5965 C.3     1  UNL1        0.0472
     29 C           3.4069   -1.9587   20.7503 C.2     1  UNL1       -0.0005
     30 C           4.3172   -1.8599   21.9383 C.2     1  UNL1        0.0942
     31 N           3.7865   -0.7857   22.8409 N.2     1  UNL1       -0.2482
     32 C           2.5481   -0.2206   22.2105 C.2     1  UNL1        0.0631
     33 C           1.6039    0.8603   22.6462 C.3     1  UNL1        0.0717
     34 C           0.4249    1.2164   21.7898 C.2     1  UNL1       -0.0198
     35 C           0.1904    0.4914   20.4977 C.2     1  UNL1       -0.0042
     36 C           1.1347   -0.5895   20.0621 C.2     1  UNL1        0.0006
     37 C           2.3135   -0.9456   20.9185 C.2     1  UNL1        0.0114
@<TRIPOS>BOND
     1     7     8    1
     2     8     9    2
     3     9    10    1
     4    10    11    2
     5    11    12    1
     6    12    13    1
     7    13    14    2
     8    14     1    1
     9     1     2   ar
    10     2     3   ar
    11     3    22    1
    12    22    23    1
    13    23    24    1
    14    24    25    1
    15    24    28    1
    16    28    29    1
    17    29    30    2
    18    30    31    1
    19    31    32    2
    20    32    33    1
    21    33    34    1
    22    34    35    2
    23    35    36    1
    24    36    37    2
    25     3     4   ar
    26     4     5   ar
    27     5     6   ar
    28     6    17    1
    29    17    18   ar
    30    18    19   ar
    31    19    20   ar
    32    20    21   ar
    33    14    15    1
    34    15    16    2
    35    16     8    1
    36    16    11    1
    37     6     1   ar
    38    21    17   ar
    39    37    29    1
    40    37    32    1
    41    25    26    1
    42    25    27    1
@<TRIPOS>MOLECULE
*****
 37 42 0 0 0
SMALL
GASTEIGER

@<TRIPOS>ATOM
      1 C           2.5425   -0.3088   20.1005 C.ar    1  UNL1        0.0205
      2 C           1.1860    0.0406   20.6369 C.ar    1  UNL1        0.0400
      3 C           0.3923    1.1466   20.0068 C.ar    1  UNL1        0.1577
      4 C           0.9553    1.9032   18.8404 C.ar    1  UNL1        0.1356
      5 N           2.3119    1.5538   18.3040 N.ar    1  UNL1       -0.2406
      6 C           3.1054    0.4478   18.9341 C.ar    1  UNL1        0.0846
      7 C           5.3428   -1.4370   25.1678 C.3     1  UNL1        0.0540
      8 C           5.3376   -2.4786   24.0884 C.2     1  UNL1        0.0821
      9 N           5.9918   -3.8265   24.1607 N.2     1  UNL1       -0.1526
     10 N           5.7357   -4.5361   22.8642 N.2     1  UNL1       -0.1523
     11 C           4.9233   -3.6268   21.9907 C.2     1  UNL1        0.0860
     12 C           4.3758   -3.7924   20.6040 C.3     1  UNL1        0.0736
     13 C           3.5822   -2.6864   19.9740 C.2     1  UNL1       -0.0197
     14 C           3.3361   -1.4148   20.7306 C.2     1  UNL1       -0.0023
     15 C           3.8836   -1.2492   22.1173 C.2     1  UNL1        0.0022
     16 C           4.6772   -2.3552   22.7473 C.2     1  UNL1        0.0309
     17 C           4.4620    0.0984   18.3977 C.ar    1  UNL1        0.0584
     18 C           5.7767    0.4434   19.0321 C.ar    1  UNL1        0.0453
     19 C           6.8692   -0.0992   18.1592 C.ar    1  UNL1        0.1798
     20 O           6.2297   -0.7796   16.9852 O.2     1  UNL1       -0.4473
     21 C           4.7420   -0.6575   17.1327 C.ar    1  UNL1        0.1812
     22 O          -0.9642    1.4960   20.5432 O.3     1  UNL1       -0.4724
     23 C          -1.4787    2.9000   20.4248 C.3     1  UNL1        0.2211
     24 C          -2.6488    3.3423   21.2526 C.3     1  UNL1        0.0995
     25 N          -4.0087    2.7619   20.9996 N.3     1  UNL1       -0.3190
     26 H          -4.6798    3.1726   21.6487 H       1  UNL1        0.1189
     27 H          -3.9780    1.7516   21.1364 H       1  UNL1        0.1189
     28 C          -2.4591    4.3650   22.3333 C.3     1  UNL1        0.0472
     29 C          -2.4192    3.9385   23.7709 C.2     1  UNL1       -0.0005
     30 C          -3.4212    4.3016   24.8264 C.2     1  UNL1        0.0942
     31 N          -2.9917    3.6615   26.1132 N.2     1  UNL1       -0.2482
     32 C          -1.7242    2.9026   25.8529 C.2     1  UNL1        0.0631
     33 C          -0.8465    2.0780   26.7470 C.3     1  UNL1        0.0717
     34 C           0.3851    1.4244   26.1935 C.2     1  UNL1       -0.0198
     35 C           0.7388    1.5956   24.7459 C.2     1  UNL1       -0.0042
     36 C          -0.1389    2.4204   23.8518 C.2     1  UNL1        0.0006
     37 C          -1.3704    3.0739   24.4053 C.2     1  UNL1        0.0114
@<TRIPOS>BOND
     1     7     8    1
     2     8     9    2
     3     9    10    1
     4    10    11    2
     5    11    12    1
     6    12    13    1
     7    13    14    2
     8    14     1    1
     9     1     2   ar
    10     2     3   ar
    11     3    22    1
    12    22    23    1
    13    23    24    1
    14    24    25    1
    15    24    28    1
    16    28    29    1
    17    29    30    2
    18    30    31    1
    19    31    32    2
    20    32    33    1
    21    33    34    1
    22    34    35    2
    23    35    36    1
    24    36    37    2
    25     3     4   ar
    26     4     5   ar
    27     5     6   ar
    28     6    17    1
    29    17    18   ar
    30    18    19   ar
    31    19    20   ar
    32    20    21   ar
    33    14    15    1
    34    15    16    2
    35    16     8    1
    36    16    11    1
    37     6     1   ar
    38    21    17   ar
    39    37    29    1
    40    37    32    1
    41    25    26    1
    42    25    27    1
@<TRIPOS>MOLECULE
*****
 37 42 0 0 0
SMALL
GASTEIGER

@<TRIPOS>ATOM
      1 C           1.4981    0.7985   20.3520 C.ar    1  UNL1        0.0205
      2 C           0.2134    1.2383   20.9893 C.ar    1  UNL1        0.0400
      3 C          -0.6324    2.2853   20.3271 C.ar    1  UNL1        0.1577
      4 C          -0.1935    2.8926   19.0277 C.ar    1  UNL1        0.1356
      5 N           1.0913    2.4528   18.3905 N.ar    1  UNL1       -0.2406
      6 C           1.9371    1.4058   19.0526 C.ar    1  UNL1        0.0846
      7 C           3.9964   -4.3798   19.0351 C.3     1  UNL1        0.0540
      8 C           4.1746   -3.8119   20.4120 C.2     1  UNL1        0.0821
      9 N           4.9482   -4.4418   21.5321 N.2     1  UNL1       -0.1526
     10 N           4.8622   -3.5336   22.7228 N.2     1  UNL1       -0.1523
     11 C           4.0354   -2.3424   22.3385 C.2     1  UNL1        0.0860
     12 C           3.6146   -1.1234   23.1046 C.3     1  UNL1        0.0736
     13 C           2.7688   -0.0765   22.4424 C.2     1  UNL1       -0.0197
     14 C           2.3439   -0.2485   21.0142 C.2     1  UNL1       -0.0023
     15 C           2.7647   -1.4675   20.2482 C.2     1  UNL1        0.0022
     16 C           3.6104   -2.5145   20.9103 C.2     1  UNL1        0.0309
     17 C           3.2218    0.9661   18.4154 C.ar    1  UNL1        0.0584
     18 C           4.5839    1.5266   18.6992 C.ar    1  UNL1        0.0453
     19 C           5.5739    0.7955   17.8417 C.ar    1  UNL1        0.1798
     20 O           4.8237   -0.2169   17.0278 O.2     1  UNL1       -0.4473
     21 C           3.3701   -0.1114   17.3824 C.ar    1  UNL1        0.1812
     22 O          -1.9171    2.7250   20.9644 O.3     1  UNL1       -0.4724
     23 C          -2.9505    3.4450   20.1497 C.3     1  UNL1        0.2211
     24 C          -4.4001    3.3495   20.5232 C.3     1  UNL1        0.0995
     25 N          -5.4539    3.8225   19.5661 N.3     1  UNL1       -0.3190
     26 H          -6.3759    3.6839   19.9799 H       1  UNL1        0.1189
     27 H          -5.3877    3.2914   18.6978 H       1  UNL1        0.1189
     28 C          -4.7960    2.7812   21.8537 C.3     1  UNL1        0.0472
     29 C          -5.5420    3.6302   22.8399 C.2     1  UNL1       -0.0005
     30 C          -6.8735    4.2823   22.6123 C.2     1  UNL1        0.0942
     31 N          -7.2419    5.0313   23.8586 N.2     1  UNL1       -0.2482
     32 C          -6.1381    4.8420   24.8566 C.2     1  UNL1        0.0631
     33 C          -5.9539    5.3463   26.2571 C.3     1  UNL1        0.0717
     34 C          -4.7191    4.9846   27.0282 C.2     1  UNL1       -0.0198
     35 C          -3.6685    4.1187   26.3986 C.2     1  UNL1       -0.0042
     36 C          -3.8527    3.6144   24.9979 C.2     1  UNL1        0.0006
     37 C          -5.0875    3.9761   24.2269 C.2     1  UNL1        0.0114
@<TRIPOS>BOND
     1     7     8    1
     2     8     9    2
     3     9    10    1
     4    10    11    2
     5    11    12    1
     6    12    13    1
     7    13    14    2
     8    14     1    1
     9     1     2   ar
    10     2     3   ar
    11     3    22    1
    12    22    23    1
    13    23    24    1
    14    24    25    1
    15    24    28    1
    16    28    29    1
    17    29    30    2
    18    30    31    1
    19    31    32    2
    20    32    33    1
    21    33    34    1
    22    34    35    2
    23    35    36    1
    24    36    37    2
    25     3     4   ar
    26     4     5   ar
    27     5     6   ar
    28     6    17    1
    29    17    18   ar
    30    18    19   ar
    31    19    20   ar
    32    20    21   ar
    33    14    15    1
    34    15    16    2
    35    16     8    1
    36    16    11    1
    37     6     1   ar
    38    21    17   ar
    39    37    29    1
    40    37    32    1
    41    25    26    1
    42    25    27    1
@<TRIPOS>MOLECULE
*****
 37 42 0 0 0
SMALL
GASTEIGER

@<TRIPOS>ATOM
      1 C          -1.1250    3.5404   24.6410 C.ar    1  UNL1        0.0205
      2 C          -0.3554    3.0715   23.4419 C.ar    1  UNL1        0.0400
      3 C          -0.8915    3.3188   22.0629 C.ar    1  UNL1        0.1577
      4 C          -2.1970    4.0351   21.8831 C.ar    1  UNL1        0.1356
      5 N          -2.9666    4.5041   23.0822 N.ar    1  UNL1       -0.2406
      6 C          -2.4305    4.2568   24.4611 C.ar    1  UNL1        0.0846
      7 C          -1.4373   -0.5735   28.8563 C.3     1  UNL1        0.0540
      8 C          -0.6077    0.6535   29.0932 C.2     1  UNL1        0.0821
      9 N           0.1806    0.9592   30.3322 N.2     1  UNL1       -0.1526
     10 N           0.8548    2.2849   30.1372 N.2     1  UNL1       -0.1523
     11 C           0.4832    2.7985   28.7778 C.2     1  UNL1        0.0860
     12 C           0.8510    4.0541   28.0442 C.3     1  UNL1        0.0736
     13 C           0.3150    4.3014   26.6653 C.2     1  UNL1       -0.0197
     14 C          -0.5889    3.2931   26.0200 C.2     1  UNL1       -0.0023
     15 C          -0.9568    2.0376   26.7536 C.2     1  UNL1        0.0022
     16 C          -0.4207    1.7903   28.1325 C.2     1  UNL1        0.0309
     17 C          -3.2001    4.7257   25.6603 C.ar    1  UNL1        0.0584
     18 C          -3.0261    6.0408   26.3606 C.ar    1  UNL1        0.0453
     19 C          -3.9972    6.0898   27.5028 C.ar    1  UNL1        0.1798
     20 O          -4.7714    4.8050   27.5084 O.2     1  UNL1       -0.4473
     21 C          -4.2787    3.9620   26.3697 C.ar    1  UNL1        0.1812
     22 O          -0.1219    2.8498   20.8638 O.3     1  UNL1       -0.4724
     23 C          -0.2258    1.4215   20.4176 C.3     1  UNL1        0.2211
     24 C           0.9093    0.4733   20.6672 C.3     1  UNL1        0.0995
     25 N           0.8588   -0.9196   20.1128 N.3     1  UNL1       -0.3190
     26 H           1.7064   -1.4217   20.3771 H       1  UNL1        0.1189
     27 H           0.7912   -0.8785   19.0958 H       1  UNL1        0.1189
     28 C           2.0950    0.9179   21.4713 C.3     1  UNL1        0.0472
     29 C           2.7860   -0.0493   22.3863 C.2     1  UNL1       -0.0005
     30 C           3.5330   -1.2803   21.9662 C.2     1  UNL1        0.0942
     31 N           4.0600   -1.9470   23.2022 N.2     1  UNL1       -0.2482
     32 C           3.6387   -1.1280   24.3862 C.2     1  UNL1        0.0631
     33 C           3.8703   -1.2987   25.8583 C.3     1  UNL1        0.0717
     34 C           3.3144   -0.2966   26.8262 C.2     1  UNL1       -0.0198
     35 C           2.5270    0.8763   26.3219 C.2     1  UNL1       -0.0042
     36 C           2.2955    1.0470   24.8497 C.2     1  UNL1        0.0006
     37 C           2.8513    0.0448   23.8819 C.2     1  UNL1        0.0114
@<TRIPOS>BOND
     1     7     8    1
     2     8     9    2
     3     9    10    1
     4    10    11    2
     5    11    12    1
     6    12    13    1
     7    13    14    2
     8    14     1    1
     9     1     2   ar
    10     2     3   ar
    11     3    22    1
    12    22    23    1
    13    23    24    1
    14    24    25    1
    15    24    28    1
    16    28    29    1
    17    29    30    2
    18    30    31    1
    19    31    32    2
    20    32    33    1
    21    33    34    1
    22    34    35    2
    23    35    36    1
    24    36    37    2
    25     3     4   ar
    26     4     5   ar
    27     5     6   ar
    28     6    17    1
    29    17    18   ar
    30    18    19   ar
    31    19    20   ar
    32    20    21   ar
    33    14    15    1
    34    15    16    2
    35    16     8    1
    36    16    11    1
    37     6     1   ar
    38    21    17   ar
    39    37    29    1
    40    37    32    1
    41    25    26    1
    42    25    27    1
@<TRIPOS>MOLECULE
*****
 37 42 0 0 0
SMALL
GASTEIGER

@<TRIPOS>ATOM
      1 C         -14.6131   -1.3060   18.0893 C.ar    1  UNL1        0.0205
      2 C         -13.1703   -1.6478   18.3156 C.ar    1  UNL1        0.0400
      3 C         -12.5241   -2.7404   17.5162 C.ar    1  UNL1        0.1577
      4 C         -13.3208   -3.4909   16.4906 C.ar    1  UNL1        0.1356
      5 N         -14.7638   -3.1490   16.2644 N.ar    1  UNL1       -0.2406
      6 C         -15.4099   -2.0565   17.0637 C.ar    1  UNL1        0.0846
      7 C         -14.8507    4.5870   18.1787 C.3     1  UNL1        0.0540
      8 C         -15.6187    3.8093   19.2060 C.2     1  UNL1        0.0821
      9 N         -16.4724    4.3895   20.2943 N.2     1  UNL1       -0.1526
     10 N         -17.0491    3.2536   21.0863 N.2     1  UNL1       -0.1523
     11 C         -16.5517    1.9714   20.4875 C.2     1  UNL1        0.0860
     12 C         -16.7896    0.5355   20.8502 C.3     1  UNL1        0.0736
     13 C         -16.1434   -0.5569   20.0508 C.2     1  UNL1       -0.0197
     14 C         -15.2593   -0.2134   18.8887 C.2     1  UNL1       -0.0023
     15 C         -15.0215    1.2224   18.5260 C.2     1  UNL1        0.0022
     16 C         -15.6676    2.3149   19.3254 C.2     1  UNL1        0.0309
     17 C         -16.8528   -1.7146   16.8375 C.ar    1  UNL1        0.0584
     18 C         -18.0317   -2.4361   17.4202 C.ar    1  UNL1        0.0453
     19 C         -19.2776   -1.7585   16.9317 C.ar    1  UNL1        0.1798
     20 O         -18.8687   -0.6182   16.0471 O.2     1  UNL1       -0.4473
     21 C         -17.3701   -0.5910   15.9889 C.ar    1  UNL1        0.1812
     22 O         -11.0812   -3.0822   17.7425 O.3     1  UNL1       -0.4724
     23 C         -10.5989   -4.4849   17.5190 C.3     1  UNL1        0.2211
     24 C         -10.3289   -5.3809   18.6912 C.3     1  UNL1        0.0995
     25 N          -9.2342   -5.0407   19.6588 N.3     1  UNL1       -0.3190
     26 H          -9.1914   -5.7529   20.3878 H       1  UNL1        0.1189
     27 H          -9.4244   -4.1322   20.0817 H       1  UNL1        0.1189
     28 C         -11.1535   -6.6170   18.8960 C.3     1  UNL1        0.0472
     29 C         -12.6203   -6.6005   18.5824 C.2     1  UNL1       -0.0005
     30 C         -13.3121   -7.4479   17.5561 C.2     1  UNL1        0.0942
     31 N         -14.7721   -7.1049   17.5795 N.2     1  UNL1       -0.2482
     32 C         -14.9827   -6.0454   18.6204 C.2     1  UNL1        0.0631
     33 C         -16.2136   -5.3244   19.0838 C.3     1  UNL1        0.0717
     34 C         -16.1147   -4.2915   20.1672 C.2     1  UNL1       -0.0198
     35 C         -14.7848   -3.9799   20.7870 C.2     1  UNL1       -0.0042
     36 C         -13.5538   -4.7010   20.3235 C.2     1  UNL1        0.0006
     37 C         -13.6528   -5.7338   19.2402 C.2     1  UNL1        0.0114
@<TRIPOS>BOND
     1     7     8    1
     2     8     9    2
     3     9    10    1
     4    10    11    2
     5    11    12    1
     6    12    13    1
     7    13    14    2
     8    14     1    1
     9     1     2   ar
    10     2     3   ar
    11     3    22    1
    12    22    23    1
    13    23    24    1
    14    24    25    1
    15    24    28    1
    16    28    29    1
    17    29    30    2
    18    30    31    1
    19    31    32    2
    20    32    33    1
    21    33    34    1
    22    34    35    2
    23    35    36    1
    24    36    37    2
    25     3     4   ar
    26     4     5   ar
    27     5     6   ar
    28     6    17    1
    29    17    18   ar
    30    18    19   ar
    31    19    20   ar
    32    20    21   ar
    33    14    15    1
    34    15    16    2
    35    16     8    1
    36    16    11    1
    37     6     1   ar
    38    21    17   ar
    39    37    29    1
    40    37    32    1
    41    25    26    1
    42    25    27    1
