@<TRIPOS>MOLECULE
*****
 33 37 0 0 0
SMALL
GASTEIGER

@<TRIPOS>ATOM
      1 C           0.2514    1.8811   27.0526 C.ar    1  UNL1        0.0004
      2 C          -0.8756    2.8656   26.9492 C.ar    1  UNL1        0.0031
      3 C          -1.3770    3.2927   25.6016 C.ar    1  UNL1        0.0370
      4 C          -0.7516    2.7352   24.3574 C.ar    1  UNL1        0.1415
      5 C           0.3753    1.7507   24.4608 C.ar    1  UNL1        0.0699
      6 C           0.8768    1.3236   25.8084 C.ar    1  UNL1        0.0061
      7 C           1.1339    1.0780   23.3554 C.ar    1  UNL1        0.1704
      8 N           2.2499    0.1042   23.5925 N.ar    1  UNL1       -0.1273
      9 N           2.7586   -0.3520   22.2571 N.ar    1  UNL1       -0.1127
     10 C           1.9570    0.3399   21.1948 C.ar    1  UNL1        0.2224
     11 N           0.9529    1.2237   21.8735 N.ar    1  UNL1       -0.2796
     12 C          -0.0314    2.0780   21.1310 C.3     1  UNL1        0.1574
     13 C          -1.0778    2.9977   21.6870 C.3     1  UNL1        0.2299
     14 O          -1.3983    3.2902   23.1230 O.3     1  UNL1       -0.4733
     15 C           0.9140    2.8352   32.1173 C.3     1  UNL1        0.0521
     16 C           1.0842    1.9311   30.9326 C.ar    1  UNL1        0.0594
     17 C           0.5827    2.3582   29.5850 C.ar    1  UNL1        0.0147
     18 C           0.7529    1.4540   28.4003 C.ar    1  UNL1        0.0027
     19 C           1.4246    0.1228   28.5632 C.ar    1  UNL1        0.0207
     20 C           1.9261   -0.3044   29.9107 C.ar    1  UNL1        0.0984
     21 N           1.7559    0.5998   31.0955 N.ar    1  UNL1       -0.2481
     22 N           2.1294    0.1766   19.7136 N.pl3   1  UNL1       -0.2826
     23 H           1.5508    0.6757   19.0928 H       1  UNL1        0.1551
     24 C           3.1831   -0.7471   19.1784 C.ar    1  UNL1        0.0504
     25 C           4.3280   -0.1967   18.3808 C.ar    1  UNL1        0.0147
     26 C           5.3818   -1.1205   17.8456 C.ar    1  UNL1        0.0012
     27 C           5.2905   -2.5944   18.1080 C.ar    1  UNL1        0.0039
     28 C           4.1455   -3.1449   18.9056 C.ar    1  UNL1        0.0726
     29 C           3.0918   -2.2211   19.4408 C.ar    1  UNL1        0.0185
     30 C           4.0543   -4.6188   19.1680 C.3     1  UNL1        0.4186
     31 F           3.9631   -6.0929   19.4305 F       1  UNL1       -0.1659
     32 F           5.5153   -4.6490   19.5066 F       1  UNL1       -0.1659
     33 F           2.5933   -4.5887   18.8295 F       1  UNL1       -0.1659
@<TRIPOS>BOND
     1    15    16    1
     2    16    17   ar
     3    17    18   ar
     4    18     1    1
     5     1     2   ar
     6     2     3   ar
     7     3     4   ar
     8     4     5   ar
     9     5     6   ar
    10     5     7    1
    11     7     8   ar
    12     8     9   ar
    13     9    10   ar
    14    10    22    1
    15    22    24    1
    16    24    25   ar
    17    25    26   ar
    18    26    27   ar
    19    27    28   ar
    20    28    30    1
    21    30    31    1
    22    30    32    1
    23    30    33    1
    24    28    29   ar
    25    10    11   ar
    26    11    12    1
    27    12    13    1
    28    13    14    1
    29    18    19   ar
    30    19    20   ar
    31    20    21   ar
    32    21    16   ar
    33     6     1   ar
    34    11     7   ar
    35    14     4    1
    36    29    24   ar
    37    22    23    1
@<TRIPOS>MOLECULE
*****
 33 37 0 0 0
SMALL
GASTEIGER

@<TRIPOS>ATOM
      1 C           2.4171   -0.6674   20.2642 C.ar    1  UNL1        0.0004
      2 C           2.2390   -0.2410   18.8372 C.ar    1  UNL1        0.0031
      3 C           1.4323    0.9818   18.5150 C.ar    1  UNL1        0.0370
      4 C           0.8036    1.7781   19.6198 C.ar    1  UNL1        0.1415
      5 C           0.9816    1.3517   21.0468 C.ar    1  UNL1        0.0699
      6 C           1.7884    0.1289   21.3690 C.ar    1  UNL1        0.0061
      7 C           0.4447    1.9972   22.2898 C.ar    1  UNL1        0.1704
      8 N           0.6964    1.4680   23.6706 N.ar    1  UNL1       -0.1273
      9 N           0.0043    2.3723   24.6469 N.ar    1  UNL1       -0.1127
     10 C          -0.6751    3.4604   23.8695 C.ar    1  UNL1        0.2224
     11 N          -0.4029    3.2286   22.4127 N.ar    1  UNL1       -0.2796
     12 C          -0.9230    4.1186   21.3230 C.3     1  UNL1        0.1574
     13 C          -0.7239    3.9971   19.8413 C.3     1  UNL1        0.2299
     14 O           0.0446    2.9554   19.0833 O.3     1  UNL1       -0.4733
     15 C           4.5746   -5.1554   18.7797 C.3     1  UNL1        0.0521
     16 C           4.3027   -4.1343   19.8442 C.ar    1  UNL1        0.0594
     17 C           3.4959   -2.9114   19.5220 C.ar    1  UNL1        0.0147
     18 C           3.2239   -1.8903   20.5865 C.ar    1  UNL1        0.0027
     19 C           3.7588   -2.0919   21.9733 C.ar    1  UNL1        0.0207
     20 C           4.5656   -3.3146   22.2956 C.ar    1  UNL1        0.0984
     21 N           4.8375   -4.3359   21.2311 N.ar    1  UNL1       -0.2481
     22 N          -1.4846    4.5833   24.4474 N.pl3   1  UNL1       -0.2826
     23 H          -1.0365    5.3999   24.7660 H       1  UNL1        0.1551
     24 C          -2.9768    4.4619   24.5401 C.ar    1  UNL1        0.0504
     25 C          -3.6452    4.4356   25.8826 C.ar    1  UNL1        0.0147
     26 C          -5.1375    4.3141   25.9752 C.ar    1  UNL1        0.0012
     27 C          -5.9612    4.2190   24.7253 C.ar    1  UNL1        0.0039
     28 C          -5.2928    4.2453   23.3827 C.ar    1  UNL1        0.0726
     29 C          -3.8005    4.3667   23.2901 C.ar    1  UNL1        0.0185
     30 C          -6.1164    4.1502   22.1327 C.3     1  UNL1        0.4186
     31 F          -6.9401    4.0551   20.8827 F       1  UNL1       -0.1659
     32 F          -4.8736    4.2840   21.3036 F       1  UNL1       -0.1659
     33 F          -7.3592    4.0164   22.9618 F       1  UNL1       -0.1659
@<TRIPOS>BOND
     1    15    16    1
     2    16    17   ar
     3    17    18   ar
     4    18     1    1
     5     1     2   ar
     6     2     3   ar
     7     3     4   ar
     8     4     5   ar
     9     5     6   ar
    10     5     7    1
    11     7     8   ar
    12     8     9   ar
    13     9    10   ar
    14    10    22    1
    15    22    24    1
    16    24    25   ar
    17    25    26   ar
    18    26    27   ar
    19    27    28   ar
    20    28    30    1
    21    30    31    1
    22    30    32    1
    23    30    33    1
    24    28    29   ar
    25    10    11   ar
    26    11    12    1
    27    12    13    1
    28    13    14    1
    29    18    19   ar
    30    19    20   ar
    31    20    21   ar
    32    21    16   ar
    33     6     1   ar
    34    11     7   ar
    35    14     4    1
    36    29    24   ar
    37    22    23    1
@<TRIPOS>MOLECULE
*****
 33 37 0 0 0
SMALL
GASTEIGER

@<TRIPOS>ATOM
      1 C           3.7421   -0.3456   19.6081 C.ar    1  UNL1        0.0004
      2 C           4.8009    0.3335   18.7909 C.ar    1  UNL1        0.0031
      3 C           4.5534    1.7032   18.2318 C.ar    1  UNL1        0.0370
      4 C           3.2472    2.3939   18.4901 C.ar    1  UNL1        0.1415
      5 C           2.1884    1.7149   19.3073 C.ar    1  UNL1        0.0699
      6 C           2.4359    0.3451   19.8663 C.ar    1  UNL1        0.0061
      7 C           0.8270    2.2215   19.6811 C.ar    1  UNL1        0.1704
      8 N          -0.1471    1.4386   20.5106 N.ar    1  UNL1       -0.1273
      9 N          -1.3881    2.2656   20.6722 N.ar    1  UNL1       -0.1127
     10 C          -1.1809    3.5597   19.9424 C.ar    1  UNL1        0.2224
     11 N           0.1880    3.5325   19.3299 N.ar    1  UNL1       -0.2796
     12 C           0.7527    4.6604   18.5182 C.3     1  UNL1        0.1574
     13 C           2.0958    4.7561   17.8573 C.3     1  UNL1        0.2299
     14 O           3.2060    3.7473   17.8447 O.3     1  UNL1       -0.4733
     15 C           4.4980   -5.4345   18.8791 C.3     1  UNL1        0.0521
     16 C           4.3675   -4.2599   19.8026 C.ar    1  UNL1        0.0594
     17 C           4.1201   -2.8900   19.2436 C.ar    1  UNL1        0.0147
     18 C           3.9896   -1.7154   20.1672 C.ar    1  UNL1        0.0027
     19 C           4.1065   -1.9104   21.6498 C.ar    1  UNL1        0.0207
     20 C           4.3540   -3.2801   22.2089 C.ar    1  UNL1        0.0984
     21 N           4.4845   -4.4549   21.2853 N.ar    1  UNL1       -0.2481
     22 N          -2.1693    4.6836   19.8428 N.pl3   1  UNL1       -0.2826
     23 H          -1.8542    5.6161   19.8254 H       1  UNL1        0.1551
     24 C          -3.6378    4.3868   19.7696 C.ar    1  UNL1        0.0504
     25 C          -4.2608    4.0014   18.4606 C.ar    1  UNL1        0.0147
     26 C          -5.7293    3.7045   18.3875 C.ar    1  UNL1        0.0012
     27 C          -6.5748    3.7932   19.6233 C.ar    1  UNL1        0.0039
     28 C          -5.9519    4.1786   20.9323 C.ar    1  UNL1        0.0726
     29 C          -4.4833    4.4754   21.0054 C.ar    1  UNL1        0.0185
     30 C          -6.7974    4.2673   22.1681 C.3     1  UNL1        0.4186
     31 F          -7.6428    4.3558   23.4040 F       1  UNL1       -0.1659
     32 F          -5.9256    3.2467   22.8377 F       1  UNL1       -0.1659
     33 F          -7.6692    5.2878   21.4985 F       1  UNL1       -0.1659
@<TRIPOS>BOND
     1    15    16    1
     2    16    17   ar
     3    17    18   ar
     4    18     1    1
     5     1     2   ar
     6     2     3   ar
     7     3     4   ar
     8     4     5   ar
     9     5     6   ar
    10     5     7    1
    11     7     8   ar
    12     8     9   ar
    13     9    10   ar
    14    10    22    1
    15    22    24    1
    16    24    25   ar
    17    25    26   ar
    18    26    27   ar
    19    27    28   ar
    20    28    30    1
    21    30    31    1
    22    30    32    1
    23    30    33    1
    24    28    29   ar
    25    10    11   ar
    26    11    12    1
    27    12    13    1
    28    13    14    1
    29    18    19   ar
    30    19    20   ar
    31    20    21   ar
    32    21    16   ar
    33     6     1   ar
    34    11     7   ar
    35    14     4    1
    36    29    24   ar
    37    22    23    1
@<TRIPOS>MOLECULE
*****
 33 37 0 0 0
SMALL
GASTEIGER

@<TRIPOS>ATOM
      1 C           3.0832   -0.5335   20.5490 C.ar    1  UNL1        0.0004
      2 C           3.1320   -0.6949   22.0395 C.ar    1  UNL1        0.0031
      3 C           2.2351    0.1312   22.9130 C.ar    1  UNL1        0.0370
      4 C           1.2894    1.1186   22.2960 C.ar    1  UNL1        0.1415
      5 C           1.2406    1.2800   20.8056 C.ar    1  UNL1        0.0699
      6 C           2.1375    0.4539   19.9320 C.ar    1  UNL1        0.0061
      7 C           0.3785    2.1992   19.9921 C.ar    1  UNL1        0.1704
      8 N           0.4252    2.2661   18.4943 N.ar    1  UNL1       -0.1273
      9 N          -0.5722    3.2923   18.0447 N.ar    1  UNL1       -0.1127
     10 C          -1.2353    3.8596   19.2646 C.ar    1  UNL1        0.2224
     11 N          -0.6478    3.1841   20.4682 N.ar    1  UNL1       -0.2796
     12 C          -1.0655    3.4930   21.8754 C.3     1  UNL1        0.1574
     13 C          -0.5600    2.8934   23.1540 C.3     1  UNL1        0.2299
     14 O           0.4881    1.8366   23.3412 O.3     1  UNL1       -0.4733
     15 C           4.5761   -5.1699   18.7391 C.3     1  UNL1        0.0521
     16 C           4.7266   -3.6778   18.7704 C.ar    1  UNL1        0.0594
     17 C           3.8297   -2.8517   19.6440 C.ar    1  UNL1        0.0147
     18 C           3.9802   -1.3596   19.6754 C.ar    1  UNL1        0.0027
     19 C           5.0276   -0.6936   18.8332 C.ar    1  UNL1        0.0207
     20 C           5.9245   -1.5196   17.9596 C.ar    1  UNL1        0.0984
     21 N           5.7740   -3.0118   17.9282 N.ar    1  UNL1       -0.2481
     22 N          -2.2993    4.9169   19.2785 N.pl3   1  UNL1       -0.2826
     23 H          -2.0483    5.8683   19.2447 H       1  UNL1        0.1551
     24 C          -3.7456    4.5248   19.3440 C.ar    1  UNL1        0.0504
     25 C          -4.4383    4.0065   18.1186 C.ar    1  UNL1        0.0147
     26 C          -5.8847    3.6143   18.1841 C.ar    1  UNL1        0.0012
     27 C          -6.6383    3.7406   19.4749 C.ar    1  UNL1        0.0039
     28 C          -5.9456    4.2589   20.7002 C.ar    1  UNL1        0.0726
     29 C          -4.4992    4.6510   20.6347 C.ar    1  UNL1        0.0185
     30 C          -6.6991    4.3851   21.9910 C.3     1  UNL1        0.4186
     31 F          -7.4528    4.5114   23.2818 F       1  UNL1       -0.1659
     32 F          -7.5548    5.4587   21.3865 F       1  UNL1       -0.1659
     33 F          -5.8436    3.3116   22.5956 F       1  UNL1       -0.1659
@<TRIPOS>BOND
     1    15    16    1
     2    16    17   ar
     3    17    18   ar
     4    18     1    1
     5     1     2   ar
     6     2     3   ar
     7     3     4   ar
     8     4     5   ar
     9     5     6   ar
    10     5     7    1
    11     7     8   ar
    12     8     9   ar
    13     9    10   ar
    14    10    22    1
    15    22    24    1
    16    24    25   ar
    17    25    26   ar
    18    26    27   ar
    19    27    28   ar
    20    28    30    1
    21    30    31    1
    22    30    32    1
    23    30    33    1
    24    28    29   ar
    25    10    11   ar
    26    11    12    1
    27    12    13    1
    28    13    14    1
    29    18    19   ar
    30    19    20   ar
    31    20    21   ar
    32    21    16   ar
    33     6     1   ar
    34    11     7   ar
    35    14     4    1
    36    29    24   ar
    37    22    23    1
@<TRIPOS>MOLECULE
*****
 33 37 0 0 0
SMALL
GASTEIGER

@<TRIPOS>ATOM
      1 C          -1.8729    2.8367   25.8907 C.ar    1  UNL1        0.0004
      2 C          -1.5547    2.4714   27.3102 C.ar    1  UNL1        0.0031
      3 C          -0.2625    1.7827   27.6358 C.ar    1  UNL1        0.0370
      4 C           0.7114    1.4592   26.5417 C.ar    1  UNL1        0.1415
      5 C           0.3932    1.8245   25.1222 C.ar    1  UNL1        0.0699
      6 C          -0.8990    2.5132   24.7966 C.ar    1  UNL1        0.0061
      7 C           1.2176    1.5955   23.8902 C.ar    1  UNL1        0.1704
      8 N           0.7834    2.0117   22.5161 N.ar    1  UNL1       -0.1273
      9 N           1.8613    1.6179   21.5501 N.ar    1  UNL1       -0.1127
     10 C           2.9617    0.9583   22.3273 C.ar    1  UNL1        0.2224
     11 N           2.5639    0.9444   23.7735 N.ar    1  UNL1       -0.2796
     12 C           3.4183    0.3618   24.8601 C.3     1  UNL1        0.1574
     13 C           3.1374    0.2862   26.3315 C.3     1  UNL1        0.2299
     14 O           1.9327    0.7746   27.0800 O.3     1  UNL1       -0.4733
     15 C          -5.6478    3.9516   22.4984 C.3     1  UNL1        0.0521
     16 C          -5.0525    4.0829   23.8689 C.ar    1  UNL1        0.0594
     17 C          -3.7603    3.3941   24.1945 C.ar    1  UNL1        0.0147
     18 C          -3.1651    3.5254   25.5651 C.ar    1  UNL1        0.0027
     19 C          -3.8619    4.3454   26.6100 C.ar    1  UNL1        0.0207
     20 C          -5.1540    5.0342   26.2845 C.ar    1  UNL1        0.0984
     21 N          -5.7494    4.9029   24.9139 N.ar    1  UNL1       -0.2481
     22 N           4.2363    0.4091   21.7581 N.pl3   1  UNL1       -0.2826
     23 H           5.1031    0.6902   22.1306 H       1  UNL1        0.1551
     24 C           4.1901   -0.5685   20.6214 C.ar    1  UNL1        0.0504
     25 C           4.4451   -0.1009   19.2192 C.ar    1  UNL1        0.0147
     26 C           4.3989   -1.0786   18.0825 C.ar    1  UNL1        0.0012
     27 C           4.0977   -2.5238   18.3480 C.ar    1  UNL1        0.0039
     28 C           3.8427   -2.9915   19.7503 C.ar    1  UNL1        0.0726
     29 C           3.8889   -2.0137   20.8870 C.ar    1  UNL1        0.0185
     30 C           3.5415   -4.4366   20.0158 C.3     1  UNL1        0.4186
     31 F           3.2402   -5.8819   20.2813 F       1  UNL1       -0.1659
     32 F           2.8235   -4.5284   18.7020 F       1  UNL1       -0.1659
     33 F           4.2594   -4.3449   21.3296 F       1  UNL1       -0.1659
@<TRIPOS>BOND
     1    15    16    1
     2    16    17   ar
     3    17    18   ar
     4    18     1    1
     5     1     2   ar
     6     2     3   ar
     7     3     4   ar
     8     4     5   ar
     9     5     6   ar
    10     5     7    1
    11     7     8   ar
    12     8     9   ar
    13     9    10   ar
    14    10    22    1
    15    22    24    1
    16    24    25   ar
    17    25    26   ar
    18    26    27   ar
    19    27    28   ar
    20    28    30    1
    21    30    31    1
    22    30    32    1
    23    30    33    1
    24    28    29   ar
    25    10    11   ar
    26    11    12    1
    27    12    13    1
    28    13    14    1
    29    18    19   ar
    30    19    20   ar
    31    20    21   ar
    32    21    16   ar
    33     6     1   ar
    34    11     7   ar
    35    14     4    1
    36    29    24   ar
    37    22    23    1
@<TRIPOS>MOLECULE
*****
 33 37 0 0 0
SMALL
GASTEIGER

@<TRIPOS>ATOM
      1 C           1.5095    0.3537   22.0599 C.ar    1  UNL1        0.0004
      2 C           1.1647    0.0001   20.6436 C.ar    1  UNL1        0.0031
      3 C           1.9908   -1.0070   19.8997 C.ar    1  UNL1        0.0370
      4 C           3.1616   -1.6604   20.5722 C.ar    1  UNL1        0.1415
      5 C           3.5064   -1.3068   21.9885 C.ar    1  UNL1        0.0699
      6 C           2.6803   -0.2997   22.7324 C.ar    1  UNL1        0.0061
      7 C           4.6227   -1.8358   22.8394 C.ar    1  UNL1        0.1704
      8 N           4.8628   -1.3977   24.2537 N.ar    1  UNL1       -0.1273
      9 N           6.0584   -2.1402   24.7724 N.ar    1  UNL1       -0.1127
     10 C           6.5572   -3.0373   23.6787 C.ar    1  UNL1        0.2224
     11 N           5.6699   -2.8492   22.4839 N.ar    1  UNL1       -0.2796
     12 C           5.8595   -3.5838   21.1900 C.3     1  UNL1        0.1574
     13 C           5.0487   -3.4865   19.9318 C.3     1  UNL1        0.2299
     14 O           3.8480   -2.6305   19.6569 O.3     1  UNL1       -0.4733
     15 C          -0.5987    2.0505   26.4958 C.3     1  UNL1        0.0521
     16 C          -0.3706    2.2093   25.0218 C.ar    1  UNL1        0.0594
     17 C           0.4554    1.2021   24.2779 C.ar    1  UNL1        0.0147
     18 C           0.6835    1.3609   22.8039 C.ar    1  UNL1        0.0027
     19 C           0.0855    2.5268   22.0737 C.ar    1  UNL1        0.0207
     20 C          -0.7405    3.5339   22.8176 C.ar    1  UNL1        0.0984
     21 N          -0.9686    3.3752   24.2917 N.ar    1  UNL1       -0.2481
     22 N           7.7364   -3.9605   23.7646 N.pl3   1  UNL1       -0.2826
     23 H           8.5367   -3.7891   23.2174 H       1  UNL1        0.1551
     24 C           7.6964   -5.1448   24.6843 C.ar    1  UNL1        0.0504
     25 C           8.0407   -6.5094   24.1653 C.ar    1  UNL1        0.0147
     26 C           8.0007   -7.6937   25.0850 C.ar    1  UNL1        0.0012
     27 C           7.6163   -7.5133   26.5236 C.ar    1  UNL1        0.0039
     28 C           7.2719   -6.1488   27.0426 C.ar    1  UNL1        0.0726
     29 C           7.3120   -4.9645   26.1229 C.ar    1  UNL1        0.0185
     30 C           6.8876   -5.9684   28.4812 C.3     1  UNL1        0.4186
     31 F           6.5031   -5.7880   29.9199 F       1  UNL1       -0.1659
     32 F           5.7632   -5.0658   28.0677 F       1  UNL1       -0.1659
     33 F           8.0119   -6.8710   28.8949 F       1  UNL1       -0.1659
@<TRIPOS>BOND
     1    15    16    1
     2    16    17   ar
     3    17    18   ar
     4    18     1    1
     5     1     2   ar
     6     2     3   ar
     7     3     4   ar
     8     4     5   ar
     9     5     6   ar
    10     5     7    1
    11     7     8   ar
    12     8     9   ar
    13     9    10   ar
    14    10    22    1
    15    22    24    1
    16    24    25   ar
    17    25    26   ar
    18    26    27   ar
    19    27    28   ar
    20    28    30    1
    21    30    31    1
    22    30    32    1
    23    30    33    1
    24    28    29   ar
    25    10    11   ar
    26    11    12    1
    27    12    13    1
    28    13    14    1
    29    18    19   ar
    30    19    20   ar
    31    20    21   ar
    32    21    16   ar
    33     6     1   ar
    34    11     7   ar
    35    14     4    1
    36    29    24   ar
    37    22    23    1
@<TRIPOS>MOLECULE
*****
 33 37 0 0 0
SMALL
GASTEIGER

@<TRIPOS>ATOM
      1 C          -0.6629    3.2853   24.1589 C.ar    1  UNL1        0.0004
      2 C           0.4357    3.7786   25.0532 C.ar    1  UNL1        0.0031
      3 C           1.8681    3.6283   24.6342 C.ar    1  UNL1        0.0370
      4 C           2.2020    2.9848   23.3210 C.ar    1  UNL1        0.1415
      5 C           1.1034    2.4915   22.4268 C.ar    1  UNL1        0.0699
      6 C          -0.3290    2.6418   22.8457 C.ar    1  UNL1        0.0061
      7 C           1.2156    1.8257   21.0874 C.ar    1  UNL1        0.1704
      8 N           0.0301    1.3754   20.2863 N.ar    1  UNL1       -0.1273
      9 N           0.5360    0.7602   19.0153 N.ar    1  UNL1       -0.1127
     10 C           2.0343    0.8302   19.0309 C.ar    1  UNL1        0.2224
     11 N           2.4543    1.4887   20.3114 N.ar    1  UNL1       -0.2796
     12 C           3.8866    1.7343   20.6832 C.3     1  UNL1        0.1574
     13 C           4.4340    2.3775   21.9228 C.3     1  UNL1        0.2299
     14 O           3.6842    2.9341   23.0968 O.3     1  UNL1       -0.4733
     15 C          -5.7030    3.5843   22.9306 C.3     1  UNL1        0.0521
     16 C          -4.6154    3.5850   23.9637 C.ar    1  UNL1        0.0594
     17 C          -3.1829    3.4348   23.5448 C.ar    1  UNL1        0.0147
     18 C          -2.0954    3.4355   24.5778 C.ar    1  UNL1        0.0027
     19 C          -2.4403    3.5864   26.0298 C.ar    1  UNL1        0.0207
     20 C          -3.8727    3.7366   26.4487 C.ar    1  UNL1        0.0984
     21 N          -4.9603    3.7359   25.4157 N.ar    1  UNL1       -0.2481
     22 N           2.9514    0.3295   17.9546 N.pl3   1  UNL1       -0.2826
     23 H           2.9536    0.7609   17.0697 H       1  UNL1        0.1551
     24 C           3.8653   -0.8285   18.2266 C.ar    1  UNL1        0.0504
     25 C           5.3185   -0.7378   17.8663 C.ar    1  UNL1        0.0147
     26 C           6.2323   -1.8958   18.1383 C.ar    1  UNL1        0.0012
     27 C           5.6928   -3.1444   18.7707 C.ar    1  UNL1        0.0039
     28 C           4.2396   -3.2351   19.1311 C.ar    1  UNL1        0.0726
     29 C           3.3258   -2.0771   18.8590 C.ar    1  UNL1        0.0185
     30 C           3.7002   -4.4837   19.7635 C.3     1  UNL1        0.4186
     31 F           3.1606   -5.7323   20.3958 F       1  UNL1       -0.1659
     32 F           2.7615   -4.6637   18.6073 F       1  UNL1       -0.1659
     33 F           4.6387   -4.3037   20.9196 F       1  UNL1       -0.1659
@<TRIPOS>BOND
     1    15    16    1
     2    16    17   ar
     3    17    18   ar
     4    18     1    1
     5     1     2   ar
     6     2     3   ar
     7     3     4   ar
     8     4     5   ar
     9     5     6   ar
    10     5     7    1
    11     7     8   ar
    12     8     9   ar
    13     9    10   ar
    14    10    22    1
    15    22    24    1
    16    24    25   ar
    17    25    26   ar
    18    26    27   ar
    19    27    28   ar
    20    28    30    1
    21    30    31    1
    22    30    32    1
    23    30    33    1
    24    28    29   ar
    25    10    11   ar
    26    11    12    1
    27    12    13    1
    28    13    14    1
    29    18    19   ar
    30    19    20   ar
    31    20    21   ar
    32    21    16   ar
    33     6     1   ar
    34    11     7   ar
    35    14     4    1
    36    29    24   ar
    37    22    23    1
@<TRIPOS>MOLECULE
*****
 33 37 0 0 0
SMALL
GASTEIGER

@<TRIPOS>ATOM
      1 C          -1.4632    2.7868   26.1212 C.ar    1  UNL1        0.0004
      2 C          -1.2047    2.6958   27.5959 C.ar    1  UNL1        0.0031
      3 C          -0.0153    1.9356   28.1033 C.ar    1  UNL1        0.0370
      4 C           0.9155    1.2665   27.1360 C.ar    1  UNL1        0.1415
      5 C           0.6570    1.3575   25.6613 C.ar    1  UNL1        0.0699
      6 C          -0.5323    2.1177   25.1539 C.ar    1  UNL1        0.0061
      7 C           1.4529    0.7691   24.5342 C.ar    1  UNL1        0.1704
      8 N           1.0857    0.9337   23.0892 N.ar    1  UNL1       -0.1273
      9 N           2.1097    0.2107   22.2654 N.ar    1  UNL1       -0.1127
     10 C           3.1098   -0.4008   23.2013 C.ar    1  UNL1        0.2224
     11 N           2.7039   -0.0557   24.6035 N.ar    1  UNL1       -0.2796
     12 C           3.4679   -0.4958   25.8170 C.3     1  UNL1        0.1574
     13 C           3.1697   -0.2198   27.2609 C.3     1  UNL1        0.2299
     14 O           2.0338    0.5646   27.8479 O.3     1  UNL1       -0.4733
     15 C          -5.7514    5.5727   27.0434 C.3     1  UNL1        0.0521
     16 C          -4.7967    4.9400   26.0748 C.ar    1  UNL1        0.0594
     17 C          -3.6073    4.1798   26.5823 C.ar    1  UNL1        0.0147
     18 C          -2.6526    3.5470   25.6138 C.ar    1  UNL1        0.0027
     19 C          -2.8873    3.6744   24.1377 C.ar    1  UNL1        0.0207
     20 C          -4.0766    4.4346   23.6302 C.ar    1  UNL1        0.0984
     21 N          -5.0314    5.0674   24.5988 N.ar    1  UNL1       -0.2481
     22 N           4.3058   -1.2146   22.8046 N.pl3   1  UNL1       -0.2826
     23 H           5.1013   -1.2353   23.3843 H       1  UNL1        0.1551
     24 C           4.2899   -1.9967   21.5247 C.ar    1  UNL1        0.0504
     25 C           4.2958   -3.4962   21.5620 C.ar    1  UNL1        0.0147
     26 C           4.2799   -4.2783   20.2821 C.ar    1  UNL1        0.0012
     27 C           4.2580   -3.5608   18.9650 C.ar    1  UNL1        0.0039
     28 C           4.2521   -2.0613   18.9277 C.ar    1  UNL1        0.0726
     29 C           4.2680   -1.2792   20.2077 C.ar    1  UNL1        0.0185
     30 C           4.2303   -1.3438   17.6107 C.3     1  UNL1        0.4186
     31 F           4.2083   -0.6263   16.2936 F       1  UNL1       -0.1659
     32 F           2.9281   -0.6992   17.9835 F       1  UNL1       -0.1659
     33 F           5.5323   -1.9884   17.2378 F       1  UNL1       -0.1659
@<TRIPOS>BOND
     1    15    16    1
     2    16    17   ar
     3    17    18   ar
     4    18     1    1
     5     1     2   ar
     6     2     3   ar
     7     3     4   ar
     8     4     5   ar
     9     5     6   ar
    10     5     7    1
    11     7     8   ar
    12     8     9   ar
    13     9    10   ar
    14    10    22    1
    15    22    24    1
    16    24    25   ar
    17    25    26   ar
    18    26    27   ar
    19    27    28   ar
    20    28    30    1
    21    30    31    1
    22    30    32    1
    23    30    33    1
    24    28    29   ar
    25    10    11   ar
    26    11    12    1
    27    12    13    1
    28    13    14    1
    29    18    19   ar
    30    19    20   ar
    31    20    21   ar
    32    21    16   ar
    33     6     1   ar
    34    11     7   ar
    35    14     4    1
    36    29    24   ar
    37    22    23    1
@<TRIPOS>MOLECULE
*****
 33 37 0 0 0
SMALL
GASTEIGER

@<TRIPOS>ATOM
      1 C           7.9288   -5.1531   23.0838 C.ar    1  UNL1        0.0004
      2 C           8.6656   -6.4428   22.8749 C.ar    1  UNL1        0.0031
      3 C           8.9752   -7.3277   24.0458 C.ar    1  UNL1        0.0370
      4 C           8.5481   -6.9229   25.4255 C.ar    1  UNL1        0.1415
      5 C           7.8112   -5.6332   25.6344 C.ar    1  UNL1        0.0699
      6 C           7.5016   -4.7483   24.4635 C.ar    1  UNL1        0.0061
      7 C           7.2988   -5.0457   26.9158 C.ar    1  UNL1        0.1704
      8 N           6.5710   -3.7363   26.9919 N.ar    1  UNL1       -0.1273
      9 N           6.2190   -3.4843   28.4281 N.ar    1  UNL1       -0.1127
     10 C           6.7293   -4.6379   29.2396 C.ar    1  UNL1        0.2224
     11 N           7.3966   -5.6030   28.3051 N.ar    1  UNL1       -0.2796
     12 C           8.0310   -6.8853   28.7559 C.3     1  UNL1        0.1574
     13 C           8.7243   -7.9270   27.9289 C.3     1  UNL1        0.2299
     14 O           8.9544   -7.9438   26.4467 O.3     1  UNL1       -0.4733
     15 C           4.4977   -2.4502   20.2690 C.3     1  UNL1        0.0521
     16 C           5.9036   -2.9167   20.5055 C.ar    1  UNL1        0.0594
     17 C           6.2132   -3.8017   21.6764 C.ar    1  UNL1        0.0147
     18 C           7.6191   -4.2681   21.9128 C.ar    1  UNL1        0.0027
     19 C           8.7153   -3.8497   20.9784 C.ar    1  UNL1        0.0207
     20 C           8.4057   -2.9647   19.8075 C.ar    1  UNL1        0.0984
     21 N           6.9998   -2.4982   19.5710 N.ar    1  UNL1       -0.2481
     22 N           6.5957   -4.7983   30.7251 N.pl3   1  UNL1       -0.2826
     23 H           6.2800   -5.6515   31.1016 H       1  UNL1        0.1551
     24 C           6.9429   -3.6590   31.6368 C.ar    1  UNL1        0.0504
     25 C           8.3774   -3.2688   31.8367 C.ar    1  UNL1        0.0147
     26 C           8.7246   -2.1293   32.7485 C.ar    1  UNL1        0.0012
     27 C           7.6373   -1.3803   33.4602 C.ar    1  UNL1        0.0039
     28 C           6.2028   -1.7705   33.2603 C.ar    1  UNL1        0.0726
     29 C           5.8556   -2.9099   32.3486 C.ar    1  UNL1        0.0185
     30 C           5.1156   -1.0214   33.9721 C.3     1  UNL1        0.4186
     31 F           4.0283   -0.2722   34.6839 F       1  UNL1       -0.1659
     32 F           5.9581    0.2196   33.9531 F       1  UNL1       -0.1659
     33 F           4.2731   -2.2622   33.9912 F       1  UNL1       -0.1659
@<TRIPOS>BOND
     1    15    16    1
     2    16    17   ar
     3    17    18   ar
     4    18     1    1
     5     1     2   ar
     6     2     3   ar
     7     3     4   ar
     8     4     5   ar
     9     5     6   ar
    10     5     7    1
    11     7     8   ar
    12     8     9   ar
    13     9    10   ar
    14    10    22    1
    15    22    24    1
    16    24    25   ar
    17    25    26   ar
    18    26    27   ar
    19    27    28   ar
    20    28    30    1
    21    30    31    1
    22    30    32    1
    23    30    33    1
    24    28    29   ar
    25    10    11   ar
    26    11    12    1
    27    12    13    1
    28    13    14    1
    29    18    19   ar
    30    19    20   ar
    31    20    21   ar
    32    21    16   ar
    33     6     1   ar
    34    11     7   ar
    35    14     4    1
    36    29    24   ar
    37    22    23    1
