@<TRIPOS>MOLECULE
*****
 31 35 0 0 0
SMALL
GASTEIGER

@<TRIPOS>ATOM
      1 O           8.4522   -6.2311   21.8674 O.2     1  UNL1       -0.2638
      2 C           7.7763   -5.2317   22.7588 C.2     1  UNL1        0.3160
      3 N           7.8137   -5.4088   24.2478 N.am    1  UNL1       -0.1720
      4 C           7.1378   -4.4094   25.1392 C.ar    1  UNL1        0.0775
      5 C           7.1751   -4.5865   26.6282 C.ar    1  UNL1        0.0167
      6 C           6.4992   -3.5871   27.5194 C.ar    1  UNL1        0.0013
      7 C           5.7860   -2.4107   26.9217 C.ar    1  UNL1        0.0002
      8 C           5.7487   -2.2336   25.4327 C.ar    1  UNL1        0.0051
      9 C           6.4245   -3.2329   24.5414 C.ar    1  UNL1        0.0623
     10 C           6.3872   -3.0559   23.0523 C.2     1  UNL1        0.2419
     11 N           5.7662   -2.0038   22.1820 N.2     1  UNL1       -0.0302
     12 C           6.0583   -2.3530   20.7527 C.2     1  UNL1        0.3765
     13 N           6.8598   -3.6208   20.7398 N.2     1  UNL1       -0.0256
     14 C           7.0631   -4.0552   22.1611 C.2     1  UNL1        0.2907
     15 C           5.6250   -1.5715   19.5479 C.ar    1  UNL1        0.1028
     16 C           6.3094   -0.2817   19.2045 C.ar    1  UNL1        0.0650
     17 CL          7.4273    0.2266   20.0659 Cl      1  UNL1       -0.0820
     18 C           5.8760    0.4997   17.9998 C.ar    1  UNL1        0.0116
     19 C           4.7582   -0.0087   17.1384 C.ar    1  UNL1        0.0008
     20 C           4.0737   -1.2984   17.4817 C.ar    1  UNL1        0.0042
     21 C           4.5071   -2.0799   18.6865 C.ar    1  UNL1        0.0797
     22 C           3.8227   -3.3697   19.0299 C.3     1  UNL1        0.4188
     23 F           3.1383   -4.6595   19.3733 F       1  UNL1       -0.1659
     24 F           4.8444   -4.1244   18.2320 F       1  UNL1       -0.1659
     25 F           2.8009   -2.6152   19.8278 F       1  UNL1       -0.1659
     26 C           6.5366   -3.7642   29.0085 C.ar    1  UNL1        0.0000
     27 C           6.2011   -2.6126   29.9094 C.ar    1  UNL1        0.0000
     28 C           6.2384   -2.7896   31.3984 C.ar    1  UNL1        0.0000
     29 C           6.6112   -4.1182   31.9867 C.ar    1  UNL1        0.0000
     30 C           6.9466   -5.2697   31.0859 C.ar    1  UNL1        0.0000
     31 C           6.9093   -5.0927   29.5968 C.ar    1  UNL1        0.0000
@<TRIPOS>BOND
     1     1     2    2
     2     2     3    1
     3     3     4    2
     4     4     5   ar
     5     5     6   ar
     6     6    26    1
     7    26    27   ar
     8    27    28   ar
     9    28    29   ar
    10    29    30   ar
    11    30    31   ar
    12     6     7   ar
    13     7     8   ar
    14     8     9   ar
    15     9    10    2
    16    10    11    1
    17    11    12    2
    18    12    15    1
    19    15    16   ar
    20    16    17    1
    21    16    18   ar
    22    18    19   ar
    23    19    20   ar
    24    20    21   ar
    25    21    22    1
    26    22    23    1
    27    22    24    1
    28    22    25    1
    29    12    13    1
    30    13    14    2
    31    14     2    1
    32     9     4   ar
    33    14    10    1
    34    31    26   ar
    35    21    15   ar
@<TRIPOS>MOLECULE
*****
 31 35 0 0 0
SMALL
GASTEIGER

@<TRIPOS>ATOM
      1 O          -1.0286    3.4271   23.0689 O.2     1  UNL1       -0.2638
      2 C           0.0203    2.3926   23.3513 C.2     1  UNL1        0.3160
      3 N           0.6286    1.6139   22.2228 N.am    1  UNL1       -0.1720
      4 C           1.6776    0.5794   22.5052 C.ar    1  UNL1        0.0775
      5 C           2.2859   -0.1994   21.3768 C.ar    1  UNL1        0.0167
      6 C           3.3348   -1.2338   21.6592 C.ar    1  UNL1        0.0013
      7 C           3.7753   -1.4894   23.0701 C.ar    1  UNL1        0.0002
      8 C           3.1670   -0.7107   24.1985 C.ar    1  UNL1        0.0051
      9 C           2.1181    0.3237   23.9161 C.ar    1  UNL1        0.0623
     10 C           1.5098    1.1026   25.0446 C.2     1  UNL1        0.2419
     11 N           1.7418    1.0701   26.5261 N.2     1  UNL1       -0.0302
     12 C           0.8363    2.0845   27.1594 C.2     1  UNL1        0.3765
     13 N           0.0447    2.7439   26.0692 N.2     1  UNL1       -0.0256
     14 C           0.4609    2.1370   24.7621 C.2     1  UNL1        0.2907
     15 C           0.7394    2.3866   28.6255 C.ar    1  UNL1        0.1028
     16 C           1.3764    3.6264   29.1795 C.ar    1  UNL1        0.0650
     17 CL          2.1103    4.5643   28.2675 Cl      1  UNL1       -0.0820
     18 C           1.2796    3.9284   30.6456 C.ar    1  UNL1        0.0116
     19 C           0.5457    2.9905   31.5576 C.ar    1  UNL1        0.0008
     20 C          -0.0913    1.7507   31.0036 C.ar    1  UNL1        0.0042
     21 C           0.0056    1.4487   29.5376 C.ar    1  UNL1        0.0797
     22 C          -0.6314    0.2088   28.9835 C.3     1  UNL1        0.4188
     23 F          -1.2685   -1.0310   28.4294 F       1  UNL1       -0.1659
     24 F          -1.8724    0.9888   28.6646 F       1  UNL1       -0.1659
     25 F           0.6094   -0.5713   29.3023 F       1  UNL1       -0.1659
     26 C           3.9431   -2.0126   20.5307 C.ar    1  UNL1        0.0000
     27 C           4.1889   -1.3489   19.2082 C.ar    1  UNL1        0.0000
     28 C           4.7972   -2.1277   18.0798 C.ar    1  UNL1        0.0000
     29 C           5.1599   -3.5702   18.2738 C.ar    1  UNL1        0.0000
     30 C           4.9141   -4.2340   19.5963 C.ar    1  UNL1        0.0000
     31 C           4.3057   -3.4551   20.7248 C.ar    1  UNL1        0.0000
@<TRIPOS>BOND
     1     1     2    2
     2     2     3    1
     3     3     4    2
     4     4     5   ar
     5     5     6   ar
     6     6    26    1
     7    26    27   ar
     8    27    28   ar
     9    28    29   ar
    10    29    30   ar
    11    30    31   ar
    12     6     7   ar
    13     7     8   ar
    14     8     9   ar
    15     9    10    2
    16    10    11    1
    17    11    12    2
    18    12    15    1
    19    15    16   ar
    20    16    17    1
    21    16    18   ar
    22    18    19   ar
    23    19    20   ar
    24    20    21   ar
    25    21    22    1
    26    22    23    1
    27    22    24    1
    28    22    25    1
    29    12    13    1
    30    13    14    2
    31    14     2    1
    32     9     4   ar
    33    14    10    1
    34    31    26   ar
    35    21    15   ar
@<TRIPOS>MOLECULE
*****
 31 35 0 0 0
SMALL
GASTEIGER

@<TRIPOS>ATOM
      1 O           0.1487    5.9837   18.1965 O.2     1  UNL1       -0.2638
      2 C           0.1527    4.5777   18.7194 C.2     1  UNL1        0.3160
      3 N           1.3043    3.6668   18.4128 N.am    1  UNL1       -0.1720
      4 C           1.3083    2.2608   18.9356 C.ar    1  UNL1        0.0775
      5 C           2.4599    1.3499   18.6290 C.ar    1  UNL1        0.0167
      6 C           2.4638   -0.0560   19.1519 C.ar    1  UNL1        0.0013
      7 C           1.3163   -0.5510   19.9814 C.ar    1  UNL1        0.0002
      8 C           0.1647    0.3600   20.2880 C.ar    1  UNL1        0.0051
      9 C           0.1607    1.7658   19.7651 C.ar    1  UNL1        0.0623
     10 C          -0.9909    2.6769   20.0718 C.2     1  UNL1        0.2419
     11 N          -2.2520    2.4708   20.8572 N.2     1  UNL1       -0.0302
     12 C          -3.0355    3.7494   20.8198 C.2     1  UNL1        0.3765
     13 N          -2.2585    4.7456   20.0112 N.2     1  UNL1       -0.0256
     14 C          -0.9949    4.0827   19.5489 C.2     1  UNL1        0.2907
     15 C          -4.3630    3.9895   21.4758 C.ar    1  UNL1        0.1028
     16 C          -4.4779    3.9551   22.9709 C.ar    1  UNL1        0.0650
     17 CL         -3.2653    3.6804   23.8102 Cl      1  UNL1       -0.0820
     18 C          -5.8053    4.1952   23.6268 C.ar    1  UNL1        0.0116
     19 C          -7.0178    4.4698   22.7876 C.ar    1  UNL1        0.0008
     20 C          -6.9029    4.5043   21.2924 C.ar    1  UNL1        0.0042
     21 C          -5.5755    4.2642   20.6365 C.ar    1  UNL1        0.0797
     22 C          -5.4606    4.2987   19.1413 C.3     1  UNL1        0.4188
     23 F          -5.3457    4.3331   17.6461 F       1  UNL1       -0.1659
     24 F          -5.7884    2.8361   19.0823 F       1  UNL1       -0.1659
     25 F          -5.1327    5.7612   19.2001 F       1  UNL1       -0.1659
     26 C           3.6154   -0.9670   18.8452 C.ar    1  UNL1        0.0000
     27 C           3.5446   -2.4177   19.2202 C.ar    1  UNL1        0.0000
     28 C           4.6961   -3.3287   18.9136 C.ar    1  UNL1        0.0000
     29 C           5.9186   -2.7890   18.2320 C.ar    1  UNL1        0.0000
     30 C           5.9894   -1.3384   17.8570 C.ar    1  UNL1        0.0000
     31 C           4.8378   -0.4274   18.1636 C.ar    1  UNL1        0.0000
@<TRIPOS>BOND
     1     1     2    2
     2     2     3    1
     3     3     4    2
     4     4     5   ar
     5     5     6   ar
     6     6    26    1
     7    26    27   ar
     8    27    28   ar
     9    28    29   ar
    10    29    30   ar
    11    30    31   ar
    12     6     7   ar
    13     7     8   ar
    14     8     9   ar
    15     9    10    2
    16    10    11    1
    17    11    12    2
    18    12    15    1
    19    15    16   ar
    20    16    17    1
    21    16    18   ar
    22    18    19   ar
    23    19    20   ar
    24    20    21   ar
    25    21    22    1
    26    22    23    1
    27    22    24    1
    28    22    25    1
    29    12    13    1
    30    13    14    2
    31    14     2    1
    32     9     4   ar
    33    14    10    1
    34    31    26   ar
    35    21    15   ar
@<TRIPOS>MOLECULE
*****
 31 35 0 0 0
SMALL
GASTEIGER

@<TRIPOS>ATOM
      1 O           0.2175    5.7047   17.8318 O.2     1  UNL1       -0.2638
      2 C           0.2313    4.3552   18.4866 C.2     1  UNL1        0.3160
      3 N           1.3436    3.3918   18.1957 N.am    1  UNL1       -0.1720
      4 C           1.3575    2.0423   18.8506 C.ar    1  UNL1        0.0775
      5 C           2.4698    1.0789   18.5597 C.ar    1  UNL1        0.0167
      6 C           2.4836   -0.2705   19.2145 C.ar    1  UNL1        0.0013
      7 C           1.3851   -0.6566   20.1602 C.ar    1  UNL1        0.0002
      8 C           0.2728    0.3068   20.4511 C.ar    1  UNL1        0.0051
      9 C           0.2590    1.6562   19.7962 C.ar    1  UNL1        0.0623
     10 C          -0.8534    2.6197   20.0871 C.2     1  UNL1        0.2419
     11 N          -2.0630    2.5197   20.9684 N.2     1  UNL1       -0.0302
     12 C          -2.8244    3.8074   20.8583 C.2     1  UNL1        0.3765
     13 N          -2.0854    4.7032   19.9089 N.2     1  UNL1       -0.0256
     14 C          -0.8672    3.9691   19.4323 C.2     1  UNL1        0.2907
     15 C          -4.1009    4.1407   21.5722 C.ar    1  UNL1        0.1028
     16 C          -5.4135    4.0241   20.8557 C.ar    1  UNL1        0.0650
     17 CL         -5.4497    3.5742   19.4252 Cl      1  UNL1       -0.0820
     18 C          -6.6898    4.3574   21.5696 C.ar    1  UNL1        0.0116
     19 C          -6.6536    4.8074   23.0001 C.ar    1  UNL1        0.0008
     20 C          -5.3410    4.9240   23.7166 C.ar    1  UNL1        0.0042
     21 C          -4.0646    4.5906   23.0027 C.ar    1  UNL1        0.0797
     22 C          -2.7519    4.7072   23.7192 C.3     1  UNL1        0.4188
     23 F          -1.4393    4.8237   24.4357 F       1  UNL1       -0.1659
     24 F          -2.8891    3.2931   24.2006 F       1  UNL1       -0.1659
     25 F          -2.6147    6.1212   23.2379 F       1  UNL1       -0.1659
     26 C           3.5959   -1.2340   18.9237 C.ar    1  UNL1        0.0000
     27 C           3.5060   -2.6512   19.4068 C.ar    1  UNL1        0.0000
     28 C           4.6183   -3.6147   19.1160 C.ar    1  UNL1        0.0000
     29 C           5.8205   -3.1609   18.3420 C.ar    1  UNL1        0.0000
     30 C           5.9103   -1.7437   17.8589 C.ar    1  UNL1        0.0000
     31 C           4.7980   -0.7802   18.1498 C.ar    1  UNL1        0.0000
@<TRIPOS>BOND
     1     1     2    2
     2     2     3    1
     3     3     4    2
     4     4     5   ar
     5     5     6   ar
     6     6    26    1
     7    26    27   ar
     8    27    28   ar
     9    28    29   ar
    10    29    30   ar
    11    30    31   ar
    12     6     7   ar
    13     7     8   ar
    14     8     9   ar
    15     9    10    2
    16    10    11    1
    17    11    12    2
    18    12    15    1
    19    15    16   ar
    20    16    17    1
    21    16    18   ar
    22    18    19   ar
    23    19    20   ar
    24    20    21   ar
    25    21    22    1
    26    22    23    1
    27    22    24    1
    28    22    25    1
    29    12    13    1
    30    13    14    2
    31    14     2    1
    32     9     4   ar
    33    14    10    1
    34    31    26   ar
    35    21    15   ar
@<TRIPOS>MOLECULE
*****
 31 35 0 0 0
SMALL
GASTEIGER

@<TRIPOS>ATOM
      1 O           1.0957    4.1470   24.7033 O.2     1  UNL1       -0.2638
      2 C           0.8948    3.1883   23.5673 C.2     1  UNL1        0.3160
      3 N           1.8926    2.0952   23.3230 N.am    1  UNL1       -0.1720
      4 C           1.6917    1.1365   22.1870 C.ar    1  UNL1        0.0775
      5 C           2.6894    0.0434   21.9427 C.ar    1  UNL1        0.0167
      6 C           2.4884   -0.9153   20.8067 C.ar    1  UNL1        0.0013
      7 C           1.2897   -0.7809   19.9150 C.ar    1  UNL1        0.0002
      8 C           0.2920    0.3121   20.1593 C.ar    1  UNL1        0.0051
      9 C           0.4930    1.2708   21.2953 C.ar    1  UNL1        0.0623
     10 C          -0.5048    2.3639   21.5397 C.2     1  UNL1        0.2419
     11 N          -1.7729    2.7415   20.8332 N.2     1  UNL1       -0.0302
     12 C          -2.3558    3.9337   21.5325 C.2     1  UNL1        0.3765
     13 N          -1.4478    4.2928   22.6712 N.2     1  UNL1       -0.0256
     14 C          -0.3039    3.3226   22.6756 C.2     1  UNL1        0.2907
     15 C          -3.6239    4.6424   21.1587 C.ar    1  UNL1        0.1028
     16 C          -3.6763    5.4809   19.9161 C.ar    1  UNL1        0.0650
     17 CL         -2.4605    5.6108   19.0472 Cl      1  UNL1       -0.0820
     18 C          -4.9444    6.1895   19.5424 C.ar    1  UNL1        0.0116
     19 C          -6.1602    6.0595   20.4113 C.ar    1  UNL1        0.0008
     20 C          -6.1079    5.2210   21.6539 C.ar    1  UNL1        0.0042
     21 C          -4.8397    4.5124   22.0276 C.ar    1  UNL1        0.0797
     22 C          -4.7874    3.6739   23.2703 C.3     1  UNL1        0.4188
     23 F          -4.7350    2.8353   24.5129 F       1  UNL1       -0.1659
     24 F          -5.0883    2.4499   22.4570 F       1  UNL1       -0.1659
     25 F          -4.4864    4.8978   24.0836 F       1  UNL1       -0.1659
     26 C           3.4862   -2.0084   20.5624 C.ar    1  UNL1        0.0000
     27 C           4.4350   -2.4148   21.6508 C.ar    1  UNL1        0.0000
     28 C           5.4327   -3.5079   21.4065 C.ar    1  UNL1        0.0000
     29 C           5.4817   -4.1945   20.0737 C.ar    1  UNL1        0.0000
     30 C           4.5330   -3.7881   18.9853 C.ar    1  UNL1        0.0000
     31 C           3.5352   -2.6950   19.2297 C.ar    1  UNL1        0.0000
@<TRIPOS>BOND
     1     1     2    2
     2     2     3    1
     3     3     4    2
     4     4     5   ar
     5     5     6   ar
     6     6    26    1
     7    26    27   ar
     8    27    28   ar
     9    28    29   ar
    10    29    30   ar
    11    30    31   ar
    12     6     7   ar
    13     7     8   ar
    14     8     9   ar
    15     9    10    2
    16    10    11    1
    17    11    12    2
    18    12    15    1
    19    15    16   ar
    20    16    17    1
    21    16    18   ar
    22    18    19   ar
    23    19    20   ar
    24    20    21   ar
    25    21    22    1
    26    22    23    1
    27    22    24    1
    28    22    25    1
    29    12    13    1
    30    13    14    2
    31    14     2    1
    32     9     4   ar
    33    14    10    1
    34    31    26   ar
    35    21    15   ar
@<TRIPOS>MOLECULE
*****
 31 35 0 0 0
SMALL
GASTEIGER

@<TRIPOS>ATOM
      1 O         -12.1856    2.7040   16.3264 O.2     1  UNL1       -0.2638
      2 C         -12.7066    1.5541   17.1367 C.2     1  UNL1        0.3160
      3 N         -11.9568    0.2554   17.1642 N.am    1  UNL1       -0.1720
      4 C         -12.4778   -0.8945   17.9744 C.ar    1  UNL1        0.0775
      5 C         -11.7280   -2.1933   18.0020 C.ar    1  UNL1        0.0167
      6 C         -12.2491   -3.3431   18.8122 C.ar    1  UNL1        0.0013
      7 C         -13.5200   -3.1941   19.5948 C.ar    1  UNL1        0.0002
      8 C         -14.2699   -1.8953   19.5672 C.ar    1  UNL1        0.0051
      9 C         -13.7488   -0.7455   18.7570 C.ar    1  UNL1        0.0623
     10 C         -14.4987    0.5534   18.7295 C.2     1  UNL1        0.2419
     11 N         -15.7693    0.9930   19.3944 N.2     1  UNL1       -0.0302
     12 C         -16.0335    2.4146   18.9952 C.2     1  UNL1        0.3765
     13 N         -14.9262    2.8534   18.0835 N.2     1  UNL1       -0.0256
     14 C         -13.9776    1.7031   17.9193 C.2     1  UNL1        0.2907
     15 C         -17.2003    3.2505   19.4311 C.ar    1  UNL1        0.1028
     16 C         -18.5066    3.1541   18.7003 C.ar    1  UNL1        0.0650
     17 CL        -18.6462    2.2219   17.5335 Cl      1  UNL1       -0.0820
     18 C         -19.6733    3.9900   19.1363 C.ar    1  UNL1        0.0116
     19 C         -19.5336    4.9222   20.3031 C.ar    1  UNL1        0.0008
     20 C         -18.2273    5.0186   21.0339 C.ar    1  UNL1        0.0042
     21 C         -17.0606    4.1827   20.5979 C.ar    1  UNL1        0.0797
     22 C         -15.7542    4.2790   21.3288 C.3     1  UNL1        0.4188
     23 F         -14.4478    4.3754   22.0596 F       1  UNL1       -0.1659
     24 F         -15.2865    5.3202   20.3555 F       1  UNL1       -0.1659
     25 F         -16.2219    3.2379   22.3020 F       1  UNL1       -0.1659
     26 C         -11.4992   -4.6420   18.8398 C.ar    1  UNL1        0.0000
     27 C         -10.0139   -4.6461   19.0492 C.ar    1  UNL1        0.0000
     28 C          -9.2640   -5.9449   19.0768 C.ar    1  UNL1        0.0000
     29 C          -9.9994   -7.2396   18.8950 C.ar    1  UNL1        0.0000
     30 C         -11.4847   -7.2354   18.6855 C.ar    1  UNL1        0.0000
     31 C         -12.2346   -5.9366   18.6579 C.ar    1  UNL1        0.0000
@<TRIPOS>BOND
     1     1     2    2
     2     2     3    1
     3     3     4    2
     4     4     5   ar
     5     5     6   ar
     6     6    26    1
     7    26    27   ar
     8    27    28   ar
     9    28    29   ar
    10    29    30   ar
    11    30    31   ar
    12     6     7   ar
    13     7     8   ar
    14     8     9   ar
    15     9    10    2
    16    10    11    1
    17    11    12    2
    18    12    15    1
    19    15    16   ar
    20    16    17    1
    21    16    18   ar
    22    18    19   ar
    23    19    20   ar
    24    20    21   ar
    25    21    22    1
    26    22    23    1
    27    22    24    1
    28    22    25    1
    29    12    13    1
    30    13    14    2
    31    14     2    1
    32     9     4   ar
    33    14    10    1
    34    31    26   ar
    35    21    15   ar
@<TRIPOS>MOLECULE
*****
 31 35 0 0 0
SMALL
GASTEIGER

@<TRIPOS>ATOM
      1 O           0.6635    3.7100   25.0126 O.2     1  UNL1       -0.2638
      2 C           0.6133    2.8531   23.7824 C.2     1  UNL1        0.3160
      3 N           1.6817    1.8292   23.5374 N.am    1  UNL1       -0.1720
      4 C           1.6315    0.9723   22.3072 C.ar    1  UNL1        0.0775
      5 C           2.6999   -0.0516   22.0623 C.ar    1  UNL1        0.0167
      6 C           2.6497   -0.9084   20.8321 C.ar    1  UNL1        0.0013
      7 C           1.5310   -0.7413   19.8469 C.ar    1  UNL1        0.0002
      8 C           0.4626    0.2826   20.0919 C.ar    1  UNL1        0.0051
      9 C           0.5128    1.1394   21.3220 C.ar    1  UNL1        0.0623
     10 C          -0.5556    2.1634   21.5670 C.2     1  UNL1        0.2419
     11 N          -1.7720    2.5526   20.7804 N.2     1  UNL1       -0.0302
     12 C          -2.4736    3.6500   21.5244 C.2     1  UNL1        0.3765
     13 N          -1.6908    3.9390   22.7708 N.2     1  UNL1       -0.0256
     14 C          -0.5054    3.0202   22.7972 C.2     1  UNL1        0.2907
     15 C          -3.7364    4.3376   21.0970 C.ar    1  UNL1        0.1028
     16 C          -5.0379    3.9953   21.7594 C.ar    1  UNL1        0.0650
     17 CL         -5.0768    2.9654   22.8493 Cl      1  UNL1       -0.0820
     18 C          -6.3006    4.6830   21.3320 C.ar    1  UNL1        0.0116
     19 C          -6.2618    5.7129   20.2421 C.ar    1  UNL1        0.0008
     20 C          -4.9602    6.0552   19.5797 C.ar    1  UNL1        0.0042
     21 C          -3.6976    5.3676   20.0072 C.ar    1  UNL1        0.0797
     22 C          -2.3959    5.7098   19.3447 C.3     1  UNL1        0.4188
     23 F          -1.0944    6.0520   18.6823 F       1  UNL1       -0.1659
     24 F          -2.6560    4.6692   18.2961 F       1  UNL1       -0.1659
     25 F          -2.1359    6.7504   20.3933 F       1  UNL1       -0.1659
     26 C           3.7181   -1.9323   20.5871 C.ar    1  UNL1        0.0000
     27 C           4.2880   -2.7111   21.7355 C.ar    1  UNL1        0.0000
     28 C           5.3564   -3.7350   21.4906 C.ar    1  UNL1        0.0000
     29 C           5.8550   -3.9802   20.0972 C.ar    1  UNL1        0.0000
     30 C           5.2851   -3.2015   18.9488 C.ar    1  UNL1        0.0000
     31 C           4.2166   -2.1775   19.1938 C.ar    1  UNL1        0.0000
@<TRIPOS>BOND
     1     1     2    2
     2     2     3    1
     3     3     4    2
     4     4     5   ar
     5     5     6   ar
     6     6    26    1
     7    26    27   ar
     8    27    28   ar
     9    28    29   ar
    10    29    30   ar
    11    30    31   ar
    12     6     7   ar
    13     7     8   ar
    14     8     9   ar
    15     9    10    2
    16    10    11    1
    17    11    12    2
    18    12    15    1
    19    15    16   ar
    20    16    17    1
    21    16    18   ar
    22    18    19   ar
    23    19    20   ar
    24    20    21   ar
    25    21    22    1
    26    22    23    1
    27    22    24    1
    28    22    25    1
    29    12    13    1
    30    13    14    2
    31    14     2    1
    32     9     4   ar
    33    14    10    1
    34    31    26   ar
    35    21    15   ar
@<TRIPOS>MOLECULE
*****
 31 35 0 0 0
SMALL
GASTEIGER

@<TRIPOS>ATOM
      1 O          -1.3243    3.5938   23.5974 O.2     1  UNL1       -0.2638
      2 C          -0.7602    2.9705   22.3550 C.2     1  UNL1        0.3160
      3 N           0.2234    1.8431   22.4616 N.am    1  UNL1       -0.1720
      4 C           0.7874    1.2199   21.2192 C.ar    1  UNL1        0.0775
      5 C           1.7710    0.0924   21.3257 C.ar    1  UNL1        0.0167
      6 C           2.3350   -0.5307   20.0834 C.ar    1  UNL1        0.0013
      7 C           1.9154   -0.0265   18.7344 C.ar    1  UNL1        0.0002
      8 C           0.9318    1.1010   18.6278 C.ar    1  UNL1        0.0051
      9 C           0.3678    1.7242   19.8702 C.ar    1  UNL1        0.0623
     10 C          -0.6158    2.8517   19.7637 C.2     1  UNL1        0.2419
     11 N          -1.2119    3.5550   18.5805 N.2     1  UNL1       -0.0302
     12 C          -2.1444    4.6129   19.0917 C.2     1  UNL1        0.3765
     13 N          -2.1246    4.5634   20.5907 N.2     1  UNL1       -0.0256
     14 C          -1.1798    3.4748   21.0060 C.2     1  UNL1        0.2907
     15 C          -2.9546    5.5550   18.2513 C.ar    1  UNL1        0.1028
     16 C          -2.3092    6.7688   17.6511 C.ar    1  UNL1        0.0650
     17 CL         -0.8537    7.0405   17.8913 Cl      1  UNL1       -0.0820
     18 C          -3.1193    7.7108   16.8108 C.ar    1  UNL1        0.0116
     19 C          -4.5748    7.4391   16.5706 C.ar    1  UNL1        0.0008
     20 C          -5.2202    6.2253   17.1708 C.ar    1  UNL1        0.0042
     21 C          -4.4101    5.2833   18.0112 C.ar    1  UNL1        0.0797
     22 C          -5.0554    4.0695   18.6114 C.3     1  UNL1        0.4188
     23 F          -5.7008    2.8558   19.2116 F       1  UNL1       -0.1659
     24 F          -5.4598    4.8768   19.8093 F       1  UNL1       -0.1659
     25 F          -4.6511    3.2622   17.4136 F       1  UNL1       -0.1659
     26 C           3.3186   -1.6582   20.1899 C.ar    1  UNL1        0.0000
     27 C           3.7241   -2.4183   18.9619 C.ar    1  UNL1        0.0000
     28 C           4.7077   -3.5457   19.0684 C.ar    1  UNL1        0.0000
     29 C           5.2858   -3.9132   20.4029 C.ar    1  UNL1        0.0000
     30 C           4.8803   -3.1531   21.6309 C.ar    1  UNL1        0.0000
     31 C           3.8967   -2.0256   21.5244 C.ar    1  UNL1        0.0000
@<TRIPOS>BOND
     1     1     2    2
     2     2     3    1
     3     3     4    2
     4     4     5   ar
     5     5     6   ar
     6     6    26    1
     7    26    27   ar
     8    27    28   ar
     9    28    29   ar
    10    29    30   ar
    11    30    31   ar
    12     6     7   ar
    13     7     8   ar
    14     8     9   ar
    15     9    10    2
    16    10    11    1
    17    11    12    2
    18    12    15    1
    19    15    16   ar
    20    16    17    1
    21    16    18   ar
    22    18    19   ar
    23    19    20   ar
    24    20    21   ar
    25    21    22    1
    26    22    23    1
    27    22    24    1
    28    22    25    1
    29    12    13    1
    30    13    14    2
    31    14     2    1
    32     9     4   ar
    33    14    10    1
    34    31    26   ar
    35    21    15   ar
@<TRIPOS>MOLECULE
*****
 31 35 0 0 0
SMALL
GASTEIGER

@<TRIPOS>ATOM
      1 O           7.8145   -0.1887   26.6123 O.2     1  UNL1       -0.2638
      2 C           7.0514   -1.0105   25.6161 C.2     1  UNL1        0.3160
      3 N           6.1980   -0.3354   24.5837 N.am    1  UNL1       -0.1720
      4 C           5.4348   -1.1571   23.5875 C.ar    1  UNL1        0.0775
      5 C           4.5814   -0.4821   22.5551 C.ar    1  UNL1        0.0167
      6 C           3.8183   -1.3038   21.5590 C.ar    1  UNL1        0.0013
      7 C           3.9086   -2.8007   21.5952 C.ar    1  UNL1        0.0002
      8 C           4.7620   -3.4757   22.6276 C.ar    1  UNL1        0.0051
      9 C           5.5251   -2.6540   23.6238 C.ar    1  UNL1        0.0623
     10 C           6.3786   -3.3291   24.6563 C.2     1  UNL1        0.2419
     11 N           6.6609   -4.7756   24.9352 N.2     1  UNL1       -0.0302
     12 C           7.5986   -4.8478   26.1038 C.2     1  UNL1        0.3765
     13 N           7.8957   -3.4459   26.5470 N.2     1  UNL1       -0.0256
     14 C           7.1417   -2.5073   25.6524 C.2     1  UNL1        0.2907
     15 C           8.1435   -6.1018   26.7208 C.ar    1  UNL1        0.1028
     16 C           8.8620   -7.1058   25.8690 C.ar    1  UNL1        0.0650
     17 CL          9.0357   -6.8559   24.4002 Cl      1  UNL1       -0.0820
     18 C           9.4068   -8.3598   26.4861 C.ar    1  UNL1        0.0116
     19 C           9.2331   -8.6097   27.9549 C.ar    1  UNL1        0.0008
     20 C           8.5145   -7.6057   28.8066 C.ar    1  UNL1        0.0042
     21 C           7.9697   -6.3517   28.1896 C.ar    1  UNL1        0.0797
     22 C           7.2511   -5.3476   29.0414 C.3     1  UNL1        0.4188
     23 F           6.5326   -4.3435   29.8931 F       1  UNL1       -0.1659
     24 F           8.5603   -4.9066   29.6260 F       1  UNL1       -0.1659
     25 F           5.9420   -5.7885   28.4568 F       1  UNL1       -0.1659
     26 C           2.9648   -0.6288   20.5265 C.ar    1  UNL1        0.0000
     27 C           3.5833   -0.1204   19.2580 C.ar    1  UNL1        0.0000
     28 C           2.7299    0.5546   18.2255 C.ar    1  UNL1        0.0000
     29 C           1.2580    0.7214   18.4615 C.ar    1  UNL1        0.0000
     30 C           0.6395    0.2130   19.7300 C.ar    1  UNL1        0.0000
     31 C           1.4929   -0.4620   20.7625 C.ar    1  UNL1        0.0000
@<TRIPOS>BOND
     1     1     2    2
     2     2     3    1
     3     3     4    2
     4     4     5   ar
     5     5     6   ar
     6     6    26    1
     7    26    27   ar
     8    27    28   ar
     9    28    29   ar
    10    29    30   ar
    11    30    31   ar
    12     6     7   ar
    13     7     8   ar
    14     8     9   ar
    15     9    10    2
    16    10    11    1
    17    11    12    2
    18    12    15    1
    19    15    16   ar
    20    16    17    1
    21    16    18   ar
    22    18    19   ar
    23    19    20   ar
    24    20    21   ar
    25    21    22    1
    26    22    23    1
    27    22    24    1
    28    22    25    1
    29    12    13    1
    30    13    14    2
    31    14     2    1
    32     9     4   ar
    33    14    10    1
    34    31    26   ar
    35    21    15   ar
