@<TRIPOS>MOLECULE
*****
 42 45 0 0 0
SMALL
GASTEIGER

@<TRIPOS>ATOM
      1 C           2.5334   -0.2299   22.1022 C.2     1  UNL1        0.0706
      2 C           1.9133    0.3653   23.3315 C.2     1  UNL1        0.0283
      3 C           0.6822    1.2144   23.2146 C.3     1  UNL1        0.0470
      4 N           2.5243    0.1116   24.6777 N.pl3   1  UNL1       -0.3193
      5 C           3.7554   -0.7374   24.7946 C.2     1  UNL1        0.0264
      6 C           4.3664   -0.9912   26.1408 C.3     1  UNL1        0.0470
      7 C           4.3754   -1.3326   23.5653 C.2     1  UNL1        0.0485
      8 C           3.7644   -1.0789   22.2191 C.3     1  UNL1        0.0795
      9 H           2.1174    0.5023   25.4846 H       1  UNL1        0.1516
     10 C           4.3845   -1.6742   20.9898 C.ar    1  UNL1       -0.0078
     11 C           3.9703   -3.0395   20.5269 C.ar    1  UNL1       -0.0032
     12 C           4.5904   -3.6348   19.2976 C.ar    1  UNL1        0.0060
     13 C           5.6246   -2.8647   18.5312 C.ar    1  UNL1        0.0752
     14 C           6.0388   -1.4994   18.9941 C.ar    1  UNL1        0.2898
     15 C           5.4187   -0.9041   20.2234 C.ar    1  UNL1        0.0716
     16 N           7.0730   -0.7293   18.2277 N.pl3   1  UNL1        0.0809
     17 O           8.3800   -0.3793   18.8752 O.2     1  UNL1        0.0415
     18 O           6.8002   -0.3092   16.8138 O.co2   1  UNL1       -0.5760
     19 C           5.6065   -2.1817   23.6822 C.2     1  UNL1        0.2434
     20 O           6.9574   -1.5836   23.4227 O.2     1  UNL1       -0.2704
     21 N           5.4866   -3.6287   24.0585 N.am    1  UNL1       -0.3010
     22 H           4.6000   -4.0212   24.2288 H       1  UNL1        0.1497
     23 C           6.7176   -4.4778   24.1754 C.3     1  UNL1        0.0911
     24 C           7.0430   -5.1521   25.4752 C.3     1  UNL1        0.0370
     25 C           7.8389   -6.4129   25.6394 C.3     1  UNL1        0.0204
     26 C           7.9174   -6.7240   27.1046 C.3     1  UNL1        0.0722
     27 N           7.1702   -5.6555   27.8461 N.3     1  UNL1       -0.2723
     28 C           6.6298   -4.6840   26.8390 C.3     1  UNL1        0.0738
     29 C           6.9942   -5.5729   29.3334 C.3     1  UNL1        0.0768
     30 C           7.5397   -4.3976   30.0891 C.3     1  UNL1        0.0437
     31 C           6.6032   -3.4372   30.7604 C.ar    1  UNL1       -0.0199
     32 C           6.2211   -3.6421   32.1963 C.ar    1  UNL1       -0.0033
     33 C           5.2845   -2.6816   32.8675 C.ar    1  UNL1        0.0119
     34 C           4.7301   -1.5164   32.1028 C.ar    1  UNL1        0.0682
     35 CL          3.7936   -0.5560   32.7740 Cl      1  UNL1       -0.0814
     36 C           5.1122   -1.3115   30.6668 C.ar    1  UNL1        0.0679
     37 CL          4.5579   -0.1463   29.9020 Cl      1  UNL1       -0.0814
     38 C           6.0488   -2.2720   29.9955 C.ar    1  UNL1        0.0080
     39 C           1.9223    0.0239   20.7560 C.2     1  UNL1        0.3388
     40 O           0.9444   -0.9565   20.1794 O.2     1  UNL1       -0.2452
     41 C           2.7899    1.1419   18.5772 C.3     1  UNL1        0.2559
     42 O           2.2893    1.2579   19.9864 O.3     1  UNL1       -0.4415
@<TRIPOS>UNITY_ATOM_ATTR
16 1
charge 1
18 1
charge -1
@<TRIPOS>BOND
     1    41    42    1
     2    42    39    1
     3    39    40    2
     4    39     1    1
     5     1     2    2
     6     2     3    1
     7     2     4    1
     8     4     5    1
     9     5     6    1
    10     5     7    2
    11     7    19    1
    12    19    20    2
    13    19    21   am
    14    21    23    1
    15    24    23    1
    16    24    25    1
    17    25    26    1
    18    26    27    1
    19    27    29    1
    20    29    30    1
    21    30    31    1
    22    31    32   ar
    23    32    33   ar
    24    33    34   ar
    25    34    35    1
    26    34    36   ar
    27    36    37    1
    28    36    38   ar
    29    27    28    1
    30     7     8    1
    31     8    10    1
    32    10    11   ar
    33    11    12   ar
    34    12    13   ar
    35    13    14   ar
    36    14    16    1
    37    16    17    2
    38    16    18    1
    39    14    15   ar
    40     8     1    1
    41    15    10   ar
    42    28    24    1
    43    38    31   ar
    44     4     9    1
    45    21    22    1
@<TRIPOS>MOLECULE
*****
 42 45 0 0 0
SMALL
GASTEIGER

@<TRIPOS>ATOM
      1 C           5.3748   -1.6361   31.1115 C.2     1  UNL1        0.0706
      2 C           5.4058   -2.5223   32.3213 C.2     1  UNL1        0.0283
      3 C           4.8190   -2.0442   33.6164 C.3     1  UNL1        0.0470
      4 N           6.0237   -3.8865   32.2362 N.pl3   1  UNL1       -0.3193
      5 C           6.6104   -4.3646   30.9412 C.2     1  UNL1        0.0264
      6 C           7.2283   -5.7288   30.8560 C.3     1  UNL1        0.0470
      7 C           6.5794   -3.4784   29.7313 C.2     1  UNL1        0.0485
      8 C           5.9616   -2.1142   29.8165 C.3     1  UNL1        0.0795
      9 H           6.0440   -4.4681   33.0302 H       1  UNL1        0.1516
     10 C           5.9306   -1.2280   28.6066 C.ar    1  UNL1       -0.0078
     11 C           7.1239   -0.3869   28.2623 C.ar    1  UNL1       -0.0032
     12 C           7.0930    0.4992   27.0524 C.ar    1  UNL1        0.0060
     13 C           5.8687    0.5442   26.1868 C.ar    1  UNL1        0.0752
     14 C           4.6754   -0.2969   26.5311 C.ar    1  UNL1        0.2898
     15 C           4.7064   -1.1831   27.7410 C.ar    1  UNL1        0.0716
     16 N           3.4512   -0.2520   25.6656 N.pl3   1  UNL1        0.0809
     17 O           3.4031   -1.0440   24.3926 O.2     1  UNL1        0.0415
     18 O           2.2750    0.5851   26.0730 O.co2   1  UNL1       -0.5760
     19 C           7.1663   -3.9565   28.4362 C.2     1  UNL1        0.2434
     20 O           8.5949   -3.6464   28.1004 O.2     1  UNL1       -0.2704
     21 N           6.3244   -4.7446   27.4770 N.am    1  UNL1       -0.3010
     22 H           5.3867   -4.9481   27.6974 H       1  UNL1        0.1497
     23 C           6.9111   -5.2226   26.1820 C.3     1  UNL1        0.0911
     24 C           6.8843   -4.3346   24.9733 C.3     1  UNL1        0.0370
     25 C           6.6283   -2.8567   24.9706 C.3     1  UNL1        0.0204
     26 C           6.6945   -2.3773   23.5508 C.3     1  UNL1        0.0722
     27 N           6.9914   -3.5591   22.6760 N.3     1  UNL1       -0.2723
     28 C           7.1087   -4.7687   23.5552 C.3     1  UNL1        0.0738
     29 C           7.1442   -3.5354   21.1840 C.3     1  UNL1        0.0768
     30 C           5.9887   -3.9139   20.3056 C.3     1  UNL1        0.0437
     31 C           4.9694   -2.8827   19.9213 C.ar    1  UNL1       -0.0199
     32 C           3.9883   -2.3821   20.9395 C.ar    1  UNL1       -0.0033
     33 C           2.9689   -1.3509   20.5551 C.ar    1  UNL1        0.0119
     34 C           2.9309   -0.8203   19.1526 C.ar    1  UNL1        0.0682
     35 CL          1.9116    0.2109   18.7684 Cl      1  UNL1       -0.0814
     36 C           3.9120   -1.3208   18.1344 C.ar    1  UNL1        0.0679
     37 CL          3.8740   -0.7902   16.7320 Cl      1  UNL1       -0.0814
     38 C           4.9314   -2.3521   18.5188 C.ar    1  UNL1        0.0080
     39 C           4.7570   -0.2719   31.1967 C.2     1  UNL1        0.3388
     40 O           3.2874   -0.0975   30.9520 O.2     1  UNL1       -0.2452
     41 C           7.0350    0.7252   31.9494 C.3     1  UNL1        0.2559
     42 O           5.6088    0.9179   31.5265 O.3     1  UNL1       -0.4415
@<TRIPOS>UNITY_ATOM_ATTR
16 1
charge 1
18 1
charge -1
@<TRIPOS>BOND
     1    41    42    1
     2    42    39    1
     3    39    40    2
     4    39     1    1
     5     1     2    2
     6     2     3    1
     7     2     4    1
     8     4     5    1
     9     5     6    1
    10     5     7    2
    11     7    19    1
    12    19    20    2
    13    19    21   am
    14    21    23    1
    15    24    23    1
    16    24    25    1
    17    25    26    1
    18    26    27    1
    19    27    29    1
    20    29    30    1
    21    30    31    1
    22    31    32   ar
    23    32    33   ar
    24    33    34   ar
    25    34    35    1
    26    34    36   ar
    27    36    37    1
    28    36    38   ar
    29    27    28    1
    30     7     8    1
    31     8    10    1
    32    10    11   ar
    33    11    12   ar
    34    12    13   ar
    35    13    14   ar
    36    14    16    1
    37    16    17    2
    38    16    18    1
    39    14    15   ar
    40     8     1    1
    41    15    10   ar
    42    28    24    1
    43    38    31   ar
    44     4     9    1
    45    21    22    1
@<TRIPOS>MOLECULE
*****
 42 45 0 0 0
SMALL
GASTEIGER

@<TRIPOS>ATOM
      1 C           5.7888   -1.7347   30.9737 C.2     1  UNL1        0.0706
      2 C           5.7038   -2.4104   32.3102 C.2     1  UNL1        0.0283
      3 C           5.1629   -1.6652   33.4944 C.3     1  UNL1        0.0470
      4 N           6.1597   -3.8313   32.4626 N.pl3   1  UNL1       -0.3193
      5 C           6.7007   -4.5765   31.2785 C.2     1  UNL1        0.0264
      6 C           7.1566   -5.9974   31.4309 C.3     1  UNL1        0.0470
      7 C           6.7856   -3.9008   29.9420 C.2     1  UNL1        0.0485
      8 C           6.3297   -2.4799   29.7897 C.3     1  UNL1        0.0795
      9 H           6.1040   -4.2748   33.3397 H       1  UNL1        0.1516
     10 C           6.4147   -1.8042   28.4531 C.ar    1  UNL1       -0.0078
     11 C           7.6947   -1.1511   28.0229 C.ar    1  UNL1       -0.0032
     12 C           7.7797   -0.4754   26.6865 C.ar    1  UNL1        0.0060
     13 C           6.5847   -0.4528   25.7801 C.ar    1  UNL1        0.0752
     14 C           5.3047   -1.1059   26.2103 C.ar    1  UNL1        0.2898
     15 C           5.2197   -1.7816   27.5468 C.ar    1  UNL1        0.0716
     16 N           4.1097   -1.0833   25.3039 N.pl3   1  UNL1        0.0809
     17 O           2.9612   -0.1650   25.5999 O.2     1  UNL1        0.0415
     18 O           4.0632   -1.9790   24.1017 O.co2   1  UNL1       -0.5760
     19 C           7.3266   -4.6459   28.7579 C.2     1  UNL1        0.2434
     20 O           8.7703   -4.5028   28.3772 O.2     1  UNL1       -0.2704
     21 N           6.4236   -5.5343   27.9544 N.am    1  UNL1       -0.3010
     22 H           5.4760   -5.6283   28.2042 H       1  UNL1        0.1497
     23 C           6.9645   -6.2794   26.7703 C.3     1  UNL1        0.0911
     24 C           7.1494   -5.5729   25.4601 C.3     1  UNL1        0.0370
     25 C           6.6854   -4.1843   25.1340 C.3     1  UNL1        0.0204
     26 C           7.0800   -3.8841   23.7183 C.3     1  UNL1        0.0722
     27 N           7.7879   -5.0873   23.1694 N.3     1  UNL1       -0.2723
     28 C           7.8308   -6.1310   24.2459 C.3     1  UNL1        0.0738
     29 C           8.3537   -5.2230   21.7868 C.3     1  UNL1        0.0768
     30 C           8.6530   -3.9974   20.9753 C.3     1  UNL1        0.0437
     31 C           7.5897   -3.3961   20.1048 C.ar    1  UNL1       -0.0199
     32 C           7.9299   -2.2692   19.1753 C.ar    1  UNL1       -0.0033
     33 C           6.8665   -1.6679   18.3048 C.ar    1  UNL1        0.0119
     34 C           5.4629   -2.1936   18.3638 C.ar    1  UNL1        0.0682
     35 CL          4.3996   -1.5923   17.4933 Cl      1  UNL1       -0.0814
     36 C           5.1226   -3.3207   19.2934 C.ar    1  UNL1        0.0679
     37 CL          3.7191   -3.8464   19.3524 Cl      1  UNL1       -0.0814
     38 C           6.1861   -3.9220   20.1639 C.ar    1  UNL1        0.0080
     39 C           5.3328   -0.3138   30.8213 C.2     1  UNL1        0.3388
     40 O           6.2438    0.8121   31.2115 O.2     1  UNL1       -0.2452
     41 C           2.7717   -0.7503   30.8165 C.3     1  UNL1        0.2559
     42 O           3.9658   -0.0189   30.2788 O.3     1  UNL1       -0.4415
@<TRIPOS>UNITY_ATOM_ATTR
16 1
charge 1
18 1
charge -1
@<TRIPOS>BOND
     1    41    42    1
     2    42    39    1
     3    39    40    2
     4    39     1    1
     5     1     2    2
     6     2     3    1
     7     2     4    1
     8     4     5    1
     9     5     6    1
    10     5     7    2
    11     7    19    1
    12    19    20    2
    13    19    21   am
    14    21    23    1
    15    24    23    1
    16    24    25    1
    17    25    26    1
    18    26    27    1
    19    27    29    1
    20    29    30    1
    21    30    31    1
    22    31    32   ar
    23    32    33   ar
    24    33    34   ar
    25    34    35    1
    26    34    36   ar
    27    36    37    1
    28    36    38   ar
    29    27    28    1
    30     7     8    1
    31     8    10    1
    32    10    11   ar
    33    11    12   ar
    34    12    13   ar
    35    13    14   ar
    36    14    16    1
    37    16    17    2
    38    16    18    1
    39    14    15   ar
    40     8     1    1
    41    15    10   ar
    42    28    24    1
    43    38    31   ar
    44     4     9    1
    45    21    22    1
@<TRIPOS>MOLECULE
*****
 42 45 0 0 0
SMALL
GASTEIGER

@<TRIPOS>ATOM
      1 C           4.1025   -1.4810   23.3704 C.2     1  UNL1        0.0706
      2 C           3.5310   -0.9196   24.6385 C.2     1  UNL1        0.0283
      3 C           4.0925   -1.3395   25.9647 C.3     1  UNL1        0.0470
      4 N           2.3979    0.0616   24.5806 N.pl3   1  UNL1       -0.3193
      5 C           1.8364    0.4814   23.2546 C.2     1  UNL1        0.0264
      6 C           0.7033    1.4626   23.1967 C.3     1  UNL1        0.0470
      7 C           2.4079   -0.0799   21.9865 C.2     1  UNL1        0.0485
      8 C           3.5410   -1.0611   22.0444 C.3     1  UNL1        0.0795
      9 H           2.0227    0.4300   25.4130 H       1  UNL1        0.1516
     10 C           4.1126   -1.6225   20.7762 C.ar    1  UNL1       -0.0078
     11 C           3.5506   -2.8860   20.1951 C.ar    1  UNL1       -0.0032
     12 C           4.1221   -3.4474   18.9270 C.ar    1  UNL1        0.0060
     13 C           5.2557   -2.7452   18.2399 C.ar    1  UNL1        0.0752
     14 C           5.8177   -1.4817   18.8210 C.ar    1  UNL1        0.2898
     15 C           5.2461   -0.9203   20.0892 C.ar    1  UNL1        0.0716
     16 N           6.9512   -0.7795   18.1339 N.pl3   1  UNL1        0.0809
     17 O           6.7631   -0.2249   16.7530 O.2     1  UNL1        0.0415
     18 O           8.2728   -0.6319   18.8278 O.co2   1  UNL1       -0.5760
     19 C           1.8464    0.3399   20.6604 C.2     1  UNL1        0.2434
     20 O           0.6879   -0.4052   20.0666 O.2     1  UNL1       -0.2704
     21 N           2.4435    1.5049   19.9281 N.am    1  UNL1       -0.3010
     22 H           3.2038    1.9940   20.3178 H       1  UNL1        0.1497
     23 C           1.8820    1.9248   18.6020 C.3     1  UNL1        0.0911
     24 C           0.8673    3.0273   18.5324 C.3     1  UNL1        0.0370
     25 C           1.0801    4.3847   17.9304 C.3     1  UNL1        0.0204
     26 C          -0.1940    5.1623   18.0784 C.3     1  UNL1        0.0722
     27 N          -1.1943    4.2856   18.7719 N.3     1  UNL1       -0.2723
     28 C          -0.5383    2.9661   19.0524 C.3     1  UNL1        0.0738
     29 C          -2.6031    4.6622   19.1231 C.3     1  UNL1        0.0768
     30 C          -3.5307    3.6369   19.7048 C.3     1  UNL1        0.0437
     31 C          -3.8262    3.6413   21.1754 C.ar    1  UNL1       -0.0199
     32 C          -5.2474    3.6460   21.6548 C.ar    1  UNL1       -0.0033
     33 C          -5.5428    3.6503   23.1255 C.ar    1  UNL1        0.0119
     34 C          -4.4169    3.6500   24.1166 C.ar    1  UNL1        0.0682
     35 CL         -4.7124    3.6544   25.5872 Cl      1  UNL1       -0.0814
     36 C          -2.9956    3.6454   23.6372 C.ar    1  UNL1        0.0679
     37 CL         -1.8698    3.6451   24.6283 Cl      1  UNL1       -0.0814
     38 C          -2.7002    3.6410   22.1665 C.ar    1  UNL1        0.0080
     39 C           5.2356   -2.4622   23.4283 C.2     1  UNL1        0.3388
     40 O           4.9840   -3.9155   23.1553 O.2     1  UNL1       -0.2452
     41 C           7.0762   -0.6321   23.3143 C.3     1  UNL1        0.2559
     42 O           6.6204   -1.9901   23.7593 O.3     1  UNL1       -0.4415
@<TRIPOS>UNITY_ATOM_ATTR
16 1
charge 1
18 1
charge -1
@<TRIPOS>BOND
     1    41    42    1
     2    42    39    1
     3    39    40    2
     4    39     1    1
     5     1     2    2
     6     2     3    1
     7     2     4    1
     8     4     5    1
     9     5     6    1
    10     5     7    2
    11     7    19    1
    12    19    20    2
    13    19    21   am
    14    21    23    1
    15    24    23    1
    16    24    25    1
    17    25    26    1
    18    26    27    1
    19    27    29    1
    20    29    30    1
    21    30    31    1
    22    31    32   ar
    23    32    33   ar
    24    33    34   ar
    25    34    35    1
    26    34    36   ar
    27    36    37    1
    28    36    38   ar
    29    27    28    1
    30     7     8    1
    31     8    10    1
    32    10    11   ar
    33    11    12   ar
    34    12    13   ar
    35    13    14   ar
    36    14    16    1
    37    16    17    2
    38    16    18    1
    39    14    15   ar
    40     8     1    1
    41    15    10   ar
    42    28    24    1
    43    38    31   ar
    44     4     9    1
    45    21    22    1
@<TRIPOS>MOLECULE
*****
 42 45 0 0 0
SMALL
GASTEIGER

@<TRIPOS>ATOM
      1 C           4.3467   -2.0167   22.3421 C.2     1  UNL1        0.0706
      2 C           4.9091   -2.6126   23.5985 C.2     1  UNL1        0.0283
      3 C           5.8609   -3.7693   23.5192 C.3     1  UNL1        0.0470
      4 N           4.5198   -2.0519   24.9342 N.pl3   1  UNL1       -0.3193
      5 C           3.5681   -0.8952   25.0135 C.2     1  UNL1        0.0264
      6 C           3.1788   -0.3345   26.3492 C.3     1  UNL1        0.0470
      7 C           3.0057   -0.2993   23.7571 C.2     1  UNL1        0.0485
      8 C           3.3950   -0.8600   22.4214 C.3     1  UNL1        0.0795
      9 H           4.8890   -2.4430   25.7588 H       1  UNL1        0.1516
     10 C           2.8325   -0.2640   21.1650 C.ar    1  UNL1       -0.0078
     11 C           1.4832   -0.6934   20.6700 C.ar    1  UNL1       -0.0032
     12 C           0.9207   -0.0975   19.4137 C.ar    1  UNL1        0.0060
     13 C           1.7075    0.9279   18.6523 C.ar    1  UNL1        0.0752
     14 C           3.0567    1.3573   19.1473 C.ar    1  UNL1        0.2898
     15 C           3.6192    0.7613   20.4037 C.ar    1  UNL1        0.0716
     16 N           3.8435    2.3827   18.3860 N.pl3   1  UNL1        0.0809
     17 O           3.2323    3.7162   18.0727 O.2     1  UNL1        0.0415
     18 O           5.2415    2.0745   17.9381 O.co2   1  UNL1       -0.5760
     19 C           2.0539    0.8574   23.8364 C.2     1  UNL1        0.2434
     20 O           0.6411    0.6365   24.2895 O.2     1  UNL1       -0.2704
     21 N           2.5149    2.2350   23.4626 N.am    1  UNL1       -0.3010
     22 H           3.4421    2.3799   23.1652 H       1  UNL1        0.1497
     23 C           1.5632    3.3916   23.5418 C.3     1  UNL1        0.0911
     24 C           0.2888    3.3699   22.7510 C.3     1  UNL1        0.0370
     25 C           0.1637    3.0587   21.2889 C.3     1  UNL1        0.0204
     26 C          -1.2867    3.1520   20.9176 C.3     1  UNL1        0.0722
     27 N          -2.0579    3.5209   22.1502 N.3     1  UNL1       -0.2723
     28 C          -1.0842    3.6555   23.2832 C.3     1  UNL1        0.0738
     29 C          -3.5422    3.7201   22.2348 C.3     1  UNL1        0.0768
     30 C          -4.3241    3.0724   23.3389 C.3     1  UNL1        0.0437
     31 C          -4.8501    3.9023   24.4723 C.ar    1  UNL1       -0.0199
     32 C          -4.1048    3.9540   25.7729 C.ar    1  UNL1       -0.0033
     33 C          -4.6308    4.7840   26.9063 C.ar    1  UNL1        0.0119
     34 C          -5.9021    5.5623   26.7389 C.ar    1  UNL1        0.0682
     35 CL         -6.4281    6.3922   27.8723 Cl      1  UNL1       -0.0814
     36 C          -6.6475    5.5106   25.4382 C.ar    1  UNL1        0.0679
     37 CL         -7.9188    6.2889   25.2709 Cl      1  UNL1       -0.0814
     38 C          -6.1214    4.6806   24.3048 C.ar    1  UNL1        0.0080
     39 C           4.7360   -2.5774   21.0064 C.2     1  UNL1        0.3388
     40 O           5.8635   -1.9599   20.2336 O.2     1  UNL1       -0.2452
     41 C           3.5070   -3.7259   19.0264 C.3     1  UNL1        0.2559
     42 O           3.9977   -3.7555   20.4436 O.3     1  UNL1       -0.4415
@<TRIPOS>UNITY_ATOM_ATTR
16 1
charge 1
18 1
charge -1
@<TRIPOS>BOND
     1    41    42    1
     2    42    39    1
     3    39    40    2
     4    39     1    1
     5     1     2    2
     6     2     3    1
     7     2     4    1
     8     4     5    1
     9     5     6    1
    10     5     7    2
    11     7    19    1
    12    19    20    2
    13    19    21   am
    14    21    23    1
    15    24    23    1
    16    24    25    1
    17    25    26    1
    18    26    27    1
    19    27    29    1
    20    29    30    1
    21    30    31    1
    22    31    32   ar
    23    32    33   ar
    24    33    34   ar
    25    34    35    1
    26    34    36   ar
    27    36    37    1
    28    36    38   ar
    29    27    28    1
    30     7     8    1
    31     8    10    1
    32    10    11   ar
    33    11    12   ar
    34    12    13   ar
    35    13    14   ar
    36    14    16    1
    37    16    17    2
    38    16    18    1
    39    14    15   ar
    40     8     1    1
    41    15    10   ar
    42    28    24    1
    43    38    31   ar
    44     4     9    1
    45    21    22    1
@<TRIPOS>MOLECULE
*****
 42 45 0 0 0
SMALL
GASTEIGER

@<TRIPOS>ATOM
      1 C           4.2868   -2.1431   21.2174 C.2     1  UNL1        0.0706
      2 C           3.4652   -2.3747   19.9840 C.2     1  UNL1        0.0283
      3 C           3.8983   -3.3970   18.9753 C.3     1  UNL1        0.0470
      4 N           2.2104   -1.5841   19.7592 N.pl3   1  UNL1       -0.3193
      5 C           1.7773   -0.5619   20.7678 C.2     1  UNL1        0.0264
      6 C           0.5225    0.2288   20.5430 C.3     1  UNL1        0.0470
      7 C           2.5989   -0.3302   22.0012 C.2     1  UNL1        0.0485
      8 C           3.8536   -1.1208   22.2260 C.3     1  UNL1        0.0795
      9 H           1.6712   -1.7362   18.9497 H       1  UNL1        0.1516
     10 C           4.6752   -0.8891   23.4594 C.ar    1  UNL1       -0.0078
     11 C           5.8816    0.0003   23.4008 C.ar    1  UNL1       -0.0032
     12 C           6.7032    0.2320   24.6342 C.ar    1  UNL1        0.0060
     13 C           6.3184   -0.4257   25.9263 C.ar    1  UNL1        0.0752
     14 C           5.1120   -1.3152   25.9849 C.ar    1  UNL1        0.2898
     15 C           4.2904   -1.5469   24.7514 C.ar    1  UNL1        0.0716
     16 N           4.7272   -1.9730   27.2768 N.pl3   1  UNL1        0.0809
     17 O           5.6343   -2.9933   27.8983 O.2     1  UNL1        0.0415
     18 O           3.4353   -1.6105   27.9473 O.co2   1  UNL1       -0.5760
     19 C           2.1657    0.6921   23.0099 C.2     1  UNL1        0.2434
     20 O           2.5778    2.1254   22.8495 O.2     1  UNL1       -0.2704
     21 N           1.3205    0.2810   24.1789 N.am    1  UNL1       -0.3010
     22 H           1.0501   -0.6598   24.2841 H       1  UNL1        0.1497
     23 C           0.8874    1.3032   25.1875 C.3     1  UNL1        0.0911
     24 C           1.6743    1.4908   26.4507 C.3     1  UNL1        0.0370
     25 C           3.1257    1.8592   26.5388 C.3     1  UNL1        0.0204
     26 C           3.4964    1.9390   27.9901 C.3     1  UNL1        0.0722
     27 N           2.2741    1.6199   28.7989 N.3     1  UNL1       -0.2723
     28 C           1.1480    1.3429   27.8475 C.3     1  UNL1        0.0738
     29 C           2.1923    1.5842   30.2963 C.3     1  UNL1        0.0768
     30 C           3.4479    1.6027   31.1167 C.3     1  UNL1        0.0437
     31 C           4.2088    0.3316   31.3521 C.ar    1  UNL1       -0.0199
     32 C           5.4260    0.0232   30.5316 C.ar    1  UNL1       -0.0033
     33 C           6.1869   -1.2479   30.7671 C.ar    1  UNL1        0.0119
     34 C           5.7306   -2.2106   31.8231 C.ar    1  UNL1        0.0682
     35 CL          6.4914   -3.4816   32.0585 Cl      1  UNL1       -0.0814
     36 C           4.5133   -1.9021   32.6436 C.ar    1  UNL1        0.0679
     37 CL          4.0570   -2.8648   33.6995 Cl      1  UNL1       -0.0814
     38 C           3.7524   -0.6310   32.4081 C.ar    1  UNL1        0.0080
     39 C           5.5415   -2.9337   21.4421 C.2     1  UNL1        0.3388
     40 O           5.4662   -4.3044   22.0467 O.2     1  UNL1       -0.2452
     41 C           6.9690   -1.3839   19.9222 C.3     1  UNL1        0.2559
     42 O           6.8717   -2.3536   21.0624 O.3     1  UNL1       -0.4415
@<TRIPOS>UNITY_ATOM_ATTR
16 1
charge 1
18 1
charge -1
@<TRIPOS>BOND
     1    41    42    1
     2    42    39    1
     3    39    40    2
     4    39     1    1
     5     1     2    2
     6     2     3    1
     7     2     4    1
     8     4     5    1
     9     5     6    1
    10     5     7    2
    11     7    19    1
    12    19    20    2
    13    19    21   am
    14    21    23    1
    15    24    23    1
    16    24    25    1
    17    25    26    1
    18    26    27    1
    19    27    29    1
    20    29    30    1
    21    30    31    1
    22    31    32   ar
    23    32    33   ar
    24    33    34   ar
    25    34    35    1
    26    34    36   ar
    27    36    37    1
    28    36    38   ar
    29    27    28    1
    30     7     8    1
    31     8    10    1
    32    10    11   ar
    33    11    12   ar
    34    12    13   ar
    35    13    14   ar
    36    14    16    1
    37    16    17    2
    38    16    18    1
    39    14    15   ar
    40     8     1    1
    41    15    10   ar
    42    28    24    1
    43    38    31   ar
    44     4     9    1
    45    21    22    1
@<TRIPOS>MOLECULE
*****
 42 45 0 0 0
SMALL
GASTEIGER

@<TRIPOS>ATOM
      1 C           4.0643    1.1449   34.0341 C.2     1  UNL1        0.0706
      2 C           2.9003    1.8234   34.6933 C.2     1  UNL1        0.0283
      3 C           2.9285    2.0973   36.1679 C.3     1  UNL1        0.0470
      4 N           1.7079    2.2280   33.8780 N.pl3   1  UNL1       -0.3193
      5 C           1.6796    1.9542   32.4036 C.2     1  UNL1        0.0264
      6 C           0.4873    2.3588   31.5883 C.3     1  UNL1        0.0470
      7 C           2.8437    1.2757   31.7443 C.2     1  UNL1        0.0485
      8 C           4.0360    0.8711   32.5596 C.3     1  UNL1        0.0795
      9 H           0.9439    2.6733   34.3107 H       1  UNL1        0.1516
     10 C           5.2001    0.1926   31.9003 C.ar    1  UNL1       -0.0078
     11 C           6.2910    1.0119   31.2768 C.ar    1  UNL1       -0.0032
     12 C           7.4550    0.3334   30.6175 C.ar    1  UNL1        0.0060
     13 C           7.5282   -1.1644   30.5817 C.ar    1  UNL1        0.0752
     14 C           6.4374   -1.9837   31.2052 C.ar    1  UNL1        0.2898
     15 C           5.2733   -1.3052   31.8645 C.ar    1  UNL1        0.0716
     16 N           6.5105   -3.4815   31.1694 N.pl3   1  UNL1        0.0809
     17 O           6.4503   -4.2661   32.4464 O.2     1  UNL1        0.0415
     18 O           6.6440   -4.1946   29.8566 O.co2   1  UNL1       -0.5760
     19 C           2.8154    1.0018   30.2698 C.2     1  UNL1        0.2434
     20 O           3.3370    2.0264   29.3065 O.2     1  UNL1       -0.2704
     21 N           2.2656   -0.2968   29.7586 N.am    1  UNL1       -0.3010
     22 H           1.9233   -0.9694   30.3909 H       1  UNL1        0.1497
     23 C           2.2373   -0.5708   28.2841 C.3     1  UNL1        0.0911
     24 C           3.4674   -1.0786   27.5919 C.3     1  UNL1        0.0370
     25 C           4.7337   -1.5261   28.2598 C.3     1  UNL1        0.0204
     26 C           5.6960   -1.9521   27.1909 C.3     1  UNL1        0.0722
     27 N           5.0244   -1.7678   25.8624 N.3     1  UNL1       -0.2723
     28 C           3.6471   -1.2279   26.1102 C.3     1  UNL1        0.0738
     29 C           5.6248   -2.0703   24.5215 C.3     1  UNL1        0.0768
     30 C           4.8939   -2.9540   23.5546 C.3     1  UNL1        0.0437
     31 C           4.4730   -2.4174   22.2186 C.ar    1  UNL1       -0.0199
     32 C           3.4401   -1.3328   22.1377 C.ar    1  UNL1       -0.0033
     33 C           3.0192   -0.7961   20.8016 C.ar    1  UNL1        0.0119
     34 C           3.6312   -1.3441   19.5466 C.ar    1  UNL1        0.0682
     35 CL          3.2103   -0.8074   18.2107 Cl      1  UNL1       -0.0814
     36 C           4.6642   -2.4288   19.6276 C.ar    1  UNL1        0.0679
     37 CL          5.2762   -2.9768   18.3726 Cl      1  UNL1       -0.0814
     38 C           5.0851   -2.9655   20.9636 C.ar    1  UNL1        0.0080
     39 C           5.2566    0.7403   34.8493 C.2     1  UNL1        0.3388
     40 O           5.2619   -0.5761   35.5683 O.2     1  UNL1       -0.2452
     41 C           7.7322    1.1474   35.5244 C.3     1  UNL1        0.2559
     42 O           6.4437    1.6522   34.9456 O.3     1  UNL1       -0.4415
@<TRIPOS>UNITY_ATOM_ATTR
16 1
charge 1
18 1
charge -1
@<TRIPOS>BOND
     1    41    42    1
     2    42    39    1
     3    39    40    2
     4    39     1    1
     5     1     2    2
     6     2     3    1
     7     2     4    1
     8     4     5    1
     9     5     6    1
    10     5     7    2
    11     7    19    1
    12    19    20    2
    13    19    21   am
    14    21    23    1
    15    24    23    1
    16    24    25    1
    17    25    26    1
    18    26    27    1
    19    27    29    1
    20    29    30    1
    21    30    31    1
    22    31    32   ar
    23    32    33   ar
    24    33    34   ar
    25    34    35    1
    26    34    36   ar
    27    36    37    1
    28    36    38   ar
    29    27    28    1
    30     7     8    1
    31     8    10    1
    32    10    11   ar
    33    11    12   ar
    34    12    13   ar
    35    13    14   ar
    36    14    16    1
    37    16    17    2
    38    16    18    1
    39    14    15   ar
    40     8     1    1
    41    15    10   ar
    42    28    24    1
    43    38    31   ar
    44     4     9    1
    45    21    22    1
@<TRIPOS>MOLECULE
*****
 42 45 0 0 0
SMALL
GASTEIGER

@<TRIPOS>ATOM
      1 C           5.4163   -1.9135   31.0122 C.2     1  UNL1        0.0706
      2 C           5.4446   -2.6365   32.3261 C.2     1  UNL1        0.0283
      3 C           4.7946   -2.0259   33.5323 C.3     1  UNL1        0.0470
      4 N           6.1228   -3.9701   32.4339 N.pl3   1  UNL1       -0.3193
      5 C           6.7727   -4.5806   31.2278 C.2     1  UNL1        0.0264
      6 C           7.4509   -5.9142   31.3356 C.3     1  UNL1        0.0470
      7 C           6.7445   -3.8576   29.9139 C.2     1  UNL1        0.0485
      8 C           6.0662   -2.5240   29.8061 C.3     1  UNL1        0.0795
      9 H           6.1413   -4.4446   33.2963 H       1  UNL1        0.1516
     10 C           6.0380   -1.8010   28.4921 C.ar    1  UNL1       -0.0078
     11 C           4.8326   -1.9039   27.6053 C.ar    1  UNL1       -0.0032
     12 C           4.8043   -1.1809   26.2913 C.ar    1  UNL1        0.0060
     13 C           5.9814   -0.3550   25.8642 C.ar    1  UNL1        0.0752
     14 C           7.1868   -0.2521   26.7510 C.ar    1  UNL1        0.2898
     15 C           7.2150   -0.9751   28.0650 C.ar    1  UNL1        0.0716
     16 N           8.3638    0.5737   26.3240 N.pl3   1  UNL1        0.0809
     17 O           8.7357    0.6557   24.8731 O.2     1  UNL1        0.0415
     18 O           9.1691    1.3176   27.3478 O.co2   1  UNL1       -0.5760
     19 C           7.3944   -4.4681   28.7077 C.2     1  UNL1        0.2434
     20 O           8.8104   -4.1162   28.3599 O.2     1  UNL1       -0.2704
     21 N           6.6283   -5.4306   27.8494 N.am    1  UNL1       -0.3010
     22 H           5.6989   -5.6616   28.0777 H       1  UNL1        0.1497
     23 C           7.2782   -6.0411   26.6432 C.3     1  UNL1        0.0911
     24 C           7.2465   -5.3199   25.3284 C.3     1  UNL1        0.0370
     25 C           6.6007   -3.9916   25.0667 C.3     1  UNL1        0.0204
     26 C           6.8101   -3.6511   23.6209 C.3     1  UNL1        0.0722
     27 N           7.5854   -4.7690   22.9890 N.3     1  UNL1       -0.2723
     28 C           7.8551   -5.8004   24.0443 C.3     1  UNL1        0.0738
     29 C           8.0155   -4.8426   21.5539 C.3     1  UNL1        0.0768
     30 C           8.2869   -3.5826   20.7867 C.3     1  UNL1        0.0437
     31 C           7.2293   -3.0063   19.8926 C.ar    1  UNL1       -0.0199
     32 C           7.6105   -2.0584   18.7944 C.ar    1  UNL1       -0.0033
     33 C           6.5528   -1.4822   17.9003 C.ar    1  UNL1        0.0119
     34 C           5.1140   -1.8540   18.1044 C.ar    1  UNL1        0.0682
     35 CL          4.0564   -1.2777   17.2103 Cl      1  UNL1       -0.0814
     36 C           4.7328   -2.8020   19.2026 C.ar    1  UNL1        0.0679
     37 CL          3.2940   -3.1737   19.4067 Cl      1  UNL1       -0.0814
     38 C           5.7905   -3.3782   20.0967 C.ar    1  UNL1        0.0080
     39 C           4.7381   -0.5799   30.9044 C.2     1  UNL1        0.3388
     40 O           3.2470   -0.5064   30.7591 O.2     1  UNL1       -0.2452
     41 C           6.7638    0.7644   31.8206 C.3     1  UNL1        0.2559
     42 O           5.5510    0.6801   30.9420 O.3     1  UNL1       -0.4415
@<TRIPOS>UNITY_ATOM_ATTR
16 1
charge 1
18 1
charge -1
@<TRIPOS>BOND
     1    41    42    1
     2    42    39    1
     3    39    40    2
     4    39     1    1
     5     1     2    2
     6     2     3    1
     7     2     4    1
     8     4     5    1
     9     5     6    1
    10     5     7    2
    11     7    19    1
    12    19    20    2
    13    19    21   am
    14    21    23    1
    15    24    23    1
    16    24    25    1
    17    25    26    1
    18    26    27    1
    19    27    29    1
    20    29    30    1
    21    30    31    1
    22    31    32   ar
    23    32    33   ar
    24    33    34   ar
    25    34    35    1
    26    34    36   ar
    27    36    37    1
    28    36    38   ar
    29    27    28    1
    30     7     8    1
    31     8    10    1
    32    10    11   ar
    33    11    12   ar
    34    12    13   ar
    35    13    14   ar
    36    14    16    1
    37    16    17    2
    38    16    18    1
    39    14    15   ar
    40     8     1    1
    41    15    10   ar
    42    28    24    1
    43    38    31   ar
    44     4     9    1
    45    21    22    1
@<TRIPOS>MOLECULE
*****
 42 45 0 0 0
SMALL
GASTEIGER

@<TRIPOS>ATOM
      1 C           4.0143   -1.8820   21.9701 C.2     1  UNL1        0.0706
      2 C           4.7356   -2.7841   22.9271 C.2     1  UNL1        0.0283
      3 C           5.5222   -3.9517   22.4093 C.3     1  UNL1        0.0470
      4 N           4.6702   -2.5186   24.4020 N.pl3   1  UNL1       -0.3193
      5 C           3.8836   -1.3511   24.9198 C.2     1  UNL1        0.0264
      6 C           3.8183   -1.0857   26.3947 C.3     1  UNL1        0.0470
      7 C           3.1624   -0.4491   23.9628 C.2     1  UNL1        0.0485
      8 C           3.2278   -0.7145   22.4879 C.3     1  UNL1        0.0795
      9 H           5.1436   -3.1107   25.0302 H       1  UNL1        0.1516
     10 C           2.5065    0.1877   21.5308 C.ar    1  UNL1       -0.0078
     11 C           1.1084   -0.1417   21.0986 C.ar    1  UNL1       -0.0032
     12 C           0.3871    0.7604   20.1415 C.ar    1  UNL1        0.0060
     13 C           1.0639    1.9919   19.6167 C.ar    1  UNL1        0.0752
     14 C           2.4620    2.3213   20.0489 C.ar    1  UNL1        0.2898
     15 C           3.1833    1.4191   21.0060 C.ar    1  UNL1        0.0716
     16 N           3.1388    3.5527   19.5241 N.pl3   1  UNL1        0.0809
     17 O           2.8296    4.0473   18.1422 O.2     1  UNL1        0.0415
     18 O           4.1249    4.2895   20.3813 O.co2   1  UNL1       -0.5760
     19 C           2.3758    0.7185   24.4806 C.2     1  UNL1        0.2434
     20 O           2.9889    2.0873   24.4982 O.2     1  UNL1       -0.2704
     21 N           0.9760    0.5172   24.9807 N.am    1  UNL1       -0.3010
     22 H           0.5736   -0.3812   24.9691 H       1  UNL1        0.1497
     23 C           0.1894    1.6847   25.4984 C.3     1  UNL1        0.0911
     24 C          -0.6374    2.5089   24.5566 C.3     1  UNL1        0.0370
     25 C          -0.2888    2.8395   23.1356 C.3     1  UNL1        0.0204
     26 C          -1.3939    3.6822   22.5712 C.3     1  UNL1        0.0722
     27 N          -2.4256    3.8724   23.6433 N.3     1  UNL1       -0.2723
     28 C          -1.9580    3.1473   24.8704 C.3     1  UNL1        0.0738
     29 C          -3.7009    4.6511   23.5116 C.3     1  UNL1        0.0768
     30 C          -4.9208    3.9996   22.9307 C.3     1  UNL1        0.0437
     31 C          -5.2885    4.2403   21.4965 C.ar    1  UNL1       -0.0199
     32 C          -6.6617    4.7321   21.1467 C.ar    1  UNL1       -0.0033
     33 C          -7.0294    4.9727   19.7125 C.ar    1  UNL1        0.0119
     34 C          -6.0239    4.7216   18.6281 C.ar    1  UNL1        0.0682
     35 CL         -6.3916    4.9622   17.1939 Cl      1  UNL1       -0.0814
     36 C          -4.6506    4.2298   18.9779 C.ar    1  UNL1        0.0679
     37 CL         -3.6451    3.9787   17.8936 Cl      1  UNL1       -0.0814
     38 C          -4.2829    3.9891   20.4122 C.ar    1  UNL1        0.0080
     39 C           4.0797   -2.1474   20.4952 C.2     1  UNL1        0.3388
     40 O           5.0846   -1.4258   19.6471 O.2     1  UNL1       -0.2452
     41 C           3.6815   -4.2776   19.0621 C.3     1  UNL1        0.2559
     42 O           3.1401   -3.1344   19.8684 O.3     1  UNL1       -0.4415
@<TRIPOS>UNITY_ATOM_ATTR
16 1
charge 1
18 1
charge -1
@<TRIPOS>BOND
     1    41    42    1
     2    42    39    1
     3    39    40    2
     4    39     1    1
     5     1     2    2
     6     2     3    1
     7     2     4    1
     8     4     5    1
     9     5     6    1
    10     5     7    2
    11     7    19    1
    12    19    20    2
    13    19    21   am
    14    21    23    1
    15    24    23    1
    16    24    25    1
    17    25    26    1
    18    26    27    1
    19    27    29    1
    20    29    30    1
    21    30    31    1
    22    31    32   ar
    23    32    33   ar
    24    33    34   ar
    25    34    35    1
    26    34    36   ar
    27    36    37    1
    28    36    38   ar
    29    27    28    1
    30     7     8    1
    31     8    10    1
    32    10    11   ar
    33    11    12   ar
    34    12    13   ar
    35    13    14   ar
    36    14    16    1
    37    16    17    2
    38    16    18    1
    39    14    15   ar
    40     8     1    1
    41    15    10   ar
    42    28    24    1
    43    38    31   ar
    44     4     9    1
    45    21    22    1
