@<TRIPOS>MOLECULE
*****
 35 39 0 0 0
SMALL
GASTEIGER

@<TRIPOS>ATOM
      1 N           6.3522   -3.0104   26.4367 N.am    1  UNL1       -0.2577
      2 C           6.2834   -2.7320   24.9643 C.2     1  UNL1        0.3117
      3 O           5.7733   -1.4092   24.4743 O.2     1  UNL1       -0.2520
      4 N           6.7247   -3.7763   23.9822 N.am    1  UNL1       -0.2347
      5 C           7.2347   -5.0990   24.4723 C.3     1  UNL1        0.1279
      6 C           7.3036   -5.3774   25.9447 C.2     1  UNL1        0.0450
      7 C           7.8136   -6.7001   26.4348 C.2     1  UNL1        0.2310
      8 N           7.8824   -6.9786   27.9072 N.2     1  UNL1       -0.0313
      9 C           7.4412   -5.9342   28.8893 C.2     1  UNL1        0.3731
     10 N           7.3943   -5.9225   30.3885 N.2     1  UNL1       -0.0377
     11 C           6.8552   -4.5925   30.8249 C.2     1  UNL1        0.1871
     12 C           6.5689   -3.7822   29.5954 C.2     1  UNL1        0.0488
     13 C           6.9311   -4.6115   28.3991 C.2     1  UNL1        0.0915
     14 C           6.8623   -4.3331   26.9268 C.3     1  UNL1        0.1309
     15 C           6.6559   -3.4978   22.5098 C.ar    1  UNL1        0.1167
     16 C           5.3404   -3.5736   21.7929 C.ar    1  UNL1        0.1898
     17 F           4.0939   -3.9279   22.5484 F       1  UNL1       -0.1996
     18 C           5.2716   -3.2952   20.3206 C.ar    1  UNL1        0.1704
     19 C           6.5181   -2.9409   19.5652 C.ar    1  UNL1        0.0785
     20 C           7.8335   -2.8651   20.2821 C.ar    1  UNL1        0.1704
     21 C           7.9023   -3.1436   21.7544 C.ar    1  UNL1        0.1898
     22 F           9.2178   -3.0678   22.4714 F       1  UNL1       -0.1996
     23 O           3.9561   -3.3710   19.6038 O.3     1  UNL1       -0.4690
     24 C           3.3785   -4.7055   19.2357 C.3     1  UNL1        0.2526
     25 O           9.0800   -2.5109   19.5267 O.3     1  UNL1       -0.4690
     26 C           9.5191   -1.0796   19.4332 C.3     1  UNL1        0.2526
     27 C           4.4537   -1.6426   27.5657 C.3     1  UNL1        0.0233
     28 C           5.9109   -1.9660   27.4189 C.3     1  UNL1        0.0956
     29 C           6.6402   -4.1502   32.2420 C.3     1  UNL1        0.1471
     30 N           6.1518   -2.7612   32.5283 N.3     1  UNL1       -0.2614
     31 C           4.7160   -2.5320   32.8969 C.3     1  UNL1        0.1050
     32 C           4.2276   -1.1430   33.1832 C.3     1  UNL1        0.1595
     33 O           5.1750    0.0170   33.1010 O.3     1  UNL1       -0.3508
     34 C           6.6109   -0.2122   32.7324 C.3     1  UNL1        0.1595
     35 C           7.0993   -1.6012   32.4461 C.3     1  UNL1        0.1050
@<TRIPOS>BOND
     1    27    28    1
     2    28     1    1
     3     1     2   am
     4     2     3    2
     5     2     4   am
     6     4    15    1
     7    15    16   ar
     8    16    17    1
     9    16    18   ar
    10    18    23    1
    11    23    24    1
    12    18    19   ar
    13    19    20   ar
    14    20    25    1
    15    25    26    1
    16    20    21   ar
    17    21    22    1
    18     4     5    1
    19     5     6    1
    20     6     7    2
    21     7     8    1
    22     8     9    2
    23     9    10    1
    24    10    11    2
    25    11    29    1
    26    29    30    1
    27    30    31    1
    28    31    32    1
    29    32    33    1
    30    33    34    1
    31    34    35    1
    32    11    12    1
    33    12    13    2
    34    13    14    1
    35    14     1    1
    36    21    15   ar
    37    14     6    1
    38    13     9    1
    39    35    30    1
@<TRIPOS>MOLECULE
*****
 35 39 0 0 0
SMALL
GASTEIGER

@<TRIPOS>ATOM
      1 N           6.3471   -3.0272   26.4007 N.am    1  UNL1       -0.2577
      2 C           6.2837   -2.7486   24.9281 C.2     1  UNL1        0.3117
      3 O           5.7666   -1.4293   24.4360 O.2     1  UNL1       -0.2520
      4 N           6.7375   -3.7892   23.9478 N.am    1  UNL1       -0.2347
      5 C           7.2546   -5.1084   24.4399 C.3     1  UNL1        0.1279
      6 C           7.3180   -5.3870   25.9124 C.2     1  UNL1        0.0450
      7 C           7.8350   -6.7062   26.4045 C.2     1  UNL1        0.2310
      8 N           7.8984   -6.9849   27.8771 N.2     1  UNL1       -0.0313
      9 C           7.4447   -5.9442   28.8575 C.2     1  UNL1        0.3731
     10 N           7.3901   -5.9335   30.3565 N.2     1  UNL1       -0.0377
     11 C           6.8393   -4.6076   30.7907 C.2     1  UNL1        0.1871
     12 C           6.5534   -3.7989   29.5602 C.2     1  UNL1        0.0488
     13 C           6.9276   -4.6250   28.3653 C.2     1  UNL1        0.0915
     14 C           6.8642   -4.3464   26.8928 C.3     1  UNL1        0.1309
     15 C           6.6741   -3.5105   22.4752 C.ar    1  UNL1        0.1167
     16 C           7.9203   -3.1379   21.7281 C.ar    1  UNL1        0.1898
     17 F           9.2298   -3.0440   22.4536 F       1  UNL1       -0.1996
     18 C           7.8570   -2.8593   20.2556 C.ar    1  UNL1        0.1704
     19 C           6.5475   -2.9532   19.5301 C.ar    1  UNL1        0.0785
     20 C           5.3012   -3.3258   20.2772 C.ar    1  UNL1        0.1704
     21 C           5.3646   -3.6045   21.7498 C.ar    1  UNL1        0.1898
     22 F           4.1183   -3.9771   22.4969 F       1  UNL1       -0.1996
     23 O           9.1032   -2.4866   19.5086 O.3     1  UNL1       -0.4690
     24 C           9.5357   -1.0519   19.4398 C.3     1  UNL1        0.2526
     25 O           3.9917   -3.4198   19.5518 O.3     1  UNL1       -0.4690
     26 C           3.3632   -4.7601   19.3093 C.3     1  UNL1        0.2526
     27 C           4.4318   -1.6851   27.5322 C.3     1  UNL1        0.0233
     28 C           5.8933   -1.9865   27.3811 C.3     1  UNL1        0.0956
     29 C           6.6139   -4.1676   32.2069 C.3     1  UNL1        0.1471
     30 N           6.1578   -2.7678   32.4938 N.3     1  UNL1       -0.2614
     31 C           7.1474   -1.6405   32.4880 C.3     1  UNL1        0.1050
     32 C           6.6913   -0.2406   32.7749 C.3     1  UNL1        0.1595
     33 O           5.2456    0.0321   33.0676 O.3     1  UNL1       -0.3508
     34 C           4.2561   -1.0953   33.0734 C.3     1  UNL1        0.1595
     35 C           4.7121   -2.4951   32.7865 C.3     1  UNL1        0.1050
@<TRIPOS>BOND
     1    27    28    1
     2    28     1    1
     3     1     2   am
     4     2     3    2
     5     2     4   am
     6     4    15    1
     7    15    16   ar
     8    16    17    1
     9    16    18   ar
    10    18    23    1
    11    23    24    1
    12    18    19   ar
    13    19    20   ar
    14    20    25    1
    15    25    26    1
    16    20    21   ar
    17    21    22    1
    18     4     5    1
    19     5     6    1
    20     6     7    2
    21     7     8    1
    22     8     9    2
    23     9    10    1
    24    10    11    2
    25    11    29    1
    26    29    30    1
    27    30    31    1
    28    31    32    1
    29    32    33    1
    30    33    34    1
    31    34    35    1
    32    11    12    1
    33    12    13    2
    34    13    14    1
    35    14     1    1
    36    21    15   ar
    37    14     6    1
    38    13     9    1
    39    35    30    1
@<TRIPOS>MOLECULE
*****
 35 39 0 0 0
SMALL
GASTEIGER

@<TRIPOS>ATOM
      1 N           0.1857    4.0406   28.7887 N.am    1  UNL1       -0.2577
      2 C          -0.6850    4.2965   27.5943 C.2     1  UNL1        0.3117
      3 O          -1.0365    5.7032   27.2101 O.2     1  UNL1       -0.2520
      4 N          -1.2041    3.1457   26.7843 N.am    1  UNL1       -0.2347
      5 C          -0.8525    1.7391   27.1686 C.3     1  UNL1        0.1279
      6 C           0.0182    1.4831   28.3630 C.2     1  UNL1        0.0450
      7 C           0.3697    0.0766   28.7472 C.2     1  UNL1        0.2310
      8 N           1.2405   -0.1794   29.9416 N.2     1  UNL1       -0.0313
      9 C           1.7596    0.9715   30.7516 C.2     1  UNL1        0.3731
     10 N           2.6313    1.0282   31.9710 N.2     1  UNL1       -0.0377
     11 C           2.8185    2.4699   32.3402 C.2     1  UNL1        0.1871
     12 C           2.0625    3.3042   31.3491 C.2     1  UNL1        0.0488
     13 C           1.4080    2.3781   30.3673 C.2     1  UNL1        0.0915
     14 C           0.5373    2.6340   29.1730 C.3     1  UNL1        0.1309
     15 C          -2.0748    3.4016   25.5900 C.ar    1  UNL1        0.1167
     16 C          -3.5388    3.6717   25.7733 C.ar    1  UNL1        0.1898
     17 F          -4.1321    3.6859   27.1509 F       1  UNL1       -0.1996
     18 C          -4.4096    3.9276   24.5790 C.ar    1  UNL1        0.1704
     19 C          -3.8163    3.9134   23.2014 C.ar    1  UNL1        0.0785
     20 C          -2.3523    3.6433   23.0181 C.ar    1  UNL1        0.1704
     21 C          -1.4815    3.3874   24.2124 C.ar    1  UNL1        0.1898
     22 F          -0.0174    3.1172   24.0291 F       1  UNL1       -0.1996
     23 O          -5.8736    4.1977   24.7624 O.3     1  UNL1       -0.4690
     24 C          -6.3297    5.5166   25.3126 C.3     1  UNL1        0.2526
     25 O          -1.7589    3.6291   21.6406 O.3     1  UNL1       -0.4690
     26 C          -2.6179    3.2939   20.4573 C.3     1  UNL1        0.2526
     27 C          -0.2155    5.9355   30.5203 C.3     1  UNL1        0.0233
     28 C           0.7048    5.1915   29.5987 C.3     1  UNL1        0.0956
     29 C           3.6209    2.9866   33.4974 C.3     1  UNL1        0.1471
     30 N           3.0084    3.0520   34.8651 N.3     1  UNL1       -0.2614
     31 C           2.1240    4.2052   35.2365 C.3     1  UNL1        0.1050
     32 C           1.5114    4.2706   36.6041 C.3     1  UNL1        0.1595
     33 O           1.7834    3.1828   37.6005 O.3     1  UNL1       -0.3508
     34 C           2.6679    2.0296   37.2292 C.3     1  UNL1        0.1595
     35 C           3.2805    1.9642   35.8615 C.3     1  UNL1        0.1050
@<TRIPOS>BOND
     1    27    28    1
     2    28     1    1
     3     1     2   am
     4     2     3    2
     5     2     4   am
     6     4    15    1
     7    15    16   ar
     8    16    17    1
     9    16    18   ar
    10    18    23    1
    11    23    24    1
    12    18    19   ar
    13    19    20   ar
    14    20    25    1
    15    25    26    1
    16    20    21   ar
    17    21    22    1
    18     4     5    1
    19     5     6    1
    20     6     7    2
    21     7     8    1
    22     8     9    2
    23     9    10    1
    24    10    11    2
    25    11    29    1
    26    29    30    1
    27    30    31    1
    28    31    32    1
    29    32    33    1
    30    33    34    1
    31    34    35    1
    32    11    12    1
    33    12    13    2
    34    13    14    1
    35    14     1    1
    36    21    15   ar
    37    14     6    1
    38    13     9    1
    39    35    30    1
@<TRIPOS>MOLECULE
*****
 35 39 0 0 0
SMALL
GASTEIGER

@<TRIPOS>ATOM
      1 N           0.2867    3.9976   28.7176 N.am    1  UNL1       -0.2577
      2 C          -0.5869    4.3241   27.5428 C.2     1  UNL1        0.3117
      3 O          -0.8471    5.7553   27.1766 O.2     1  UNL1       -0.2520
      4 N          -1.2003    3.2196   26.7344 N.am    1  UNL1       -0.2347
      5 C          -0.9402    1.7885   27.1006 C.3     1  UNL1        0.1279
      6 C          -0.0665    1.4619   28.2754 C.2     1  UNL1        0.0450
      7 C           0.1937    0.0308   28.6417 C.2     1  UNL1        0.2310
      8 N           1.0674   -0.2958   29.8165 N.2     1  UNL1       -0.0313
      9 C           1.6809    0.8087   30.6250 C.2     1  UNL1        0.3731
     10 N           2.5778    0.7936   31.8271 N.2     1  UNL1       -0.0377
     11 C           2.8720    2.2154   32.2038 C.2     1  UNL1        0.1871
     12 C           2.1568    3.1093   31.2345 C.2     1  UNL1        0.0488
     13 C           1.4206    2.2399   30.2587 C.2     1  UNL1        0.0915
     14 C           0.5470    2.5664   29.0839 C.3     1  UNL1        0.1309
     15 C          -2.0740    3.5462   25.5596 C.ar    1  UNL1        0.1167
     16 C          -1.4737    3.6730   24.1908 C.ar    1  UNL1        0.1898
     17 F           0.0002    3.4731   23.9969 F       1  UNL1       -0.1996
     18 C          -2.3473    3.9996   23.0161 C.ar    1  UNL1        0.1704
     19 C          -3.8212    4.1995   23.2100 C.ar    1  UNL1        0.0785
     20 C          -4.4216    4.0727   24.5788 C.ar    1  UNL1        0.1704
     21 C          -3.5479    3.7461   25.7536 C.ar    1  UNL1        0.1898
     22 F          -4.1482    3.6193   27.1224 F       1  UNL1       -0.1996
     23 O          -1.7470    4.1264   21.6473 O.3     1  UNL1       -0.4690
     24 C          -1.2740    2.9029   20.9196 C.3     1  UNL1        0.2526
     25 O          -5.8954    4.2725   24.7729 O.3     1  UNL1       -0.4690
     26 C          -6.7975    4.4054   23.5818 C.3     1  UNL1        0.2526
     27 C           0.0513    5.9018   30.4693 C.3     1  UNL1        0.0233
     28 C           0.9002    5.1022   29.5261 C.3     1  UNL1        0.0956
     29 C           3.7305    2.6646   33.3488 C.3     1  UNL1        0.1471
     30 N           4.0934    1.6992   34.4380 N.3     1  UNL1       -0.2614
     31 C           3.5428    1.8868   35.8206 C.3     1  UNL1        0.1050
     32 C           3.9056    0.9214   36.9098 C.3     1  UNL1        0.1595
     33 O           4.8191   -0.2317   36.6164 O.3     1  UNL1       -0.3508
     34 C           5.3697   -0.4192   35.2337 C.3     1  UNL1        0.1595
     35 C           5.0069    0.5462   34.1445 C.3     1  UNL1        0.1050
@<TRIPOS>BOND
     1    27    28    1
     2    28     1    1
     3     1     2   am
     4     2     3    2
     5     2     4   am
     6     4    15    1
     7    15    16   ar
     8    16    17    1
     9    16    18   ar
    10    18    23    1
    11    23    24    1
    12    18    19   ar
    13    19    20   ar
    14    20    25    1
    15    25    26    1
    16    20    21   ar
    17    21    22    1
    18     4     5    1
    19     5     6    1
    20     6     7    2
    21     7     8    1
    22     8     9    2
    23     9    10    1
    24    10    11    2
    25    11    29    1
    26    29    30    1
    27    30    31    1
    28    31    32    1
    29    32    33    1
    30    33    34    1
    31    34    35    1
    32    11    12    1
    33    12    13    2
    34    13    14    1
    35    14     1    1
    36    21    15   ar
    37    14     6    1
    38    13     9    1
    39    35    30    1
@<TRIPOS>MOLECULE
*****
 35 39 0 0 0
SMALL
GASTEIGER

@<TRIPOS>ATOM
      1 N           0.4310    3.9847   27.1375 N.am    1  UNL1       -0.2577
      2 C           0.1759    4.0134   25.6597 C.2     1  UNL1        0.3117
      3 O           0.4307    5.2686   24.8789 O.2     1  UNL1       -0.2520
      4 N          -0.3340    2.7870   24.9627 N.am    1  UNL1       -0.2347
      5 C          -0.5888    1.5319   25.7434 C.3     1  UNL1        0.1279
      6 C          -0.3337    1.5032   27.2214 C.2     1  UNL1        0.0450
      7 C          -0.5885    0.2481   28.0021 C.2     1  UNL1        0.2310
      8 N          -0.3334    0.2193   29.4801 N.2     1  UNL1       -0.0313
      9 C           0.1765    1.4457   30.1771 C.2     1  UNL1        0.3731
     10 N           0.5178    1.7155   31.6126 N.2     1  UNL1       -0.0377
     11 C           0.9836    3.1374   31.7190 C.2     1  UNL1        0.1871
     12 C           0.9301    3.7464   30.3492 C.2     1  UNL1        0.0488
     13 C           0.4313    2.7009   29.3963 C.2     1  UNL1        0.0915
     14 C           0.1762    2.7296   27.9184 C.3     1  UNL1        0.1309
     15 C          -0.5891    2.8158   23.4847 C.ar    1  UNL1        0.1167
     16 C           0.4002    2.1991   22.5408 C.ar    1  UNL1        0.1898
     17 F           1.6445    1.5536   23.0748 F       1  UNL1       -0.1996
     18 C           0.1452    2.2278   21.0630 C.ar    1  UNL1        0.1704
     19 C          -1.0991    2.8733   20.5290 C.ar    1  UNL1        0.0785
     20 C          -2.0884    3.4900   21.4729 C.ar    1  UNL1        0.1704
     21 C          -1.8333    3.4612   22.9508 C.ar    1  UNL1        0.1898
     22 F          -2.8226    4.0779   23.8948 F       1  UNL1       -0.1996
     23 O           1.1345    1.6111   20.1191 O.3     1  UNL1       -0.4690
     24 C           0.9156    0.2178   19.6083 C.3     1  UNL1        0.2526
     25 O          -3.3327    4.1354   20.9391 O.3     1  UNL1       -0.4690
     26 C          -4.6365    3.3945   20.9749 C.3     1  UNL1        0.2526
     27 C           0.0134    6.3571   28.1109 C.3     1  UNL1        0.0233
     28 C           0.9409    5.2112   27.8346 C.3     1  UNL1        0.0956
     29 C           1.4252    3.8289   32.9746 C.3     1  UNL1        0.1471
     30 N           0.5240    4.8283   33.6372 N.3     1  UNL1       -0.2614
     31 C           0.9194    5.4417   34.9477 C.3     1  UNL1        0.1050
     32 C           0.0181    6.4412   35.6102 C.3     1  UNL1        0.1595
     33 O          -1.2785    6.8271   34.9623 O.3     1  UNL1       -0.3508
     34 C          -1.6738    6.2136   33.6518 C.3     1  UNL1        0.1595
     35 C          -0.7726    5.2142   32.9892 C.3     1  UNL1        0.1050
@<TRIPOS>BOND
     1    27    28    1
     2    28     1    1
     3     1     2   am
     4     2     3    2
     5     2     4   am
     6     4    15    1
     7    15    16   ar
     8    16    17    1
     9    16    18   ar
    10    18    23    1
    11    23    24    1
    12    18    19   ar
    13    19    20   ar
    14    20    25    1
    15    25    26    1
    16    20    21   ar
    17    21    22    1
    18     4     5    1
    19     5     6    1
    20     6     7    2
    21     7     8    1
    22     8     9    2
    23     9    10    1
    24    10    11    2
    25    11    29    1
    26    29    30    1
    27    30    31    1
    28    31    32    1
    29    32    33    1
    30    33    34    1
    31    34    35    1
    32    11    12    1
    33    12    13    2
    34    13    14    1
    35    14     1    1
    36    21    15   ar
    37    14     6    1
    38    13     9    1
    39    35    30    1
@<TRIPOS>MOLECULE
*****
 35 39 0 0 0
SMALL
GASTEIGER

@<TRIPOS>ATOM
      1 N           5.4202    0.0405   33.2442 N.am    1  UNL1       -0.2577
      2 C           6.2483   -1.0372   32.6094 C.2     1  UNL1        0.3117
      3 O           7.5482   -1.4500   33.2338 O.2     1  UNL1       -0.2520
      4 N           5.7765   -1.7019   31.3502 N.am    1  UNL1       -0.2347
      5 C           4.4767   -1.2890   30.7258 C.3     1  UNL1        0.1279
      6 C           3.6485   -0.2113   31.3606 C.2     1  UNL1        0.0450
      7 C           2.3487    0.2016   30.7363 C.2     1  UNL1        0.2310
      8 N           1.5206    1.2793   31.3711 N.2     1  UNL1       -0.0313
      9 C           1.9924    1.9440   32.6303 C.2     1  UNL1        0.3731
     10 N           1.3951    3.0283   33.4773 N.2     1  UNL1       -0.0377
     11 C           2.3258    3.2855   34.6251 C.2     1  UNL1        0.1871
     12 C           3.4983    2.3602   34.4875 C.2     1  UNL1        0.0488
     13 C           3.2923    1.5311   33.2546 C.2     1  UNL1        0.0915
     14 C           4.1203    0.4534   32.6198 C.3     1  UNL1        0.1309
     15 C           6.6046   -2.7796   30.7154 C.ar    1  UNL1        0.1167
     16 C           6.7969   -4.0902   31.4192 C.ar    1  UNL1        0.1898
     17 F           6.1610   -4.3231   32.7576 F       1  UNL1       -0.1996
     18 C           7.6250   -5.1678   30.7845 C.ar    1  UNL1        0.1704
     19 C           8.2608   -4.9349   29.4460 C.ar    1  UNL1        0.0785
     20 C           8.0685   -3.6243   28.7422 C.ar    1  UNL1        0.1704
     21 C           7.2404   -2.5466   29.3770 C.ar    1  UNL1        0.1898
     22 F           7.0481   -1.2359   28.6732 F       1  UNL1       -0.1996
     23 O           7.8172   -6.4785   31.4882 O.3     1  UNL1       -0.4690
     24 C           9.2013   -7.0029   31.7319 C.3     1  UNL1        0.2526
     25 O           8.7043   -3.3912   27.4038 O.3     1  UNL1       -0.4690
     26 C           8.9434   -4.5454   26.4759 C.3     1  UNL1        0.2526
     27 C           7.0331    1.6776   34.4560 C.3     1  UNL1        0.0233
     28 C           5.8920    0.7052   34.5034 C.3     1  UNL1        0.0956
     29 C           2.1201    4.2915   35.7186 C.3     1  UNL1        0.1471
     30 N           2.4406    3.9313   37.1390 N.3     1  UNL1       -0.2614
     31 C           3.5264    4.6624   37.8715 C.3     1  UNL1        0.1050
     32 C           3.8470    4.3023   39.2919 C.3     1  UNL1        0.1595
     33 O           3.0816    3.2110   39.9799 O.3     1  UNL1       -0.3508
     34 C           1.9958    2.4799   39.2474 C.3     1  UNL1        0.1595
     35 C           1.6753    2.8400   37.8270 C.3     1  UNL1        0.1050
@<TRIPOS>BOND
     1    27    28    1
     2    28     1    1
     3     1     2   am
     4     2     3    2
     5     2     4   am
     6     4    15    1
     7    15    16   ar
     8    16    17    1
     9    16    18   ar
    10    18    23    1
    11    23    24    1
    12    18    19   ar
    13    19    20   ar
    14    20    25    1
    15    25    26    1
    16    20    21   ar
    17    21    22    1
    18     4     5    1
    19     5     6    1
    20     6     7    2
    21     7     8    1
    22     8     9    2
    23     9    10    1
    24    10    11    2
    25    11    29    1
    26    29    30    1
    27    30    31    1
    28    31    32    1
    29    32    33    1
    30    33    34    1
    31    34    35    1
    32    11    12    1
    33    12    13    2
    34    13    14    1
    35    14     1    1
    36    21    15   ar
    37    14     6    1
    38    13     9    1
    39    35    30    1
@<TRIPOS>MOLECULE
*****
 35 39 0 0 0
SMALL
GASTEIGER

@<TRIPOS>ATOM
      1 N           5.3701   -2.2139   26.5449 N.am    1  UNL1       -0.2577
      2 C           5.0311   -1.8104   25.1406 C.2     1  UNL1        0.3117
      3 O           3.9325   -0.8206   24.8891 O.2     1  UNL1       -0.2520
      4 N           5.7907   -2.3969   23.9877 N.am    1  UNL1       -0.2347
      5 C           6.8893   -3.3867   24.2392 C.3     1  UNL1        0.1279
      6 C           7.2283   -3.7901   25.6436 C.2     1  UNL1        0.0450
      7 C           8.3269   -4.7799   25.8951 C.2     1  UNL1        0.2310
      8 N           8.6660   -5.1834   27.2995 N.2     1  UNL1       -0.0313
      9 C           7.9064   -4.5970   28.4524 C.2     1  UNL1        0.3731
     10 N           8.0150   -4.8024   29.9342 N.2     1  UNL1       -0.0377
     11 C           6.9835   -3.9395   30.5986 C.2     1  UNL1        0.1871
     12 C           6.2374   -3.2008   29.5273 C.2     1  UNL1        0.0488
     13 C           6.8078   -3.6071   28.2008 C.2     1  UNL1        0.0915
     14 C           6.4688   -3.2037   26.7965 C.3     1  UNL1        0.1309
     15 C           5.4516   -1.9934   22.5833 C.ar    1  UNL1        0.1167
     16 C           4.7067   -2.9406   21.6900 C.ar    1  UNL1        0.1898
     17 F           4.3010   -4.2912   22.2011 F       1  UNL1       -0.1996
     18 C           4.3676   -2.5372   20.2856 C.ar    1  UNL1        0.1704
     19 C           4.7734   -1.1866   19.7745 C.ar    1  UNL1        0.0785
     20 C           5.5183   -0.2394   20.6678 C.ar    1  UNL1        0.1704
     21 C           5.8574   -0.6429   22.0722 C.ar    1  UNL1        0.1898
     22 F           6.6023    0.3044   22.9656 F       1  UNL1       -0.1996
     23 O           3.6228   -3.4844   19.3924 O.3     1  UNL1       -0.4690
     24 C           4.3210   -4.6834   18.8222 C.3     1  UNL1        0.2526
     25 O           5.9241    1.1112   20.1568 O.3     1  UNL1       -0.4690
     26 C           5.2701    1.6769   18.9311 C.3     1  UNL1        0.2526
     27 C           4.8447   -0.2024   28.1031 C.3     1  UNL1        0.0233
     28 C           4.6105   -1.6274   27.6979 C.3     1  UNL1        0.0956
     29 C           6.7407   -3.8338   32.0750 C.3     1  UNL1        0.1471
     30 N           6.2329   -2.5501   32.6616 N.3     1  UNL1       -0.2614
     31 C           4.7920   -2.4254   33.0594 C.3     1  UNL1        0.1050
     32 C           4.2842   -1.1416   33.6460 C.3     1  UNL1        0.1595
     33 O           5.2173    0.0175   33.8348 O.3     1  UNL1       -0.3508
     34 C           6.6583   -0.1072   33.4370 C.3     1  UNL1        0.1595
     35 C           7.1661   -1.3910   32.8504 C.3     1  UNL1        0.1050
@<TRIPOS>BOND
     1    27    28    1
     2    28     1    1
     3     1     2   am
     4     2     3    2
     5     2     4   am
     6     4    15    1
     7    15    16   ar
     8    16    17    1
     9    16    18   ar
    10    18    23    1
    11    23    24    1
    12    18    19   ar
    13    19    20   ar
    14    20    25    1
    15    25    26    1
    16    20    21   ar
    17    21    22    1
    18     4     5    1
    19     5     6    1
    20     6     7    2
    21     7     8    1
    22     8     9    2
    23     9    10    1
    24    10    11    2
    25    11    29    1
    26    29    30    1
    27    30    31    1
    28    31    32    1
    29    32    33    1
    30    33    34    1
    31    34    35    1
    32    11    12    1
    33    12    13    2
    34    13    14    1
    35    14     1    1
    36    21    15   ar
    37    14     6    1
    38    13     9    1
    39    35    30    1
@<TRIPOS>MOLECULE
*****
 35 39 0 0 0
SMALL
GASTEIGER

@<TRIPOS>ATOM
      1 N           2.5002    2.1990   26.5669 N.am    1  UNL1       -0.2577
      2 C           2.2222    2.1831   25.0929 C.2     1  UNL1        0.3117
      3 O           3.2605    2.6751   24.1286 O.2     1  UNL1       -0.2520
      4 N           0.9060    1.6753   24.5834 N.am    1  UNL1       -0.2347
      5 C          -0.1322    1.1833   25.5477 C.3     1  UNL1        0.1279
      6 C           0.1458    1.1992   27.0217 C.2     1  UNL1        0.0450
      7 C          -0.8924    0.7072   27.9860 C.2     1  UNL1        0.2310
      8 N          -0.6145    0.7231   29.4600 N.2     1  UNL1       -0.0313
      9 C           0.7017    1.2309   29.9696 C.2     1  UNL1        0.3731
     10 N           1.2562    1.3665   31.3567 N.2     1  UNL1       -0.0377
     11 C           2.6371    1.9423   31.2496 C.2     1  UNL1        0.1871
     12 C           2.9361    2.1626   29.7963 C.2     1  UNL1        0.0488
     13 C           1.7399    1.7229   29.0052 C.2     1  UNL1        0.0915
     14 C           1.4620    1.7070   27.5313 C.3     1  UNL1        0.1309
     15 C           0.6281    1.6594   23.1094 C.ar    1  UNL1        0.1167
     16 C           1.3279    0.6704   22.2249 C.ar    1  UNL1        0.1898
     17 F           2.3055   -0.3026   22.8144 F       1  UNL1       -0.1996
     18 C           1.0500    0.6545   20.7510 C.ar    1  UNL1        0.1704
     19 C           0.0724    1.6275   20.1615 C.ar    1  UNL1        0.0785
     20 C          -0.6274    2.6165   21.0460 C.ar    1  UNL1        0.1704
     21 C          -0.3495    2.6324   22.5200 C.ar    1  UNL1        0.1898
     22 F          -1.0493    3.6214   23.4045 F       1  UNL1       -0.1996
     23 O           1.7497   -0.3344   19.8665 O.3     1  UNL1       -0.4690
     24 C           2.5357    0.1438   18.6817 C.3     1  UNL1        0.2526
     25 O          -1.6050    3.5895   20.4566 O.3     1  UNL1       -0.4690
     26 C          -3.0778    3.3189   20.5442 C.3     1  UNL1        0.2526
     27 C           5.0547    1.8762   26.9138 C.3     1  UNL1        0.0233
     28 C           3.8165    2.7069   27.0765 C.3     1  UNL1        0.0956
     29 C           3.5575    2.2447   32.3948 C.3     1  UNL1        0.1471
     30 N           3.9139    1.1669   33.3753 N.3     1  UNL1       -0.2614
     31 C           4.2043    1.5190   34.8042 C.3     1  UNL1        0.1050
     32 C           4.5607    0.4413   35.7847 C.3     1  UNL1        0.1595
     33 O           4.6268   -0.9886   35.3364 O.3     1  UNL1       -0.3508
     34 C           4.3364   -1.3407   33.9075 C.3     1  UNL1        0.1595
     35 C           3.9800   -0.2630   32.9269 C.3     1  UNL1        0.1050
@<TRIPOS>BOND
     1    27    28    1
     2    28     1    1
     3     1     2   am
     4     2     3    2
     5     2     4   am
     6     4    15    1
     7    15    16   ar
     8    16    17    1
     9    16    18   ar
    10    18    23    1
    11    23    24    1
    12    18    19   ar
    13    19    20   ar
    14    20    25    1
    15    25    26    1
    16    20    21   ar
    17    21    22    1
    18     4     5    1
    19     5     6    1
    20     6     7    2
    21     7     8    1
    22     8     9    2
    23     9    10    1
    24    10    11    2
    25    11    29    1
    26    29    30    1
    27    30    31    1
    28    31    32    1
    29    32    33    1
    30    33    34    1
    31    34    35    1
    32    11    12    1
    33    12    13    2
    34    13    14    1
    35    14     1    1
    36    21    15   ar
    37    14     6    1
    38    13     9    1
    39    35    30    1
@<TRIPOS>MOLECULE
*****
 35 39 0 0 0
SMALL
GASTEIGER

@<TRIPOS>ATOM
      1 N           1.1332    1.4445   27.7747 N.am    1  UNL1       -0.2577
      2 C           1.4856    1.1067   29.1930 C.2     1  UNL1        0.3117
      3 O           0.5202    0.3338   30.0419 O.2     1  UNL1       -0.2520
      4 N           2.8033    1.5419   29.7624 N.am    1  UNL1       -0.2347
      5 C           3.7686    2.3147   28.9135 C.3     1  UNL1        0.1279
      6 C           3.4163    2.6526   27.4951 C.2     1  UNL1        0.0450
      7 C           4.3816    3.4255   26.6462 C.2     1  UNL1        0.2310
      8 N           4.0293    3.7633   25.2278 N.2     1  UNL1       -0.0313
      9 C           2.7115    3.3281   24.6584 C.2     1  UNL1        0.3731
     10 N           2.0928    3.5136   23.3046 N.2     1  UNL1       -0.0377
     11 C           0.7451    2.8552   23.3169 C.2     1  UNL1        0.1871
     12 C           0.5308    2.2629   24.6782 C.2     1  UNL1        0.0488
     13 C           1.7462    2.5552   25.5074 C.2     1  UNL1        0.0915
     14 C           2.0986    2.2174   26.9257 C.3     1  UNL1        0.1309
     15 C           3.1557    1.2040   31.1808 C.ar    1  UNL1        0.1167
     16 C           2.4882    1.9282   32.3122 C.ar    1  UNL1        0.1898
     17 F           1.4684    2.9902   32.0252 F       1  UNL1       -0.1996
     18 C           2.8405    1.5904   33.7306 C.ar    1  UNL1        0.1704
     19 C           3.8602    0.5285   34.0176 C.ar    1  UNL1        0.0785
     20 C           4.5277   -0.1957   32.8862 C.ar    1  UNL1        0.1704
     21 C           4.1754    0.1421   31.4678 C.ar    1  UNL1        0.1898
     22 F           4.8429   -0.5821   30.3363 F       1  UNL1       -0.1996
     23 O           2.1730    2.3146   34.8619 O.3     1  UNL1       -0.4690
     24 C           2.8582    2.4215   36.1921 C.3     1  UNL1        0.2526
     25 O           5.5474   -1.2576   33.1731 O.3     1  UNL1       -0.4690
     26 C           5.2603   -2.6875   32.8221 C.3     1  UNL1        0.2526
     27 C          -1.4440    1.7226   27.5989 C.3     1  UNL1        0.0233
     28 C          -0.1846    1.0094   27.2052 C.3     1  UNL1        0.0956
     29 C          -0.2192    2.7990   22.1692 C.3     1  UNL1        0.1471
     30 N           0.1526    2.0698   20.9123 N.3     1  UNL1       -0.2614
     31 C           0.1392    2.7889   19.5960 C.3     1  UNL1        0.1050
     32 C           0.5110    2.0597   18.3391 C.3     1  UNL1        0.1595
     33 O           0.8962    0.6112   18.3983 O.3     1  UNL1       -0.3508
     34 C           0.9096   -0.1080   19.7147 C.3     1  UNL1        0.1595
     35 C           0.5378    0.6213   20.9716 C.3     1  UNL1        0.1050
@<TRIPOS>BOND
     1    27    28    1
     2    28     1    1
     3     1     2   am
     4     2     3    2
     5     2     4   am
     6     4    15    1
     7    15    16   ar
     8    16    17    1
     9    16    18   ar
    10    18    23    1
    11    23    24    1
    12    18    19   ar
    13    19    20   ar
    14    20    25    1
    15    25    26    1
    16    20    21   ar
    17    21    22    1
    18     4     5    1
    19     5     6    1
    20     6     7    2
    21     7     8    1
    22     8     9    2
    23     9    10    1
    24    10    11    2
    25    11    29    1
    26    29    30    1
    27    30    31    1
    28    31    32    1
    29    32    33    1
    30    33    34    1
    31    34    35    1
    32    11    12    1
    33    12    13    2
    34    13    14    1
    35    14     1    1
    36    21    15   ar
    37    14     6    1
    38    13     9    1
    39    35    30    1
