@<TRIPOS>MOLECULE
*****
 29 33 0 0 0
SMALL
GASTEIGER

@<TRIPOS>ATOM
      1 C           5.8710    0.5703   34.1480 C.ar    1  UNL1        0.1383
      2 C           4.7205    0.0661   33.3282 C.ar    1  UNL1        0.0400
      3 C           4.9133   -1.0967   32.4005 C.ar    1  UNL1        0.0397
      4 C           6.2566   -1.7554   32.2926 C.ar    1  UNL1        0.1344
      5 C           7.4072   -1.2513   33.1124 C.ar    1  UNL1        0.0149
      6 C           7.2143   -0.0884   34.0402 C.ar    1  UNL1        0.0356
      7 C           8.7505   -1.9099   33.0046 C.3     1  UNL1        0.0331
      8 C           8.9433   -3.0728   32.0768 C.3     1  UNL1        0.0449
      9 C           7.7928   -3.5770   31.2570 C.3     1  UNL1        0.1361
     10 C           9.1361   -4.2356   31.1491 C.3     1  UNL1        0.0574
     11 C           9.3288   -5.3984   30.2214 C.3     1  UNL1        0.0756
     12 N           8.1783   -5.9026   29.4016 N.3     1  UNL1       -0.2737
     13 C           6.8350   -5.2439   29.5095 C.3     1  UNL1        0.0756
     14 C           6.6422   -4.0811   30.4372 C.3     1  UNL1        0.0574
     15 O           6.4494   -2.9182   31.3649 O.3     1  UNL1       -0.4828
     16 C           8.3711   -7.0655   28.4739 C.3     1  UNL1        0.0575
     17 C           9.2546   -8.2777   28.4619 C.3     1  UNL1        0.0160
     18 C           8.6438   -8.7099   27.1619 C.3     1  UNL1        0.0028
     19 C           7.7604   -7.4977   27.1739 C.3     1  UNL1        0.0160
     20 O           5.6783    1.7331   35.0757 O.3     1  UNL1       -0.4791
     21 C           0.2414    2.6084   39.1897 C.3     1  UNL1        0.0948
     22 C           1.3353    1.5824   39.2130 C.2     1  UNL1        0.2261
     23 O           1.3436    0.5187   40.2705 O.2     1  UNL1       -0.2749
     24 N           2.4211    1.6201   38.1786 N.am    1  UNL1       -0.2793
     25 C           2.4128    2.6838   37.1211 C.3     1  UNL1        0.0971
     26 C           3.4986    2.7214   36.0868 C.3     1  UNL1        0.0650
     27 C           4.5925    1.6954   36.1101 C.3     1  UNL1        0.1693
     28 C           4.6007    0.6317   37.1676 C.3     1  UNL1        0.0650
     29 C           3.5150    0.5941   38.2019 C.3     1  UNL1        0.0971
@<TRIPOS>BOND
     1    21    22    1
     2    22    23    2
     3    22    24   am
     4    24    25    1
     5    25    26    1
     6    26    27    1
     7    27    20    1
     8    20     1    1
     9     1     2   ar
    10     2     3   ar
    11     3     4   ar
    12     4     5   ar
    13     5     6   ar
    14     5     7    1
    15     7     8    1
    16     8     9    1
    17     9    10    1
    18    10    11    1
    19    11    12    1
    20    12    16    1
    21    16    17    1
    22    17    18    1
    23    18    19    1
    24    12    13    1
    25    13    14    1
    26     9    15    1
    27    27    28    1
    28    28    29    1
    29    29    24    1
    30     6     1   ar
    31    14     9    1
    32    15     4    1
    33    19    16    1
@<TRIPOS>MOLECULE
*****
 29 33 0 0 0
SMALL
GASTEIGER

@<TRIPOS>ATOM
      1 C           6.5486   -4.0738   24.1609 C.ar    1  UNL1        0.1383
      2 C           5.9962   -2.6855   24.2936 C.ar    1  UNL1        0.0400
      3 C           5.7999   -2.0832   25.6533 C.ar    1  UNL1        0.0397
      4 C           6.1560   -2.8692   26.8803 C.ar    1  UNL1        0.1344
      5 C           6.7085   -4.2574   26.7476 C.ar    1  UNL1        0.0149
      6 C           6.9047   -4.8597   25.3879 C.ar    1  UNL1        0.0356
      7 C           7.0646   -5.0434   27.9745 C.3     1  UNL1        0.0331
      8 C           6.8683   -4.4411   29.3343 C.3     1  UNL1        0.0449
      9 C           6.3159   -3.0529   29.4670 C.3     1  UNL1        0.1361
     10 C           6.6720   -3.8388   30.6939 C.3     1  UNL1        0.0574
     11 C           6.4757   -3.2365   32.0535 C.3     1  UNL1        0.0756
     12 N           5.9233   -1.8483   32.1862 N.3     1  UNL1       -0.2737
     13 C           5.5671   -1.0623   30.9593 C.3     1  UNL1        0.0756
     14 C           5.7634   -1.6646   29.5997 C.3     1  UNL1        0.0574
     15 O           5.9597   -2.2669   28.2399 O.3     1  UNL1       -0.4828
     16 C           5.7270   -1.2460   33.5460 C.3     1  UNL1        0.0575
     17 C           4.5929   -1.1862   34.5259 C.3     1  UNL1        0.0160
     18 C           5.4495   -0.3942   35.4689 C.3     1  UNL1        0.0028
     19 C           6.5835   -0.4540   34.4889 C.3     1  UNL1        0.0160
     20 O           6.7449   -4.6761   22.8013 O.3     1  UNL1       -0.4791
     21 C           4.1335   -1.2448   17.4481 C.3     1  UNL1        0.0948
     22 C           5.5535   -1.4447   17.8881 C.2     1  UNL1        0.2261
     23 O           6.6756   -0.8367   17.1000 O.2     1  UNL1       -0.2749
     24 N           5.8513   -2.2525   19.1165 N.am    1  UNL1       -0.2793
     25 C           4.7292   -2.8605   19.9046 C.3     1  UNL1        0.0971
     26 C           5.0271   -3.6683   21.1329 C.3     1  UNL1        0.0650
     27 C           6.4471   -3.8682   21.5730 C.3     1  UNL1        0.1693
     28 C           7.5692   -3.2603   20.7848 C.3     1  UNL1        0.0650
     29 C           7.2713   -2.4524   19.5565 C.3     1  UNL1        0.0971
@<TRIPOS>BOND
     1    21    22    1
     2    22    23    2
     3    22    24   am
     4    24    25    1
     5    25    26    1
     6    26    27    1
     7    27    20    1
     8    20     1    1
     9     1     2   ar
    10     2     3   ar
    11     3     4   ar
    12     4     5   ar
    13     5     6   ar
    14     5     7    1
    15     7     8    1
    16     8     9    1
    17     9    10    1
    18    10    11    1
    19    11    12    1
    20    12    16    1
    21    16    17    1
    22    17    18    1
    23    18    19    1
    24    12    13    1
    25    13    14    1
    26     9    15    1
    27    27    28    1
    28    28    29    1
    29    29    24    1
    30     6     1   ar
    31    14     9    1
    32    15     4    1
    33    19    16    1
@<TRIPOS>MOLECULE
*****
 29 33 0 0 0
SMALL
GASTEIGER

@<TRIPOS>ATOM
      1 C           6.8791   -4.2898   22.7319 C.ar    1  UNL1        0.1383
      2 C           7.7221   -5.0287   23.7285 C.ar    1  UNL1        0.0400
      3 C           7.6060   -4.7123   25.1901 C.ar    1  UNL1        0.0397
      4 C           6.6468   -3.6569   25.6552 C.ar    1  UNL1        0.1344
      5 C           5.8037   -2.9180   24.6585 C.ar    1  UNL1        0.0149
      6 C           5.9199   -3.2345   23.1968 C.ar    1  UNL1        0.0356
      7 C           4.8446   -1.8627   25.1235 C.3     1  UNL1        0.0331
      8 C           4.7284   -1.5462   26.5852 C.3     1  UNL1        0.0449
      9 C           5.5715   -2.2851   27.5818 C.3     1  UNL1        0.1361
     10 C           4.6123   -1.2298   28.0468 C.3     1  UNL1        0.0574
     11 C           4.4962   -0.9134   29.5084 C.3     1  UNL1        0.0756
     12 N           5.3392   -1.6523   30.5050 N.3     1  UNL1       -0.2737
     13 C           6.2984   -2.7076   30.0401 C.3     1  UNL1        0.0756
     14 C           6.4145   -3.0240   28.5784 C.3     1  UNL1        0.0574
     15 O           6.5307   -3.3405   27.1168 O.3     1  UNL1       -0.4828
     16 C           5.2231   -1.3358   31.9667 C.3     1  UNL1        0.0575
     17 C           5.4010   -0.1030   32.8025 C.3     1  UNL1        0.0160
     18 C           5.0588   -0.8883   34.0338 C.3     1  UNL1        0.0028
     19 C           4.8808   -2.1211   33.1980 C.3     1  UNL1        0.0160
     20 O           6.9952   -4.6062   21.2703 O.3     1  UNL1       -0.4791
     21 C           5.8893    0.6510   16.9821 C.3     1  UNL1        0.0948
     22 C           5.1328   -0.6286   17.1824 C.2     1  UNL1        0.2261
     23 O           3.9107   -0.9139   16.3609 O.2     1  UNL1       -0.2749
     24 N           5.5984   -1.6230   18.2044 N.am    1  UNL1       -0.2793
     25 C           6.8205   -1.3378   19.0260 C.3     1  UNL1        0.0971
     26 C           7.2861   -2.3322   20.0479 C.3     1  UNL1        0.0650
     27 C           6.5296   -3.6118   20.2483 C.3     1  UNL1        0.1693
     28 C           5.3074   -3.8971   19.4267 C.3     1  UNL1        0.0650
     29 C           4.8419   -2.9027   18.4048 C.3     1  UNL1        0.0971
@<TRIPOS>BOND
     1    21    22    1
     2    22    23    2
     3    22    24   am
     4    24    25    1
     5    25    26    1
     6    26    27    1
     7    27    20    1
     8    20     1    1
     9     1     2   ar
    10     2     3   ar
    11     3     4   ar
    12     4     5   ar
    13     5     6   ar
    14     5     7    1
    15     7     8    1
    16     8     9    1
    17     9    10    1
    18    10    11    1
    19    11    12    1
    20    12    16    1
    21    16    17    1
    22    17    18    1
    23    18    19    1
    24    12    13    1
    25    13    14    1
    26     9    15    1
    27    27    28    1
    28    28    29    1
    29    29    24    1
    30     6     1   ar
    31    14     9    1
    32    15     4    1
    33    19    16    1
@<TRIPOS>MOLECULE
*****
 29 33 0 0 0
SMALL
GASTEIGER

@<TRIPOS>ATOM
      1 C           0.2517    2.7965   19.1007 C.ar    1  UNL1        0.1383
      2 C           1.5794    3.4299   18.8075 C.ar    1  UNL1        0.0400
      3 C           2.8406    2.6319   18.9577 C.ar    1  UNL1        0.0397
      4 C           2.7741    1.2004   19.4011 C.ar    1  UNL1        0.1344
      5 C           1.4463    0.5670   19.6943 C.ar    1  UNL1        0.0149
      6 C           0.1851    1.3651   19.5441 C.ar    1  UNL1        0.0356
      7 C           1.3798   -0.8643   20.1377 C.3     1  UNL1        0.0331
      8 C           2.6410   -1.6625   20.2879 C.3     1  UNL1        0.0449
      9 C           3.9687   -1.0291   19.9947 C.3     1  UNL1        0.1361
     10 C           3.9021   -2.4605   20.4381 C.3     1  UNL1        0.0574
     11 C           5.1633   -3.2585   20.5883 C.3     1  UNL1        0.0756
     12 N           6.4910   -2.6251   20.2951 N.3     1  UNL1       -0.2737
     13 C           6.5576   -1.1937   19.8517 C.3     1  UNL1        0.0756
     14 C           5.2964   -0.3957   19.7015 C.3     1  UNL1        0.0574
     15 O           4.0352    0.4024   19.5513 O.3     1  UNL1       -0.4828
     16 C           7.7522   -3.4232   20.4453 C.3     1  UNL1        0.0575
     17 C           9.1765   -3.2484   20.0083 C.3     1  UNL1        0.0160
     18 C           9.5357   -4.5519   20.6578 C.3     1  UNL1        0.0028
     19 C           8.1114   -4.7267   21.0947 C.3     1  UNL1        0.0160
     20 O          -1.0095    3.5945   18.9505 O.3     1  UNL1       -0.4791
     21 C          -4.5869    3.7109   24.8190 C.3     1  UNL1        0.0948
     22 C          -5.0440    3.6929   23.3905 C.2     1  UNL1        0.2261
     23 O          -6.5097    3.6995   23.0719 O.2     1  UNL1       -0.2749
     24 N          -4.0353    3.6683   22.2805 N.am    1  UNL1       -0.2793
     25 C          -2.5696    3.6617   22.5990 C.3     1  UNL1        0.0971
     26 C          -1.5610    3.6371   21.4891 C.3     1  UNL1        0.0650
     27 C          -2.0181    3.6191   20.0605 C.3     1  UNL1        0.1693
     28 C          -3.4839    3.6257   19.7420 C.3     1  UNL1        0.0650
     29 C          -4.4925    3.6503   20.8520 C.3     1  UNL1        0.0971
@<TRIPOS>BOND
     1    21    22    1
     2    22    23    2
     3    22    24   am
     4    24    25    1
     5    25    26    1
     6    26    27    1
     7    27    20    1
     8    20     1    1
     9     1     2   ar
    10     2     3   ar
    11     3     4   ar
    12     4     5   ar
    13     5     6   ar
    14     5     7    1
    15     7     8    1
    16     8     9    1
    17     9    10    1
    18    10    11    1
    19    11    12    1
    20    12    16    1
    21    16    17    1
    22    17    18    1
    23    18    19    1
    24    12    13    1
    25    13    14    1
    26     9    15    1
    27    27    28    1
    28    28    29    1
    29    29    24    1
    30     6     1   ar
    31    14     9    1
    32    15     4    1
    33    19    16    1
@<TRIPOS>MOLECULE
*****
 29 33 0 0 0
SMALL
GASTEIGER

@<TRIPOS>ATOM
      1 C           2.5182    1.0825   23.5942 C.ar    1  UNL1        0.1383
      2 C           1.8234    1.5751   22.3595 C.ar    1  UNL1        0.0400
      3 C           0.4895    2.2522   22.4691 C.ar    1  UNL1        0.0397
      4 C          -0.1497    2.4367   23.8135 C.ar    1  UNL1        0.1344
      5 C           0.5451    1.9441   25.0483 C.ar    1  UNL1        0.0149
      6 C           1.8791    1.2669   24.9386 C.ar    1  UNL1        0.0356
      7 C          -0.0941    2.1286   26.3927 C.3     1  UNL1        0.0331
      8 C          -1.4281    2.8057   26.5024 C.3     1  UNL1        0.0449
      9 C          -2.1229    3.2984   25.2676 C.3     1  UNL1        0.1361
     10 C          -2.7620    3.4828   26.6120 C.3     1  UNL1        0.0574
     11 C          -4.0960    4.1599   26.7216 C.3     1  UNL1        0.0756
     12 N          -4.7908    4.6526   25.4869 N.3     1  UNL1       -0.2737
     13 C          -4.1516    4.4681   24.1425 C.3     1  UNL1        0.0756
     14 C          -2.8177    3.7910   24.0329 C.3     1  UNL1        0.0574
     15 O          -1.4837    3.1138   23.9232 O.3     1  UNL1       -0.4828
     16 C          -6.1248    5.3297   25.5966 C.3     1  UNL1        0.0575
     17 C          -7.3282    5.4524   24.7096 C.3     1  UNL1        0.0160
     18 C          -8.0113    6.2874   25.7518 C.3     1  UNL1        0.0028
     19 C          -6.8079    6.1647   26.6388 C.3     1  UNL1        0.0160
     20 O           3.8522    0.4053   23.4846 O.3     1  UNL1       -0.4791
     21 C           4.6996   -4.5415   18.7877 C.3     1  UNL1        0.0948
     22 C           5.0645   -3.0869   18.7586 C.2     1  UNL1        0.2261
     23 O           5.7324   -2.5053   17.5480 O.2     1  UNL1       -0.2749
     24 N           4.7614   -2.2138   19.9401 N.am    1  UNL1       -0.2793
     25 C           4.0935   -2.7954   21.1507 C.3     1  UNL1        0.0971
     26 C           3.7904   -1.9224   22.3321 C.3     1  UNL1        0.0650
     27 C           4.1553   -0.4677   22.3030 C.3     1  UNL1        0.1693
     28 C           4.8232    0.1139   21.0924 C.3     1  UNL1        0.0650
     29 C           5.1262   -0.7592   19.9110 C.3     1  UNL1        0.0971
@<TRIPOS>BOND
     1    21    22    1
     2    22    23    2
     3    22    24   am
     4    24    25    1
     5    25    26    1
     6    26    27    1
     7    27    20    1
     8    20     1    1
     9     1     2   ar
    10     2     3   ar
    11     3     4   ar
    12     4     5   ar
    13     5     6   ar
    14     5     7    1
    15     7     8    1
    16     8     9    1
    17     9    10    1
    18    10    11    1
    19    11    12    1
    20    12    16    1
    21    16    17    1
    22    17    18    1
    23    18    19    1
    24    12    13    1
    25    13    14    1
    26     9    15    1
    27    27    28    1
    28    28    29    1
    29    29    24    1
    30     6     1   ar
    31    14     9    1
    32    15     4    1
    33    19    16    1
@<TRIPOS>MOLECULE
*****
 29 33 0 0 0
SMALL
GASTEIGER

@<TRIPOS>ATOM
      1 C         -16.2076    1.6945   19.3671 C.ar    1  UNL1        0.1383
      2 C         -14.8684    1.9590   18.7451 C.ar    1  UNL1        0.0400
      3 C         -13.8895    0.8366   18.5667 C.ar    1  UNL1        0.0397
      4 C         -14.2496   -0.5504   19.0103 C.ar    1  UNL1        0.1344
      5 C         -15.5888   -0.8149   19.6322 C.ar    1  UNL1        0.0149
      6 C         -16.5677    0.3076   19.8106 C.ar    1  UNL1        0.0356
      7 C         -15.9489   -2.2018   20.0757 C.3     1  UNL1        0.0331
      8 C         -14.9700   -3.3242   19.8973 C.3     1  UNL1        0.0449
      9 C         -13.6308   -3.0597   19.2754 C.3     1  UNL1        0.1361
     10 C         -13.9910   -4.4466   19.7189 C.3     1  UNL1        0.0574
     11 C         -13.0121   -5.5690   19.5406 C.3     1  UNL1        0.0756
     12 N         -11.6730   -5.3045   18.9186 N.3     1  UNL1       -0.2737
     13 C         -11.3128   -3.9176   18.4751 C.3     1  UNL1        0.0756
     14 C         -12.2917   -2.7952   18.6535 C.3     1  UNL1        0.0574
     15 O         -13.2707   -1.6727   18.8319 O.3     1  UNL1       -0.4828
     16 C         -10.6940   -6.4270   18.7402 C.3     1  UNL1        0.0575
     17 C          -9.3172   -6.7256   19.2554 C.3     1  UNL1        0.0160
     18 C          -9.3096   -8.0144   18.4879 C.3     1  UNL1        0.0028
     19 C         -10.6863   -7.7157   17.9727 C.3     1  UNL1        0.0160
     20 O         -17.1865    2.8169   19.5454 O.3     1  UNL1       -0.4791
     21 C         -18.0189    5.4865   25.8248 C.3     1  UNL1        0.0948
     22 C         -18.8494    4.4994   25.0595 C.2     1  UNL1        0.2261
     23 O         -20.0957    3.9329   25.6726 O.2     1  UNL1       -0.2749
     24 N         -18.4337    4.0788   23.6809 N.am    1  UNL1       -0.2793
     25 C         -17.1874    4.6452   23.0678 C.3     1  UNL1        0.0971
     26 C         -16.7717    4.2246   21.6894 C.3     1  UNL1        0.0650
     27 C         -17.6023    3.2375   20.9240 C.3     1  UNL1        0.1693
     28 C         -18.8485    2.6710   21.5371 C.3     1  UNL1        0.0650
     29 C         -19.2642    3.0916   22.9155 C.3     1  UNL1        0.0971
@<TRIPOS>BOND
     1    21    22    1
     2    22    23    2
     3    22    24   am
     4    24    25    1
     5    25    26    1
     6    26    27    1
     7    27    20    1
     8    20     1    1
     9     1     2   ar
    10     2     3   ar
    11     3     4   ar
    12     4     5   ar
    13     5     6   ar
    14     5     7    1
    15     7     8    1
    16     8     9    1
    17     9    10    1
    18    10    11    1
    19    11    12    1
    20    12    16    1
    21    16    17    1
    22    17    18    1
    23    18    19    1
    24    12    13    1
    25    13    14    1
    26     9    15    1
    27    27    28    1
    28    28    29    1
    29    29    24    1
    30     6     1   ar
    31    14     9    1
    32    15     4    1
    33    19    16    1
@<TRIPOS>MOLECULE
*****
 29 33 0 0 0
SMALL
GASTEIGER

@<TRIPOS>ATOM
      1 C          -0.2800    2.1423   20.9937 C.ar    1  UNL1        0.1383
      2 C           0.1244    2.3659   22.4207 C.ar    1  UNL1        0.0400
      3 C           1.1633    1.4875   23.0523 C.ar    1  UNL1        0.0397
      4 C           1.7980    0.3854   22.2568 C.ar    1  UNL1        0.1344
      5 C           1.3936    0.1618   20.8297 C.ar    1  UNL1        0.0149
      6 C           0.3546    1.0403   20.1982 C.ar    1  UNL1        0.0356
      7 C           2.0282   -0.9402   20.0342 C.3     1  UNL1        0.0331
      8 C           3.0672   -1.8187   20.6658 C.3     1  UNL1        0.0449
      9 C           3.4716   -1.5951   22.0928 C.3     1  UNL1        0.1361
     10 C           4.1061   -2.6971   21.2973 C.3     1  UNL1        0.0574
     11 C           5.1451   -3.5755   21.9289 C.3     1  UNL1        0.0756
     12 N           5.5495   -3.3519   23.3560 N.3     1  UNL1       -0.2737
     13 C           4.9149   -2.2499   24.1514 C.3     1  UNL1        0.0756
     14 C           3.8759   -1.3715   23.5199 C.3     1  UNL1        0.0574
     15 O           2.8369   -0.4930   22.8883 O.3     1  UNL1       -0.4828
     16 C           6.5885   -4.2304   23.9875 C.3     1  UNL1        0.0575
     17 C           7.7791   -4.9932   23.4870 C.3     1  UNL1        0.0160
     18 C           8.0578   -5.4727   24.8807 C.3     1  UNL1        0.0028
     19 C           6.8672   -4.7099   25.3812 C.3     1  UNL1        0.0160
     20 O          -1.3190    3.0207   20.3621 O.3     1  UNL1       -0.4791
     21 C          -6.3050    4.7032   24.7847 C.3     1  UNL1        0.0948
     22 C          -6.3664    4.3129   23.3377 C.2     1  UNL1        0.2261
     23 O          -7.6896    4.2457   22.6345 O.2     1  UNL1       -0.2749
     24 N          -5.1045    3.9899   22.5938 N.am    1  UNL1       -0.2793
     25 C          -3.7812    4.0571   23.2969 C.3     1  UNL1        0.0971
     26 C          -2.5194    3.7341   22.5530 C.3     1  UNL1        0.0650
     27 C          -2.5809    3.3438   21.1060 C.3     1  UNL1        0.1693
     28 C          -3.9041    3.2765   20.4029 C.3     1  UNL1        0.0650
     29 C          -5.1659    3.5995   21.1467 C.3     1  UNL1        0.0971
@<TRIPOS>BOND
     1    21    22    1
     2    22    23    2
     3    22    24   am
     4    24    25    1
     5    25    26    1
     6    26    27    1
     7    27    20    1
     8    20     1    1
     9     1     2   ar
    10     2     3   ar
    11     3     4   ar
    12     4     5   ar
    13     5     6   ar
    14     5     7    1
    15     7     8    1
    16     8     9    1
    17     9    10    1
    18    10    11    1
    19    11    12    1
    20    12    16    1
    21    16    17    1
    22    17    18    1
    23    18    19    1
    24    12    13    1
    25    13    14    1
    26     9    15    1
    27    27    28    1
    28    28    29    1
    29    29    24    1
    30     6     1   ar
    31    14     9    1
    32    15     4    1
    33    19    16    1
@<TRIPOS>MOLECULE
*****
 29 33 0 0 0
SMALL
GASTEIGER

@<TRIPOS>ATOM
      1 C           0.4918    3.8909   17.9290 C.ar    1  UNL1        0.1383
      2 C           1.9238    4.3318   17.8570 C.ar    1  UNL1        0.0400
      3 C           3.0181    3.3992   18.2843 C.ar    1  UNL1        0.0397
      4 C           2.6805    2.0256   18.7837 C.ar    1  UNL1        0.1344
      5 C           1.2486    1.5847   18.8557 C.ar    1  UNL1        0.0149
      6 C           0.1542    2.5174   18.4284 C.ar    1  UNL1        0.0356
      7 C           0.9110    0.2112   19.3551 C.3     1  UNL1        0.0331
      8 C           2.0054   -0.7215   19.7824 C.3     1  UNL1        0.0449
      9 C           3.4373   -0.2806   19.7104 C.3     1  UNL1        0.1361
     10 C           3.0997   -1.6541   20.2097 C.3     1  UNL1        0.0574
     11 C           4.1940   -2.5868   20.6370 C.3     1  UNL1        0.0756
     12 N           5.6259   -2.1458   20.5650 N.3     1  UNL1       -0.2737
     13 C           5.9635   -0.7723   20.0656 C.3     1  UNL1        0.0756
     14 C           4.8692    0.1603   19.6383 C.3     1  UNL1        0.0574
     15 O           3.7748    1.0930   19.2110 O.3     1  UNL1       -0.4828
     16 C           6.7203   -3.0785   20.9923 C.3     1  UNL1        0.0575
     17 C           6.8970   -4.0663   22.1073 C.3     1  UNL1        0.0160
     18 C           8.2679   -4.3975   21.5966 C.3     1  UNL1        0.0028
     19 C           8.0912   -3.4098   20.4816 C.3     1  UNL1        0.0160
     20 O          -0.6025    4.8235   17.5017 O.3     1  UNL1       -0.4791
     21 C          -6.5258    4.3360   20.9553 C.3     1  UNL1        0.0948
     22 C          -6.1923    4.0178   19.5278 C.2     1  UNL1        0.2261
     23 O          -7.2562    3.4982   18.6070 O.2     1  UNL1       -0.2749
     24 N          -4.7948    4.2193   19.0213 N.am    1  UNL1       -0.2793
     25 C          -3.7309    4.7389   19.9422 C.3     1  UNL1        0.0971
     26 C          -2.3335    4.9403   19.4357 C.3     1  UNL1        0.0650
     27 C          -2.0000    4.6221   18.0083 C.3     1  UNL1        0.1693
     28 C          -3.0639    4.1025   17.0874 C.3     1  UNL1        0.0650
     29 C          -4.4613    3.9011   17.5939 C.3     1  UNL1        0.0971
@<TRIPOS>BOND
     1    21    22    1
     2    22    23    2
     3    22    24   am
     4    24    25    1
     5    25    26    1
     6    26    27    1
     7    27    20    1
     8    20     1    1
     9     1     2   ar
    10     2     3   ar
    11     3     4   ar
    12     4     5   ar
    13     5     6   ar
    14     5     7    1
    15     7     8    1
    16     8     9    1
    17     9    10    1
    18    10    11    1
    19    11    12    1
    20    12    16    1
    21    16    17    1
    22    17    18    1
    23    18    19    1
    24    12    13    1
    25    13    14    1
    26     9    15    1
    27    27    28    1
    28    28    29    1
    29    29    24    1
    30     6     1   ar
    31    14     9    1
    32    15     4    1
    33    19    16    1
@<TRIPOS>MOLECULE
*****
 29 33 0 0 0
SMALL
GASTEIGER

@<TRIPOS>ATOM
      1 C           1.9885    1.5809   22.5561 C.ar    1  UNL1        0.1383
      2 C           3.2814    2.1126   23.1000 C.ar    1  UNL1        0.0400
      3 C           3.4381    2.3391   24.5744 C.ar    1  UNL1        0.0397
      4 C           2.3020    2.0338   25.5051 C.ar    1  UNL1        0.1344
      5 C           1.0092    1.5021   24.9613 C.ar    1  UNL1        0.0149
      6 C           0.8524    1.2756   23.4867 C.ar    1  UNL1        0.0356
      7 C          -0.1269    1.1968   25.8919 C.3     1  UNL1        0.0331
      8 C           0.0298    1.4233   27.3665 C.3     1  UNL1        0.0449
      9 C           1.3227    1.9551   27.9103 C.3     1  UNL1        0.1361
     10 C           0.1866    1.6498   28.8409 C.3     1  UNL1        0.0574
     11 C           0.3434    1.8763   30.3154 C.3     1  UNL1        0.0756
     12 N           1.6363    2.4080   30.8592 N.3     1  UNL1       -0.2737
     13 C           2.7723    2.7133   29.9286 C.3     1  UNL1        0.0756
     14 C           2.6155    2.4868   28.4542 C.3     1  UNL1        0.0574
     15 O           2.4588    2.2603   26.9796 O.3     1  UNL1       -0.4828
     16 C           1.7930    2.6345   32.3338 C.3     1  UNL1        0.0575
     17 C           2.4985    1.9193   33.4477 C.3     1  UNL1        0.0160
     18 C           2.0146    2.9548   34.4190 C.3     1  UNL1        0.0028
     19 C           1.3091    3.6700   33.3051 C.3     1  UNL1        0.0160
     20 O           1.8317    1.3544   21.0817 O.3     1  UNL1       -0.4791
     21 C           4.9784   -4.2022   18.5376 C.3     1  UNL1        0.0948
     22 C           5.2200   -2.7412   18.2986 C.2     1  UNL1        0.2261
     23 O           6.3086   -2.3041   17.3638 O.2     1  UNL1       -0.2749
     24 N           4.3729   -1.7173   18.9944 N.am    1  UNL1       -0.2793
     25 C           3.2843   -2.1544   19.9291 C.3     1  UNL1        0.0971
     26 C           2.4372   -1.1305   20.6249 C.3     1  UNL1        0.0650
     27 C           2.6788    0.3305   20.3859 C.3     1  UNL1        0.1693
     28 C           3.7674    0.7676   19.4511 C.3     1  UNL1        0.0650
     29 C           4.6145   -0.2563   18.7554 C.3     1  UNL1        0.0971
@<TRIPOS>BOND
     1    21    22    1
     2    22    23    2
     3    22    24   am
     4    24    25    1
     5    25    26    1
     6    26    27    1
     7    27    20    1
     8    20     1    1
     9     1     2   ar
    10     2     3   ar
    11     3     4   ar
    12     4     5   ar
    13     5     6   ar
    14     5     7    1
    15     7     8    1
    16     8     9    1
    17     9    10    1
    18    10    11    1
    19    11    12    1
    20    12    16    1
    21    16    17    1
    22    17    18    1
    23    18    19    1
    24    12    13    1
    25    13    14    1
    26     9    15    1
    27    27    28    1
    28    28    29    1
    29    29    24    1
    30     6     1   ar
    31    14     9    1
    32    15     4    1
    33    19    16    1
