@<TRIPOS>MOLECULE
*****
 36 38 0 0 0
SMALL
GASTEIGER

@<TRIPOS>ATOM
      1 N           4.3488   -1.1141   29.6065 N.am    1  UNL1       -0.2560
      2 C           3.2097   -0.6140   30.4445 C.3     1  UNL1        0.1394
      3 C           2.2227    0.0543   29.5338 C.ar    1  UNL1        0.0662
      4 C           0.9087    0.7764   29.4890 C.ar    1  UNL1        0.0247
      5 C           0.6257    1.1355   28.0604 C.ar    1  UNL1        0.0614
      6 C           1.7648    0.6354   27.2223 C.ar    1  UNL1        0.0922
      7 N           2.7518   -0.0328   28.1330 N.ar    1  UNL1       -0.2624
      8 C           4.0658   -0.7549   28.1778 C.2     1  UNL1        0.3234
      9 O           4.9428   -1.0636   27.0007 O.2     1  UNL1       -0.2490
     10 C          -0.5840    1.8665   27.5580 C.1     1  UNL1       -0.0497
     11 C          -1.7936    2.5974   27.0557 C.1     1  UNL1       -0.0095
     12 C          -3.0033    3.3285   26.5533 C.1     1  UNL1       -0.0138
     13 C          -4.2130    4.0594   26.0509 C.1     1  UNL1       -0.0788
     14 C          -5.4226    4.7904   25.5486 C.3     1  UNL1        0.0676
     15 C          -6.3890    5.9323   25.6584 C.3     1  UNL1        0.0165
     16 C          -6.5515    4.9146   24.5686 C.3     1  UNL1        0.0424
     17 C          -7.2971    4.3986   23.3737 C.3     1  UNL1        0.1406
     18 O          -8.5974    3.6734   23.5566 O.3     1  UNL1       -0.3819
     19 H          -8.9448    3.4091   22.6904 H       1  UNL1        0.2104
     20 C          -6.7423    4.6077   21.9958 C.3     1  UNL1        0.1663
     21 O          -7.6351    5.0972   20.8942 O.3     1  UNL1       -0.3795
     22 H          -8.3060    4.4245   20.6987 H       1  UNL1        0.2105
     23 C           5.5584   -1.8451   30.1088 C.3     1  UNL1        0.0977
     24 C           5.6723   -2.1967   31.5626 C.3     1  UNL1        0.0524
     25 C           8.3579   -2.1984   32.8995 C.3     1  UNL1        0.0331
     26 C           7.0151   -2.1975   32.2310 C.3     1  UNL1        0.1820
     27 C           7.1881   -3.6460   31.8818 C.2     1  UNL1        0.2640
     28 O           8.2301   -4.0578   30.8845 O.2     1  UNL1       -0.2713
     29 N           6.3190   -4.6827   32.5298 N.am    1  UNL1       -0.1956
     30 O           6.4920   -6.1312   32.1806 O.3     1  UNL1       -0.2951
     31 H           5.6351   -4.4124   33.1844 H       1  UNL1        0.1823
     32 H           7.2020   -6.2234   31.5262 H       1  UNL1        0.2414
     33 S           6.8422   -0.7491   32.5803 S.O2    1  UNL1       -0.0034
     34 C           6.6694    0.6995   32.9295 C.3     1  UNL1        0.1765
     35 O           8.0937   -0.4171   31.8228 O.2     1  UNL1       -0.1726
     36 O           5.5909   -1.0810   33.3377 O.2     1  UNL1       -0.1726
@<TRIPOS>BOND
     1    26    25    1
     2    26    24    1
     3    24    23    1
     4    23     1    1
     5     1     2    1
     6     2     3    1
     7     3     4   ar
     8     4     5   ar
     9     5    10    1
    10    10    11    3
    11    11    12    1
    12    12    13    3
    13    14    13    1
    14    14    15    1
    15    16    15    1
    16    16    17    1
    17    17    18    1
    18    17    20    1
    19    20    21    1
    20     5     6   ar
    21     6     7   ar
    22     7     8   am
    23     8     9    2
    24    26    27    1
    25    27    28    2
    26    27    29   am
    27    29    30    1
    28    26    33    1
    29    33    34    1
    30    33    35    2
    31    33    36    2
    32     8     1   am
    33     7     3   ar
    34    16    14    1
    35    18    19    1
    36    21    22    1
    37    29    31    1
    38    30    32    1
@<TRIPOS>MOLECULE
*****
 36 38 0 0 0
SMALL
GASTEIGER

@<TRIPOS>ATOM
      1 N          -3.2179    3.8311   24.4756 N.am    1  UNL1       -0.2560
      2 C          -1.8851    3.2303   24.1399 C.3     1  UNL1        0.1394
      3 C          -1.3061    2.6545   25.3982 C.ar    1  UNL1        0.0662
      4 C          -0.1245    1.9272   25.9683 C.ar    1  UNL1        0.0247
      5 C          -0.3693    1.7227   27.4340 C.ar    1  UNL1        0.0614
      6 C          -1.7021    2.3235   27.7697 C.ar    1  UNL1        0.0922
      7 N          -2.2811    2.8993   26.5115 N.ar    1  UNL1       -0.2624
      8 C          -3.4626    3.6266   25.9413 C.2     1  UNL1        0.3234
      9 O          -4.6759    4.0712   26.7031 O.2     1  UNL1       -0.2490
     10 C           0.5563    1.0376   28.3953 C.1     1  UNL1       -0.0497
     11 C           1.4818    0.3525   29.3565 C.1     1  UNL1       -0.0095
     12 C           2.4075   -0.3325   30.3177 C.1     1  UNL1       -0.0138
     13 C           3.3331   -1.0177   31.2789 C.1     1  UNL1       -0.0788
     14 C           4.2587   -1.7028   32.2400 C.3     1  UNL1        0.0676
     15 C           4.5807   -2.1586   33.6323 C.3     1  UNL1        0.0165
     16 C           5.5400   -2.4336   32.5125 C.3     1  UNL1        0.0424
     17 C           6.8336   -3.0142   32.0233 C.3     1  UNL1        0.1406
     18 O           8.0725   -2.1689   31.9962 O.3     1  UNL1       -0.3819
     19 H           8.8142   -2.6930   31.6554 H       1  UNL1        0.2104
     20 C           6.8885   -4.4403   31.5611 C.3     1  UNL1        0.1663
     21 O           6.5087   -5.5477   32.4988 O.3     1  UNL1       -0.3795
     22 H           7.1483   -5.5884   33.2270 H       1  UNL1        0.2105
     23 C          -4.1434    4.5162   23.5144 C.3     1  UNL1        0.0977
     24 C          -5.1604    3.7176   22.7540 C.3     1  UNL1        0.0524
     25 C          -6.2260    4.7424   20.1436 C.3     1  UNL1        0.0331
     26 C          -5.6931    4.2300   21.4488 C.3     1  UNL1        0.1820
     27 C          -6.9863    4.5903   22.1181 C.2     1  UNL1        0.2640
     28 O          -7.6414    5.9073   21.8243 O.2     1  UNL1       -0.2713
     29 N          -7.6243    3.6337   23.0813 N.am    1  UNL1       -0.1956
     30 O          -8.9175    3.9940   23.7506 O.3     1  UNL1       -0.2951
     31 H          -7.1944    2.7693   23.2742 H       1  UNL1        0.1823
     32 H          -9.2022    4.8720   23.4524 H       1  UNL1        0.2414
     33 S          -4.4001    3.8697   20.7795 S.O2    1  UNL1       -0.0034
     34 C          -3.1070    3.5093   20.1101 C.3     1  UNL1        0.1765
     35 O          -4.5488    2.4545   21.2541 O.2     1  UNL1       -0.1726
     36 O          -4.2514    5.2847   20.3049 O.2     1  UNL1       -0.1726
@<TRIPOS>BOND
     1    26    25    1
     2    26    24    1
     3    24    23    1
     4    23     1    1
     5     1     2    1
     6     2     3    1
     7     3     4   ar
     8     4     5   ar
     9     5    10    1
    10    10    11    3
    11    11    12    1
    12    12    13    3
    13    14    13    1
    14    14    15    1
    15    16    15    1
    16    16    17    1
    17    17    18    1
    18    17    20    1
    19    20    21    1
    20     5     6   ar
    21     6     7   ar
    22     7     8   am
    23     8     9    2
    24    26    27    1
    25    27    28    2
    26    27    29   am
    27    29    30    1
    28    26    33    1
    29    33    34    1
    30    33    35    2
    31    33    36    2
    32     8     1   am
    33     7     3   ar
    34    16    14    1
    35    18    19    1
    36    21    22    1
    37    29    31    1
    38    30    32    1
@<TRIPOS>MOLECULE
*****
 36 38 0 0 0
SMALL
GASTEIGER

@<TRIPOS>ATOM
      1 N           6.7779   -0.9418   32.0609 N.am    1  UNL1       -0.2560
      2 C           6.7526    0.0669   30.9509 C.3     1  UNL1        0.1394
      3 C           6.4181   -0.6529   29.6780 C.ar    1  UNL1        0.0662
      4 C           6.1958   -0.4742   28.2054 C.ar    1  UNL1        0.0247
      5 C           5.8770   -1.8174   27.6185 C.ar    1  UNL1        0.0614
      6 C           5.9022   -2.8260   28.7285 C.ar    1  UNL1        0.0922
      7 N           6.2367   -2.1063   30.0013 N.ar    1  UNL1       -0.2624
      8 C           6.4590   -2.2849   31.4740 C.2     1  UNL1        0.3234
      9 O           6.3769   -3.5794   32.2274 O.2     1  UNL1       -0.2490
     10 C           5.5842   -2.1019   26.1752 C.1     1  UNL1       -0.0497
     11 C           5.2915   -2.3864   24.7318 C.1     1  UNL1       -0.0095
     12 C           4.9987   -2.6709   23.2884 C.1     1  UNL1       -0.0138
     13 C           4.7059   -2.9555   21.8450 C.1     1  UNL1       -0.0788
     14 C           4.4131   -3.2400   20.4017 C.3     1  UNL1        0.0676
     15 C           3.7100   -4.0515   19.3543 C.3     1  UNL1        0.0165
     16 C           4.6090   -2.9214   18.9490 C.3     1  UNL1        0.0424
     17 C           5.2413   -2.0849   17.8765 C.3     1  UNL1        0.1406
     18 O           6.6816   -2.2941   17.5134 O.3     1  UNL1       -0.3819
     19 H           6.9302   -1.6767   16.8078 H       1  UNL1        0.2104
     20 C           4.4333   -1.0390   17.1669 C.3     1  UNL1        0.1663
     21 O           3.5627   -1.4227   16.0072 O.3     1  UNL1       -0.3795
     22 H           4.1184   -1.7251   15.2719 H       1  UNL1        0.2105
     23 C           7.0706   -0.6573   33.5042 C.3     1  UNL1        0.0977
     24 C           5.9460   -0.5544   34.4915 C.3     1  UNL1        0.0524
     25 C           3.5031    1.0523   33.8204 C.3     1  UNL1        0.0331
     26 C           4.7246    0.2489   34.1560 C.3     1  UNL1        0.1820
     27 C           4.0788   -0.9747   33.5766 C.2     1  UNL1        0.2640
     28 O           3.3205   -0.8827   32.2858 O.2     1  UNL1       -0.2713
     29 N           4.1914   -2.2904   34.2882 N.am    1  UNL1       -0.1956
     30 O           3.5456   -3.5141   33.7089 O.3     1  UNL1       -0.2951
     31 H           4.6891   -2.3508   35.1355 H       1  UNL1        0.1823
     32 H           3.0999   -3.2823   32.8791 H       1  UNL1        0.2414
     33 S           5.3702    1.4726   34.7352 S.O2    1  UNL1       -0.0034
     34 C           6.0159    2.6963   35.3147 C.3     1  UNL1        0.1765
     35 O           5.3795    0.8268   36.0891 O.2     1  UNL1       -0.1726
     36 O           5.3609    2.1185   33.3815 O.2     1  UNL1       -0.1726
@<TRIPOS>BOND
     1    26    25    1
     2    26    24    1
     3    24    23    1
     4    23     1    1
     5     1     2    1
     6     2     3    1
     7     3     4   ar
     8     4     5   ar
     9     5    10    1
    10    10    11    3
    11    11    12    1
    12    12    13    3
    13    14    13    1
    14    14    15    1
    15    16    15    1
    16    16    17    1
    17    17    18    1
    18    17    20    1
    19    20    21    1
    20     5     6   ar
    21     6     7   ar
    22     7     8   am
    23     8     9    2
    24    26    27    1
    25    27    28    2
    26    27    29   am
    27    29    30    1
    28    26    33    1
    29    33    34    1
    30    33    35    2
    31    33    36    2
    32     8     1   am
    33     7     3   ar
    34    16    14    1
    35    18    19    1
    36    21    22    1
    37    29    31    1
    38    30    32    1
@<TRIPOS>MOLECULE
*****
 36 38 0 0 0
SMALL
GASTEIGER

@<TRIPOS>ATOM
      1 N           4.0064   -1.5938   23.4201 N.am    1  UNL1       -0.2560
      2 C           3.2192   -0.6303   24.2581 C.3     1  UNL1        0.1394
      3 C           3.6765   -0.7714   25.6797 C.ar    1  UNL1        0.0662
      4 C           3.4726   -0.2631   27.0761 C.ar    1  UNL1        0.0247
      5 C           4.4163   -0.9997   27.9799 C.ar    1  UNL1        0.0614
      6 C           5.2035   -1.9632   27.1420 C.ar    1  UNL1        0.0922
      7 N           4.7462   -1.8221   25.7204 N.ar    1  UNL1       -0.2624
      8 C           4.9501   -2.3304   24.3239 C.2     1  UNL1        0.3234
      9 O           5.9263   -3.3893   23.9048 O.2     1  UNL1       -0.2490
     10 C           4.5495   -0.8067   29.4614 C.1     1  UNL1       -0.0497
     11 C           4.6828   -0.6136   30.9430 C.1     1  UNL1       -0.0095
     12 C           4.8159   -0.4206   32.4246 C.1     1  UNL1       -0.0138
     13 C           4.9489   -0.2276   33.9062 C.1     1  UNL1       -0.0788
     14 C           5.0820   -0.0345   35.3876 C.3     1  UNL1        0.0676
     15 C           5.8512   -0.2343   36.6598 C.3     1  UNL1        0.0165
     16 C           4.5433    0.4996   36.6817 C.3     1  UNL1        0.0424
     17 C           3.4771    1.2318   37.4414 C.3     1  UNL1        0.1406
     18 O           2.4032    1.9726   36.7011 O.3     1  UNL1       -0.3819
     19 H           1.7991    2.3870   37.3370 H       1  UNL1        0.2104
     20 C           3.4848    1.2232   38.9414 C.3     1  UNL1        0.1663
     21 O           2.5944    0.2766   39.6906 O.3     1  UNL1       -0.3795
     22 H           1.6667    0.5132   39.5343 H       1  UNL1        0.2105
     23 C           3.8732   -1.7868   21.9386 C.3     1  UNL1        0.0977
     24 C           5.0709   -1.6239   21.0503 C.3     1  UNL1        0.0524
     25 C           5.1626   -3.0034   18.3880 C.3     1  UNL1        0.0331
     26 C           5.1167   -2.3136   19.7192 C.3     1  UNL1        0.1820
     27 C           5.5443   -3.5841   20.3922 C.2     1  UNL1        0.2640
     28 O           4.6794   -4.8066   20.3055 O.2     1  UNL1       -0.2713
     29 N           6.8368   -3.6322   21.1519 N.am    1  UNL1       -0.1956
     30 O           7.2644   -4.9028   21.8249 O.3     1  UNL1       -0.2951
     31 H           7.4045   -2.8299   21.2087 H       1  UNL1        0.1823
     32 H           6.5971   -5.5900   21.6720 H       1  UNL1        0.2414
     33 S           4.6892   -1.0432   19.0461 S.O2    1  UNL1       -0.0034
     34 C           4.2617    0.2273   18.3730 C.3     1  UNL1        0.1765
     35 O           5.9132   -0.3531   19.5711 O.2     1  UNL1       -0.1726
     36 O           3.4652   -1.7332   18.5211 O.2     1  UNL1       -0.1726
@<TRIPOS>BOND
     1    26    25    1
     2    26    24    1
     3    24    23    1
     4    23     1    1
     5     1     2    1
     6     2     3    1
     7     3     4   ar
     8     4     5   ar
     9     5    10    1
    10    10    11    3
    11    11    12    1
    12    12    13    3
    13    14    13    1
    14    14    15    1
    15    16    15    1
    16    16    17    1
    17    17    18    1
    18    17    20    1
    19    20    21    1
    20     5     6   ar
    21     6     7   ar
    22     7     8   am
    23     8     9    2
    24    26    27    1
    25    27    28    2
    26    27    29   am
    27    29    30    1
    28    26    33    1
    29    33    34    1
    30    33    35    2
    31    33    36    2
    32     8     1   am
    33     7     3   ar
    34    16    14    1
    35    18    19    1
    36    21    22    1
    37    29    31    1
    38    30    32    1
@<TRIPOS>MOLECULE
*****
 36 38 0 0 0
SMALL
GASTEIGER

@<TRIPOS>ATOM
      1 N           2.8873    1.3416   32.4239 N.am    1  UNL1       -0.2560
      2 C           2.6335    2.2276   31.2404 C.3     1  UNL1        0.1394
      3 C           2.8505    1.4153   29.9982 C.ar    1  UNL1        0.0662
      4 C           2.8277    1.4608   28.4991 C.ar    1  UNL1        0.0247
      5 C           3.2015    0.1009   27.9883 C.ar    1  UNL1        0.0614
      6 C           3.4553   -0.7852   29.1718 C.ar    1  UNL1        0.0922
      7 N           3.2383    0.0272   30.4140 N.ar    1  UNL1       -0.2624
      8 C           3.2611   -0.0183   31.9131 C.2     1  UNL1        0.3234
      9 O           3.5984   -1.2139   32.7539 O.2     1  UNL1       -0.2490
     10 C           3.3036   -0.3023   26.5471 C.1     1  UNL1       -0.0497
     11 C           3.4057   -0.7055   25.1059 C.1     1  UNL1       -0.0095
     12 C           3.5079   -1.1087   23.6647 C.1     1  UNL1       -0.0138
     13 C           3.6102   -1.5120   22.2236 C.1     1  UNL1       -0.0788
     14 C           3.7124   -1.9152   20.7825 C.3     1  UNL1        0.0676
     15 C           3.4580   -2.9126   19.6914 C.3     1  UNL1        0.0165
     16 C           4.1440   -1.6162   19.3773 C.3     1  UNL1        0.0424
     17 C           4.7892   -0.6951   18.3847 C.3     1  UNL1        0.1406
     18 O           6.1455   -0.1198   18.6668 O.3     1  UNL1       -0.3819
     19 H           6.4146    0.4502   17.9296 H       1  UNL1        0.2104
     20 C           4.0781   -0.3493   17.1100 C.3     1  UNL1        0.1663
     21 O           3.6989   -1.4331   16.1449 O.3     1  UNL1       -0.3795
     22 H           4.5019   -1.8356   15.7788 H       1  UNL1        0.2105
     23 C           2.7852    1.7448   33.8650 C.3     1  UNL1        0.0977
     24 C           4.0142    2.1657   34.6150 C.3     1  UNL1        0.0524
     25 C           4.5550    1.0587   37.3503 C.3     1  UNL1        0.0331
     26 C           4.2846    1.6122   35.9826 C.3     1  UNL1        0.1820
     27 C           3.2928    2.5734   36.5677 C.2     1  UNL1        0.2640
     28 O           3.4751    4.0497   36.3743 O.2     1  UNL1       -0.2713
     29 N           2.1187    2.0584   37.3463 N.am    1  UNL1       -0.1956
     30 O           1.1269    3.0196   37.9314 O.3     1  UNL1       -0.2951
     31 H           1.9990    1.0895   37.4732 H       1  UNL1        0.1823
     32 H           1.3906    3.9277   37.7154 H       1  UNL1        0.2414
     33 S           5.2764    0.6510   35.3976 S.O2    1  UNL1       -0.0034
     34 C           6.2683   -0.3102   34.8125 C.3     1  UNL1        0.1765
     35 O           6.0502    1.7998   34.8218 O.2     1  UNL1       -0.1726
     36 O           4.5028   -0.4978   35.9733 O.2     1  UNL1       -0.1726
@<TRIPOS>BOND
     1    26    25    1
     2    26    24    1
     3    24    23    1
     4    23     1    1
     5     1     2    1
     6     2     3    1
     7     3     4   ar
     8     4     5   ar
     9     5    10    1
    10    10    11    3
    11    11    12    1
    12    12    13    3
    13    14    13    1
    14    14    15    1
    15    16    15    1
    16    16    17    1
    17    17    18    1
    18    17    20    1
    19    20    21    1
    20     5     6   ar
    21     6     7   ar
    22     7     8   am
    23     8     9    2
    24    26    27    1
    25    27    28    2
    26    27    29   am
    27    29    30    1
    28    26    33    1
    29    33    34    1
    30    33    35    2
    31    33    36    2
    32     8     1   am
    33     7     3   ar
    34    16    14    1
    35    18    19    1
    36    21    22    1
    37    29    31    1
    38    30    32    1
@<TRIPOS>MOLECULE
*****
 36 38 0 0 0
SMALL
GASTEIGER

@<TRIPOS>ATOM
      1 N           2.2682    1.6063   32.1706 N.am    1  UNL1       -0.2560
      2 C           1.8734    2.3992   30.9600 C.3     1  UNL1        0.1394
      3 C           2.2302    1.5970   29.7438 C.ar    1  UNL1        0.0662
      4 C           2.2067    1.5913   28.2440 C.ar    1  UNL1        0.0247
      5 C           2.8075    0.2990   27.7759 C.ar    1  UNL1        0.0614
      6 C           3.2024   -0.4939   28.9865 C.ar    1  UNL1        0.0922
      7 N           2.8455    0.3083   30.2027 N.ar    1  UNL1       -0.2624
      8 C           2.8690    0.3140   31.7025 C.2     1  UNL1        0.3234
      9 O           3.4001   -0.7804   32.5801 O.2     1  UNL1       -0.2490
     10 C           2.9828   -0.1258   26.3481 C.1     1  UNL1       -0.0497
     11 C           3.1581   -0.5505   24.9202 C.1     1  UNL1       -0.0095
     12 C           3.3333   -0.9753   23.4922 C.1     1  UNL1       -0.0138
     13 C           3.5085   -1.3999   22.0643 C.1     1  UNL1       -0.0788
     14 C           3.6837   -1.8245   20.6364 C.3     1  UNL1        0.0676
     15 C           3.4326   -2.8104   19.5342 C.3     1  UNL1        0.0165
     16 C           4.2383   -1.5741   19.2653 C.3     1  UNL1        0.0424
     17 C           5.0236   -0.7157   18.3186 C.3     1  UNL1        0.1406
     18 O           6.3796   -0.2102   18.7134 O.3     1  UNL1       -0.3819
     19 H           6.7474    0.3252   17.9930 H       1  UNL1        0.2104
     20 C           4.4529   -0.3627   16.9769 C.3     1  UNL1        0.1663
     21 O           3.7106   -1.3959   16.1823 O.3     1  UNL1       -0.3795
     22 H           4.3218   -2.1013   15.9182 H       1  UNL1        0.2105
     23 C           2.0929    2.0310   33.5984 C.3     1  UNL1        0.0977
     24 C           3.1828    2.7918   34.2938 C.3     1  UNL1        0.0524
     25 C           4.1741    1.8792   36.9742 C.3     1  UNL1        0.0331
     26 C           3.6784    2.3355   35.6339 C.3     1  UNL1        0.1820
     27 C           4.6244    1.3858   34.9608 C.2     1  UNL1        0.2640
     28 O           5.6271    1.9013   33.9714 O.2     1  UNL1       -0.2713
     29 N           4.5679   -0.0793   35.2772 N.am    1  UNL1       -0.1956
     30 O           5.5139   -1.0290   34.6041 O.3     1  UNL1       -0.2951
     31 H           3.9098   -0.4177   35.9266 H       1  UNL1        0.1823
     32 H           6.0907   -0.5366   33.9993 H       1  UNL1        0.2414
     33 S           2.7324    3.2852   36.3071 S.O2    1  UNL1       -0.0034
     34 C           1.7865    4.2349   36.9803 C.3     1  UNL1        0.1765
     35 O           3.3843    4.4360   35.5995 O.2     1  UNL1       -0.1726
     36 O           2.0806    2.1344   37.0147 O.2     1  UNL1       -0.1726
@<TRIPOS>BOND
     1    26    25    1
     2    26    24    1
     3    24    23    1
     4    23     1    1
     5     1     2    1
     6     2     3    1
     7     3     4   ar
     8     4     5   ar
     9     5    10    1
    10    10    11    3
    11    11    12    1
    12    12    13    3
    13    14    13    1
    14    14    15    1
    15    16    15    1
    16    16    17    1
    17    17    18    1
    18    17    20    1
    19    20    21    1
    20     5     6   ar
    21     6     7   ar
    22     7     8   am
    23     8     9    2
    24    26    27    1
    25    27    28    2
    26    27    29   am
    27    29    30    1
    28    26    33    1
    29    33    34    1
    30    33    35    2
    31    33    36    2
    32     8     1   am
    33     7     3   ar
    34    16    14    1
    35    18    19    1
    36    21    22    1
    37    29    31    1
    38    30    32    1
@<TRIPOS>MOLECULE
*****
 36 38 0 0 0
SMALL
GASTEIGER

@<TRIPOS>ATOM
      1 N           3.4439   -0.5819   30.5946 N.am    1  UNL1       -0.2560
      2 C           3.1514   -0.7870   29.1377 C.3     1  UNL1        0.1394
      3 C           2.0288    0.1320   28.7564 C.ar    1  UNL1        0.0662
      4 C           1.1543    0.5731   27.6204 C.ar    1  UNL1        0.0247
      5 C           0.2125    1.6188   28.1395 C.ar    1  UNL1        0.0614
      6 C           0.5050    1.8240   29.5963 C.ar    1  UNL1        0.0922
      7 N           1.6276    0.9051   29.9776 N.ar    1  UNL1       -0.2624
      8 C           2.5021    0.4639   31.1137 C.2     1  UNL1        0.3234
      9 O           2.4449    0.9782   32.5216 O.2     1  UNL1       -0.2490
     10 C          -0.8374    2.3339   27.3418 C.1     1  UNL1       -0.0497
     11 C          -1.8874    3.0489   26.5441 C.1     1  UNL1       -0.0095
     12 C          -2.9374    3.7640   25.7465 C.1     1  UNL1       -0.0138
     13 C          -3.9875    4.4791   24.9489 C.1     1  UNL1       -0.0788
     14 C          -5.0374    5.1941   24.1514 C.3     1  UNL1        0.0676
     15 C          -5.4143    6.2214   23.1255 C.3     1  UNL1        0.0165
     16 C          -6.4794    5.4053   23.7958 C.3     1  UNL1        0.0424
     17 C          -7.9267    5.0560   23.9777 C.3     1  UNL1        0.1406
     18 O          -8.4653    3.7740   23.4152 O.3     1  UNL1       -0.3819
     19 H          -9.4108    3.7031   23.6200 H       1  UNL1        0.2104
     20 C          -8.8356    5.9888   24.7221 C.3     1  UNL1        0.1663
     21 O          -8.7031    6.1376   26.2088 O.3     1  UNL1       -0.3795
     22 H          -8.9401    5.3016   26.6398 H       1  UNL1        0.2105
     23 C           4.4938   -1.2969   31.3923 C.3     1  UNL1        0.0977
     24 C           5.7872   -1.6939   30.7444 C.3     1  UNL1        0.0524
     25 C           8.1105   -2.5538   32.4364 C.3     1  UNL1        0.0331
     26 C           6.9488   -2.1238   31.5904 C.3     1  UNL1        0.1820
     27 C           6.6592   -3.5579   31.2594 C.2     1  UNL1        0.2640
     28 O           6.4752   -3.9754   29.8304 O.2     1  UNL1       -0.2713
     29 N           6.5535   -4.5744   32.3573 N.am    1  UNL1       -0.1956
     30 O           6.2639   -6.0085   32.0263 O.3     1  UNL1       -0.2951
     31 H           6.6743   -4.3004   33.2951 H       1  UNL1        0.1823
     32 H           6.1739   -6.1067   31.0654 H       1  UNL1        0.2414
     33 S           7.2385   -0.6898   31.9215 S.O2    1  UNL1       -0.0034
     34 C           7.5283    0.7443   32.2524 C.3     1  UNL1        0.1765
     35 O           7.3400   -0.3727   30.4588 O.2     1  UNL1       -0.1726
     36 O           7.1371   -1.0069   33.3840 O.2     1  UNL1       -0.1726
@<TRIPOS>BOND
     1    26    25    1
     2    26    24    1
     3    24    23    1
     4    23     1    1
     5     1     2    1
     6     2     3    1
     7     3     4   ar
     8     4     5   ar
     9     5    10    1
    10    10    11    3
    11    11    12    1
    12    12    13    3
    13    14    13    1
    14    14    15    1
    15    16    15    1
    16    16    17    1
    17    17    18    1
    18    17    20    1
    19    20    21    1
    20     5     6   ar
    21     6     7   ar
    22     7     8   am
    23     8     9    2
    24    26    27    1
    25    27    28    2
    26    27    29   am
    27    29    30    1
    28    26    33    1
    29    33    34    1
    30    33    35    2
    31    33    36    2
    32     8     1   am
    33     7     3   ar
    34    16    14    1
    35    18    19    1
    36    21    22    1
    37    29    31    1
    38    30    32    1
@<TRIPOS>MOLECULE
*****
 36 38 0 0 0
SMALL
GASTEIGER

@<TRIPOS>ATOM
      1 N           3.8458    1.0198   34.1908 N.am    1  UNL1       -0.2560
      2 C           2.9123    1.6495   33.1997 C.3     1  UNL1        0.1394
      3 C           3.2062    1.0650   31.8499 C.ar    1  UNL1        0.0662
      4 C           2.8109    1.0930   30.4032 C.ar    1  UNL1        0.0247
      5 C           3.6817    0.1193   29.6659 C.ar    1  UNL1        0.0614
      6 C           4.6152   -0.5104   30.6569 C.ar    1  UNL1        0.0922
      7 N           4.3213    0.0741   32.0067 N.ar    1  UNL1       -0.2624
      8 C           4.7167    0.0461   33.4534 C.2     1  UNL1        0.3234
      9 O           5.7937   -0.8058   34.0568 O.2     1  UNL1       -0.2490
     10 C           3.6284   -0.1733   28.1957 C.1     1  UNL1       -0.0497
     11 C           3.5752   -0.4659   26.7255 C.1     1  UNL1       -0.0095
     12 C           3.5218   -0.7584   25.2552 C.1     1  UNL1       -0.0138
     13 C           3.4686   -1.0510   23.7850 C.1     1  UNL1       -0.0788
     14 C           3.4153   -1.3435   22.3148 C.3     1  UNL1        0.0676
     15 C           3.0464   -0.9307   20.9207 C.3     1  UNL1        0.0165
     16 C           3.6919   -2.2629   21.1623 C.3     1  UNL1        0.0424
     17 C           4.2242   -3.5630   20.6365 C.3     1  UNL1        0.1406
     18 O           5.3242   -4.2738   21.3679 O.3     1  UNL1       -0.3819
     19 H           5.5489   -5.0920   20.8980 H       1  UNL1        0.2104
     20 C           3.6566   -4.1523   19.3792 C.3     1  UNL1        0.1663
     21 O           4.5749   -4.6873   18.3206 O.3     1  UNL1       -0.3795
     22 H           5.0894   -3.9583   17.9403 H       1  UNL1        0.2105
     23 C           3.8991    1.3124   35.6609 C.3     1  UNL1        0.0977
     24 C           2.7201    1.9395   36.3442 C.3     1  UNL1        0.0524
     25 C           3.1421    3.7896   38.6678 C.3     1  UNL1        0.0331
     26 C           2.9311    2.8645   37.5059 C.3     1  UNL1        0.1820
     27 C           2.8333    1.7023   38.4491 C.2     1  UNL1        0.2640
     28 O           3.9865    1.3666   39.3477 O.2     1  UNL1       -0.2713
     29 N           1.5825    0.8757   38.4937 N.am    1  UNL1       -0.1956
     30 O           1.4847   -0.2866   39.4369 O.3     1  UNL1       -0.2951
     31 H           0.8256    1.0960   37.9039 H       1  UNL1        0.1823
     32 H           2.3099   -0.3643   39.9408 H       1  UNL1        0.2414
     33 S           3.0288    4.0268   36.5628 S.O2    1  UNL1       -0.0034
     34 C           3.1264    5.1891   35.6197 C.3     1  UNL1        0.1765
     35 O           1.6698    3.6995   36.0187 O.2     1  UNL1       -0.1726
     36 O           4.3877    4.3541   37.1069 O.2     1  UNL1       -0.1726
@<TRIPOS>BOND
     1    26    25    1
     2    26    24    1
     3    24    23    1
     4    23     1    1
     5     1     2    1
     6     2     3    1
     7     3     4   ar
     8     4     5   ar
     9     5    10    1
    10    10    11    3
    11    11    12    1
    12    12    13    3
    13    14    13    1
    14    14    15    1
    15    16    15    1
    16    16    17    1
    17    17    18    1
    18    17    20    1
    19    20    21    1
    20     5     6   ar
    21     6     7   ar
    22     7     8   am
    23     8     9    2
    24    26    27    1
    25    27    28    2
    26    27    29   am
    27    29    30    1
    28    26    33    1
    29    33    34    1
    30    33    35    2
    31    33    36    2
    32     8     1   am
    33     7     3   ar
    34    16    14    1
    35    18    19    1
    36    21    22    1
    37    29    31    1
    38    30    32    1
@<TRIPOS>MOLECULE
*****
 36 38 0 0 0
SMALL
GASTEIGER

@<TRIPOS>ATOM
      1 N          -1.3876    4.4144   23.1371 N.am    1  UNL1       -0.2560
      2 C          -0.2095    4.1853   22.2372 C.3     1  UNL1        0.1394
      3 C           0.5288    2.9795   22.7379 C.ar    1  UNL1        0.0662
      4 C           1.7131    2.0926   22.4912 C.ar    1  UNL1        0.0247
      5 C           1.7234    1.0283   23.5482 C.ar    1  UNL1        0.0614
      6 C           0.5454    1.2574   24.4481 C.ar    1  UNL1        0.0922
      7 N          -0.1930    2.4632   23.9474 N.ar    1  UNL1       -0.2624
      8 C          -1.3773    3.3500   24.1941 C.2     1  UNL1        0.3234
      9 O          -2.3760    3.1990   25.3030 O.2     1  UNL1       -0.2490
     10 C           2.7342   -0.0719   23.6818 C.1     1  UNL1       -0.0497
     11 C           3.7449   -1.1721   23.8154 C.1     1  UNL1       -0.0095
     12 C           4.7558   -2.2723   23.9490 C.1     1  UNL1       -0.0138
     13 C           5.7668   -3.3723   24.0826 C.1     1  UNL1       -0.0788
     14 C           6.7776   -4.4724   24.2162 C.3     1  UNL1        0.0676
     15 C           7.9994   -5.1820   23.7127 C.3     1  UNL1        0.0165
     16 C           7.3068   -5.6682   24.9512 C.3     1  UNL1        0.0424
     17 C           7.2123   -6.6392   26.0905 C.3     1  UNL1        0.1406
     18 O           7.4297   -8.1035   25.8481 O.3     1  UNL1       -0.3819
     19 H           7.3335   -8.5873   26.6833 H       1  UNL1        0.2104
     20 C           6.9004   -6.1460   27.4724 C.3     1  UNL1        0.1663
     21 O           5.8506   -5.0938   27.6741 O.3     1  UNL1       -0.3795
     22 H           6.1430   -4.2632   27.2674 H       1  UNL1        0.2105
     23 C          -2.3983    5.5146   23.0035 C.3     1  UNL1        0.0977
     24 C          -3.4225    5.4634   21.9087 C.3     1  UNL1        0.0524
     25 C          -4.8433    2.8917   21.3027 C.3     1  UNL1        0.0331
     26 C          -4.1328    4.1776   21.6057 C.3     1  UNL1        0.1820
     27 C          -4.8571    4.2689   22.9160 C.2     1  UNL1        0.2640
     28 O          -5.5559    5.5395   23.2998 O.2     1  UNL1       -0.2713
     29 N          -4.8827    3.0896   23.8427 N.am    1  UNL1       -0.1956
     30 O          -5.6070    3.1810   25.1530 O.3     1  UNL1       -0.2951
     31 H          -4.4241    2.2557   23.5908 H       1  UNL1        0.1823
     32 H          -6.0001    4.0631   25.2444 H       1  UNL1        0.2414
     33 S          -3.4086    4.0861   20.2953 S.O2    1  UNL1       -0.0034
     34 C          -2.6843    3.9945   18.9850 C.3     1  UNL1        0.1765
     35 O          -2.9531    2.7001   20.6439 O.2     1  UNL1       -0.1726
     36 O          -3.8641    5.4720   19.9468 O.2     1  UNL1       -0.1726
@<TRIPOS>BOND
     1    26    25    1
     2    26    24    1
     3    24    23    1
     4    23     1    1
     5     1     2    1
     6     2     3    1
     7     3     4   ar
     8     4     5   ar
     9     5    10    1
    10    10    11    3
    11    11    12    1
    12    12    13    3
    13    14    13    1
    14    14    15    1
    15    16    15    1
    16    16    17    1
    17    17    18    1
    18    17    20    1
    19    20    21    1
    20     5     6   ar
    21     6     7   ar
    22     7     8   am
    23     8     9    2
    24    26    27    1
    25    27    28    2
    26    27    29   am
    27    29    30    1
    28    26    33    1
    29    33    34    1
    30    33    35    2
    31    33    36    2
    32     8     1   am
    33     7     3   ar
    34    16    14    1
    35    18    19    1
    36    21    22    1
    37    29    31    1
    38    30    32    1
