@<TRIPOS>MOLECULE
*****
 34 36 0 0 0
SMALL
GASTEIGER

@<TRIPOS>ATOM
      1 C           4.3664   -1.7290   23.9061 C.ar    1  UNL1        0.0842
      2 C           3.7039   -1.0172   22.7640 C.ar    1  UNL1        0.0146
      3 C           3.7862   -1.9022   21.5558 C.ar    1  UNL1        0.0423
      4 C           3.3037   -1.7245   20.1467 C.ar    1  UNL1        0.0870
      5 N           3.5346   -2.8056   19.1328 N.ar    1  UNL1       -0.2139
      6 C           4.2479   -4.0645   19.5281 C.ar    1  UNL1        0.2141
      7 N           4.4788   -5.1457   18.5144 N.pl3   1  UNL1       -0.3274
      8 N           4.7305   -4.2422   20.9373 N.ar    1  UNL1       -0.2074
      9 C           4.4996   -3.1611   21.9511 C.ar    1  UNL1        0.1151
     10 S           4.8582   -3.0540   23.4036 S.2     1  UNL1       -0.0633
     11 H           4.1622   -5.0290   17.5895 H       1  UNL1        0.1452
     12 H           4.9471   -5.9719   18.7738 H       1  UNL1        0.1452
     13 C           2.5903   -0.4656   19.7514 C.ar    1  UNL1        0.0314
     14 C           1.2628   -0.1316   20.3647 C.ar    1  UNL1        0.0401
     15 C           0.5494    1.1273   19.9694 C.ar    1  UNL1        0.1492
     16 C           1.1635    2.0522   18.9608 C.ar    1  UNL1        0.0924
     17 CL          0.4501    3.3111   18.5655 Cl      1  UNL1       -0.0791
     18 C           2.4911    1.7183   18.3474 C.ar    1  UNL1        0.0259
     19 C           3.2045    0.4594   18.7427 C.ar    1  UNL1        0.0601
     20 CL          4.5319    0.1254   18.1293 Cl      1  UNL1       -0.0822
     21 O          -0.7781    1.4613   20.5828 O.3     1  UNL1       -0.4731
     22 C          -0.9726    2.7746   21.2809 C.3     1  UNL1        0.2227
     23 C          -0.5940    2.9196   22.7250 C.3     1  UNL1        0.1200
     24 N           0.7660    2.4908   23.1905 N.3     1  UNL1       -0.2696
     25 C           1.9752    3.2949   22.8150 C.3     1  UNL1        0.0722
     26 C           3.1348    2.6313   22.1331 C.3     1  UNL1        0.0188
     27 C           0.9165    1.2580   24.0317 C.3     1  UNL1        0.0722
     28 C           0.3371    1.2182   25.4146 C.3     1  UNL1        0.0188
     29 N           3.5555   -1.6487   26.3730 N.am    1  UNL1       -0.3005
     30 C           4.5117   -1.2074   25.3050 C.2     1  UNL1        0.2519
     31 O           5.6132   -0.2446   25.6358 O.2     1  UNL1       -0.2696
     32 H           2.8325   -2.2807   26.1559 H       1  UNL1        0.1498
     33 C           2.4944   -0.6439   28.5212 C.3     1  UNL1        0.0230
     34 C           3.7007   -1.1271   27.7719 C.3     1  UNL1        0.0898
@<TRIPOS>BOND
     1    33    34    1
     2    34    29    1
     3    29    30   am
     4    30    31    2
     5    30     1    1
     6     1     2   ar
     7     2     3   ar
     8     3     4   ar
     9     4    13    1
    10    13    14   ar
    11    14    15   ar
    12    15    21    1
    13    21    22    1
    14    22    23    1
    15    23    24    1
    16    24    25    1
    17    25    26    1
    18    24    27    1
    19    27    28    1
    20    15    16   ar
    21    16    17    1
    22    16    18   ar
    23    18    19   ar
    24    19    20    1
    25     4     5   ar
    26     5     6   ar
    27     6     7    1
    28     6     8   ar
    29     8     9   ar
    30     9    10   ar
    31    10     1   ar
    32     9     3   ar
    33    19    13   ar
    34    29    32    1
    35     7    11    1
    36     7    12    1
@<TRIPOS>MOLECULE
*****
 34 36 0 0 0
SMALL
GASTEIGER

@<TRIPOS>ATOM
      1 C           4.4498   -1.8665   23.8762 C.ar    1  UNL1        0.0842
      2 C           3.7858   -1.1473   22.7396 C.ar    1  UNL1        0.0146
      3 C           3.8521   -2.0313   21.5296 C.ar    1  UNL1        0.0423
      4 C           3.3616   -1.8474   20.1241 C.ar    1  UNL1        0.0870
      5 N           3.5761   -2.9291   19.1072 N.ar    1  UNL1       -0.2139
      6 C           4.2810   -4.1948   19.4960 C.ar    1  UNL1        0.2141
      7 N           4.4955   -5.2765   18.4792 N.pl3   1  UNL1       -0.3274
      8 N           4.7715   -4.3787   20.9016 N.ar    1  UNL1       -0.2074
      9 C           4.5570   -3.2970   21.9184 C.ar    1  UNL1        0.1151
     10 S           4.9264   -3.1951   23.3686 S.2     1  UNL1       -0.0633
     11 H           4.1736   -5.1558   17.5567 H       1  UNL1        0.1452
     12 H           4.9582   -6.1072   18.7344 H       1  UNL1        0.1452
     13 C           2.6567   -0.5817   19.7353 C.ar    1  UNL1        0.0314
     14 C           1.3482   -0.2249   20.3760 C.ar    1  UNL1        0.0401
     15 C           0.6432    1.0408   19.9872 C.ar    1  UNL1        0.1492
     16 C           1.2468    1.9496   18.9578 C.ar    1  UNL1        0.0924
     17 CL          0.5418    3.2153   18.5690 Cl      1  UNL1       -0.0791
     18 C           2.5553    1.5928   18.3171 C.ar    1  UNL1        0.0259
     19 C           3.2603    0.3271   18.7058 C.ar    1  UNL1        0.0601
     20 CL          4.5687   -0.0298   18.0652 Cl      1  UNL1       -0.0822
     21 O          -0.6653    1.3976   20.6280 O.3     1  UNL1       -0.4731
     22 C          -0.7334    2.5218   21.6186 C.3     1  UNL1        0.2227
     23 C          -1.7319    3.6257   21.4329 C.3     1  UNL1        0.1200
     24 N          -3.1557    3.4291   21.8620 N.3     1  UNL1       -0.2696
     25 C          -4.2200    3.1749   20.8360 C.3     1  UNL1        0.0722
     26 C          -4.0340    3.6558   19.4275 C.3     1  UNL1        0.0188
     27 C          -3.5152    3.4869   23.3172 C.3     1  UNL1        0.0722
     28 C          -4.9471    3.3480   23.7420 C.3     1  UNL1        0.0188
     29 N           3.5843   -1.6795   26.3187 N.am    1  UNL1       -0.3005
     30 C           4.6091   -1.3482   25.2747 C.2     1  UNL1        0.2519
     31 O           5.7933   -0.4985   25.6293 O.2     1  UNL1       -0.2696
     32 H           2.8071   -2.2372   26.0860 H       1  UNL1        0.1498
     33 C           3.1654    0.1707   28.0939 C.3     1  UNL1        0.0230
     34 C           3.7437   -1.1612   27.7172 C.3     1  UNL1        0.0898
@<TRIPOS>BOND
     1    33    34    1
     2    34    29    1
     3    29    30   am
     4    30    31    2
     5    30     1    1
     6     1     2   ar
     7     2     3   ar
     8     3     4   ar
     9     4    13    1
    10    13    14   ar
    11    14    15   ar
    12    15    21    1
    13    21    22    1
    14    22    23    1
    15    23    24    1
    16    24    25    1
    17    25    26    1
    18    24    27    1
    19    27    28    1
    20    15    16   ar
    21    16    17    1
    22    16    18   ar
    23    18    19   ar
    24    19    20    1
    25     4     5   ar
    26     5     6   ar
    27     6     7    1
    28     6     8   ar
    29     8     9   ar
    30     9    10   ar
    31    10     1   ar
    32     9     3   ar
    33    19    13   ar
    34    29    32    1
    35     7    11    1
    36     7    12    1
@<TRIPOS>MOLECULE
*****
 34 36 0 0 0
SMALL
GASTEIGER

@<TRIPOS>ATOM
      1 C         -11.3407  -18.2722   21.8204 C.ar    1  UNL1        0.0842
      2 C          -9.8464  -18.3512   21.9238 C.ar    1  UNL1        0.0146
      3 C          -9.3378  -19.0990   20.7271 C.ar    1  UNL1        0.0423
      4 C          -7.9526  -19.4806   20.2962 C.ar    1  UNL1        0.0870
      5 N          -7.7474  -20.2454   19.0221 N.ar    1  UNL1       -0.2139
      6 C          -8.9274  -20.6285   18.1791 C.ar    1  UNL1        0.2141
      7 N          -8.7223  -21.3932   16.9051 N.pl3   1  UNL1       -0.3274
      8 N         -10.3127  -20.2469   18.6101 N.ar    1  UNL1       -0.2074
      9 C         -10.5178  -19.4822   19.8840 C.ar    1  UNL1        0.1151
     10 S         -11.7557  -18.9712   20.5597 S.2     1  UNL1       -0.0633
     11 H          -7.8132  -21.6437   16.6222 H       1  UNL1        0.1452
     12 H          -9.4968  -21.6447   16.3518 H       1  UNL1        0.1452
     13 C          -6.7726  -19.0974   21.1392 C.ar    1  UNL1        0.0314
     14 C          -6.8341  -17.8727   22.0031 C.ar    1  UNL1        0.0401
     15 C          -5.6541  -17.4896   22.8462 C.ar    1  UNL1        0.1492
     16 C          -4.4126  -18.3311   22.8253 C.ar    1  UNL1        0.0924
     17 CL         -3.2326  -17.9479   23.6684 Cl      1  UNL1       -0.0791
     18 C          -4.3510  -19.5558   21.9614 C.ar    1  UNL1        0.0259
     19 C          -5.5311  -19.9390   21.1184 C.ar    1  UNL1        0.0601
     20 CL         -5.4696  -21.1637   20.2545 Cl      1  UNL1       -0.0822
     21 O          -5.7156  -16.2648   23.7101 O.3     1  UNL1       -0.4731
     22 C          -6.7577  -15.2170   23.4527 C.3     1  UNL1        0.2227
     23 C          -7.6475  -14.7545   24.5680 C.3     1  UNL1        0.1200
     24 N          -8.3370  -15.7589   25.4432 N.3     1  UNL1       -0.2696
     25 C          -8.1605  -15.7032   26.9317 C.3     1  UNL1        0.0722
     26 C          -6.8134  -15.9644   27.5375 C.3     1  UNL1        0.0188
     27 C          -9.2030  -16.8190   24.8298 C.3     1  UNL1        0.0722
     28 C          -9.5402  -18.0556   25.6089 C.3     1  UNL1        0.0188
     29 N         -13.1561  -18.4437   23.6710 N.am    1  UNL1       -0.3005
     30 C         -12.2589  -17.6104   22.8047 C.2     1  UNL1        0.2519
     31 O         -12.2799  -16.1152   22.9227 O.2     1  UNL1       -0.2696
     32 H         -13.1423  -19.4251   23.5936 H       1  UNL1        0.1498
     33 C         -14.4565  -18.4929   25.9197 C.3     1  UNL1        0.0230
     34 C         -14.0742  -17.7819   24.6554 C.3     1  UNL1        0.0898
@<TRIPOS>BOND
     1    33    34    1
     2    34    29    1
     3    29    30   am
     4    30    31    2
     5    30     1    1
     6     1     2   ar
     7     2     3   ar
     8     3     4   ar
     9     4    13    1
    10    13    14   ar
    11    14    15   ar
    12    15    21    1
    13    21    22    1
    14    22    23    1
    15    23    24    1
    16    24    25    1
    17    25    26    1
    18    24    27    1
    19    27    28    1
    20    15    16   ar
    21    16    17    1
    22    16    18   ar
    23    18    19   ar
    24    19    20    1
    25     4     5   ar
    26     5     6   ar
    27     6     7    1
    28     6     8   ar
    29     8     9   ar
    30     9    10   ar
    31    10     1   ar
    32     9     3   ar
    33    19    13   ar
    34    29    32    1
    35     7    11    1
    36     7    12    1
@<TRIPOS>MOLECULE
*****
 34 36 0 0 0
SMALL
GASTEIGER

@<TRIPOS>ATOM
      1 C          -5.1496  -16.5493   24.5627 C.ar    1  UNL1        0.0842
      2 C          -6.0250  -17.1628   23.5104 C.ar    1  UNL1        0.0146
      3 C          -5.1692  -18.0485   22.6541 C.ar    1  UNL1        0.0423
      4 C          -5.4873  -18.9066   21.4657 C.ar    1  UNL1        0.0870
      5 N          -4.4010  -19.6987   20.8002 N.ar    1  UNL1       -0.2139
      6 C          -2.9967  -19.6326   21.3233 C.ar    1  UNL1        0.2141
      7 N          -1.9105  -20.4246   20.6579 N.pl3   1  UNL1       -0.3274
      8 N          -2.6787  -18.7744   22.5118 N.ar    1  UNL1       -0.2074
      9 C          -3.7649  -17.9823   23.1771 C.ar    1  UNL1        0.1151
     10 S          -3.7528  -17.0558   24.3567 S.2     1  UNL1       -0.0633
     11 H          -2.1192  -20.9878   19.8779 H       1  UNL1        0.1452
     12 H          -0.9888  -20.3812   21.0012 H       1  UNL1        0.1452
     13 C          -6.8916  -18.9727   20.9426 C.ar    1  UNL1        0.0314
     14 C          -7.8633  -17.8755   21.2618 C.ar    1  UNL1        0.0401
     15 C          -9.2676  -17.9417   20.7388 C.ar    1  UNL1        0.1492
     16 C          -9.7002  -19.1050   19.8965 C.ar    1  UNL1        0.0924
     17 CL        -11.1045  -19.1711   19.3734 Cl      1  UNL1       -0.0791
     18 C          -8.7285  -20.2023   19.5772 C.ar    1  UNL1        0.0259
     19 C          -7.3242  -20.1362   20.1003 C.ar    1  UNL1        0.0601
     20 CL         -6.3525  -21.2334   19.7811 Cl      1  UNL1       -0.0822
     21 O         -10.2393  -16.8444   21.0580 O.3     1  UNL1       -0.4731
     22 C         -10.3345  -16.3104   22.4565 C.3     1  UNL1        0.2227
     23 C         -10.4116  -17.2573   23.6172 C.3     1  UNL1        0.1200
     24 N         -11.3918  -18.3926   23.5951 N.3     1  UNL1       -0.2696
     25 C         -10.9384  -19.7815   23.9348 C.3     1  UNL1        0.0722
     26 C          -9.5054  -20.1740   23.7289 C.3     1  UNL1        0.0188
     27 C         -12.8252  -18.1390   23.2334 C.3     1  UNL1        0.0722
     28 C         -13.8694  -18.0718   24.3081 C.3     1  UNL1        0.0188
     29 N          -6.7779  -15.9303   26.4902 N.am    1  UNL1       -0.3005
     30 C          -5.5931  -15.5965   25.6330 C.2     1  UNL1        0.2519
     31 O          -4.8519  -14.3100   25.8460 O.2     1  UNL1       -0.2696
     32 H          -7.2644  -16.7747   26.3504 H       1  UNL1        0.1498
     33 C          -8.6828  -14.8009   27.8488 C.3     1  UNL1        0.0230
     34 C          -7.2214  -14.9775   27.5605 C.3     1  UNL1        0.0898
@<TRIPOS>BOND
     1    33    34    1
     2    34    29    1
     3    29    30   am
     4    30    31    2
     5    30     1    1
     6     1     2   ar
     7     2     3   ar
     8     3     4   ar
     9     4    13    1
    10    13    14   ar
    11    14    15   ar
    12    15    21    1
    13    21    22    1
    14    22    23    1
    15    23    24    1
    16    24    25    1
    17    25    26    1
    18    24    27    1
    19    27    28    1
    20    15    16   ar
    21    16    17    1
    22    16    18   ar
    23    18    19   ar
    24    19    20    1
    25     4     5   ar
    26     5     6   ar
    27     6     7    1
    28     6     8   ar
    29     8     9   ar
    30     9    10   ar
    31    10     1   ar
    32     9     3   ar
    33    19    13   ar
    34    29    32    1
    35     7    11    1
    36     7    12    1
@<TRIPOS>MOLECULE
*****
 34 36 0 0 0
SMALL
GASTEIGER

@<TRIPOS>ATOM
      1 C           4.9103   -2.0322   24.7321 C.ar    1  UNL1        0.0842
      2 C           4.5819   -1.5734   23.3422 C.ar    1  UNL1        0.0146
      3 C           3.5403   -0.4987   23.4427 C.ar    1  UNL1        0.0423
      4 C           2.8383    0.3193   22.3997 C.ar    1  UNL1        0.0870
      5 N           1.8208    1.3429   22.8087 N.ar    1  UNL1       -0.2139
      6 C           1.5054    1.5483   24.2607 C.ar    1  UNL1        0.2141
      7 N           0.4880    2.5717   24.6697 N.pl3   1  UNL1       -0.3274
      8 N           2.2075    0.7301   25.3037 N.ar    1  UNL1       -0.2074
      9 C           3.2249   -0.2933   24.8947 C.ar    1  UNL1        0.1151
     10 S           4.0716   -1.2411   25.6916 S.2     1  UNL1       -0.0633
     11 H           0.0272    3.1087   23.9852 H       1  UNL1        0.1452
     12 H           0.2810    2.7065   25.6227 H       1  UNL1        0.1452
     13 C           3.1537    0.1139   20.9477 C.ar    1  UNL1        0.0314
     14 C           4.5573    0.2981   20.4518 C.ar    1  UNL1        0.0401
     15 C           4.8727    0.0927   18.9998 C.ar    1  UNL1        0.1492
     16 C           3.7845   -0.2969   18.0437 C.ar    1  UNL1        0.0924
     17 CL          4.1000   -0.5023   16.5917 Cl      1  UNL1       -0.0791
     18 C           2.3809   -0.4811   18.5396 C.ar    1  UNL1        0.0259
     19 C           2.0655   -0.2756   19.9916 C.ar    1  UNL1        0.0601
     20 CL          0.6619   -0.4598   20.4876 Cl      1  UNL1       -0.0822
     21 O           6.2764    0.2768   18.5038 O.3     1  UNL1       -0.4731
     22 C           7.3048   -0.7866   18.7514 C.3     1  UNL1        0.2227
     23 C           7.0516   -2.1944   18.2999 C.3     1  UNL1        0.1200
     24 N           6.2570   -3.1278   19.1644 N.3     1  UNL1       -0.2696
     25 C           6.7531   -3.4873   20.5336 C.3     1  UNL1        0.0722
     26 C           8.1904   -3.8659   20.7350 C.3     1  UNL1        0.0188
     27 C           4.9663   -3.7017   18.6597 C.3     1  UNL1        0.0722
     28 C           3.7765   -3.7861   19.5693 C.3     1  UNL1        0.0188
     29 N           6.0291   -3.5451   26.5235 N.am    1  UNL1       -0.3005
     30 C           5.9030   -3.0955   25.0981 C.2     1  UNL1        0.2519
     31 O           6.7697   -3.7091   24.0387 O.2     1  UNL1       -0.2696
     32 H           5.4602   -3.1424   27.2189 H       1  UNL1        0.1498
     33 C           6.6550   -6.0563   26.7518 C.3     1  UNL1        0.0230
     34 C           7.0218   -4.6083   26.8896 C.3     1  UNL1        0.0898
@<TRIPOS>BOND
     1    33    34    1
     2    34    29    1
     3    29    30   am
     4    30    31    2
     5    30     1    1
     6     1     2   ar
     7     2     3   ar
     8     3     4   ar
     9     4    13    1
    10    13    14   ar
    11    14    15   ar
    12    15    21    1
    13    21    22    1
    14    22    23    1
    15    23    24    1
    16    24    25    1
    17    25    26    1
    18    24    27    1
    19    27    28    1
    20    15    16   ar
    21    16    17    1
    22    16    18   ar
    23    18    19   ar
    24    19    20    1
    25     4     5   ar
    26     5     6   ar
    27     6     7    1
    28     6     8   ar
    29     8     9   ar
    30     9    10   ar
    31    10     1   ar
    32     9     3   ar
    33    19    13   ar
    34    29    32    1
    35     7    11    1
    36     7    12    1
@<TRIPOS>MOLECULE
*****
 34 36 0 0 0
SMALL
GASTEIGER

@<TRIPOS>ATOM
      1 C          -5.2906  -16.7871   24.0679 C.ar    1  UNL1        0.0842
      2 C          -6.3823  -17.5092   23.3354 C.ar    1  UNL1        0.0146
      3 C          -5.7415  -18.4693   22.3774 C.ar    1  UNL1        0.0423
      4 C          -6.3205  -19.4441   21.3954 C.ar    1  UNL1        0.0870
      5 N          -5.4117  -20.2903   20.5538 N.ar    1  UNL1       -0.2139
      6 C          -3.9238  -20.1614   20.6943 C.ar    1  UNL1        0.2141
      7 N          -3.0150  -21.0075   19.8528 N.pl3   1  UNL1       -0.3274
      8 N          -3.3448  -19.1865   21.6764 N.ar    1  UNL1       -0.2074
      9 C          -4.2536  -18.3405   22.5179 C.ar    1  UNL1        0.1151
     10 S          -3.9750  -17.3008   23.5626 S.2     1  UNL1       -0.0633
     11 H          -3.3950  -21.6473   19.2082 H       1  UNL1        0.1452
     12 H          -2.0385  -20.9229   19.9450 H       1  UNL1        0.1452
     13 C          -7.8084  -19.5730   21.2550 C.ar    1  UNL1        0.0314
     14 C          -8.6653  -19.7384   22.4749 C.ar    1  UNL1        0.0401
     15 C         -10.1532  -19.8672   22.3344 C.ar    1  UNL1        0.1492
     16 C         -10.7840  -19.8306   20.9740 C.ar    1  UNL1        0.0924
     17 CL        -12.2719  -19.9594   20.8336 Cl      1  UNL1       -0.0791
     18 C          -9.9271  -19.6652   19.7541 C.ar    1  UNL1        0.0259
     19 C          -8.4392  -19.5364   19.8945 C.ar    1  UNL1        0.0601
     20 CL         -7.5822  -19.3710   18.6746 Cl      1  UNL1       -0.0822
     21 O         -11.0102  -20.0326   23.5544 O.3     1  UNL1       -0.4731
     22 C         -11.4241  -18.8295   24.3489 C.3     1  UNL1        0.2227
     23 C         -11.9670  -17.6190   23.6490 C.3     1  UNL1        0.1200
     24 N         -11.0335  -16.6729   22.9537 N.3     1  UNL1       -0.2696
     25 C         -11.5033  -15.8993   21.7576 C.3     1  UNL1        0.0722
     26 C         -12.4837  -16.5150   20.8039 C.3     1  UNL1        0.0188
     27 C          -9.6301  -16.5005   23.4545 C.3     1  UNL1        0.0722
     28 C          -9.3685  -15.6878   24.6878 C.3     1  UNL1        0.0188
     29 N          -6.3601  -16.0105   26.3046 N.am    1  UNL1       -0.3005
     30 C          -5.4810  -15.7358   25.1207 C.2     1  UNL1        0.2519
     31 O          -4.7923  -14.4097   24.9897 O.2     1  UNL1       -0.2696
     32 H          -6.8121  -16.8809   26.3906 H       1  UNL1        0.1498
     33 C          -7.9199  -14.6858   27.9053 C.3     1  UNL1        0.0230
     34 C          -6.5505  -14.9592   27.3574 C.3     1  UNL1        0.0898
@<TRIPOS>BOND
     1    33    34    1
     2    34    29    1
     3    29    30   am
     4    30    31    2
     5    30     1    1
     6     1     2   ar
     7     2     3   ar
     8     3     4   ar
     9     4    13    1
    10    13    14   ar
    11    14    15   ar
    12    15    21    1
    13    21    22    1
    14    22    23    1
    15    23    24    1
    16    24    25    1
    17    25    26    1
    18    24    27    1
    19    27    28    1
    20    15    16   ar
    21    16    17    1
    22    16    18   ar
    23    18    19   ar
    24    19    20    1
    25     4     5   ar
    26     5     6   ar
    27     6     7    1
    28     6     8   ar
    29     8     9   ar
    30     9    10   ar
    31    10     1   ar
    32     9     3   ar
    33    19    13   ar
    34    29    32    1
    35     7    11    1
    36     7    12    1
@<TRIPOS>MOLECULE
*****
 34 36 0 0 0
SMALL
GASTEIGER

@<TRIPOS>ATOM
      1 C           5.2875   -1.8050   25.5367 C.ar    1  UNL1        0.0842
      2 C           4.8418   -1.5102   24.1351 C.ar    1  UNL1        0.0146
      3 C           3.6641   -0.5840   24.2082 C.ar    1  UNL1        0.0423
      4 C           2.8123    0.0424   23.1443 C.ar    1  UNL1        0.0870
      5 N           1.6782    0.9464   23.5273 N.ar    1  UNL1       -0.2139
      6 C           1.3960    1.2240   24.9741 C.ar    1  UNL1        0.2141
      7 N           0.2619    2.1280   25.3570 N.pl3   1  UNL1       -0.3274
      8 N           2.2479    0.5975   26.0380 N.ar    1  UNL1       -0.2074
      9 C           3.3819   -0.3065   25.6551 C.ar    1  UNL1        0.1151
     10 S           4.3852   -1.0611   26.4761 S.2     1  UNL1       -0.0633
     11 H          -0.2972    2.5392   24.6588 H       1  UNL1        0.1452
     12 H           0.0767    2.3102   26.3066 H       1  UNL1        0.1452
     13 C           3.0945   -0.2352   21.6975 C.ar    1  UNL1        0.0314
     14 C           2.8754   -1.6108   21.1411 C.ar    1  UNL1        0.0401
     15 C           3.1576   -1.8884   19.6943 C.ar    1  UNL1        0.1492
     16 C           3.6589   -0.7903   18.8039 C.ar    1  UNL1        0.0924
     17 CL          3.9411   -1.0679   17.3570 Cl      1  UNL1       -0.0791
     18 C           3.8780    0.5854   19.3602 C.ar    1  UNL1        0.0259
     19 C           3.5958    0.8630   20.8071 C.ar    1  UNL1        0.0601
     20 CL          3.8150    2.2386   21.3635 Cl      1  UNL1       -0.0822
     21 O           2.9384   -3.2641   19.1379 O.3     1  UNL1       -0.4731
     22 C           3.8273   -4.3952   19.5625 C.3     1  UNL1        0.2227
     23 C           5.3150   -4.2771   19.4119 C.3     1  UNL1        0.1200
     24 N           6.1066   -3.4680   20.3963 N.3     1  UNL1       -0.2696
     25 C           6.0863   -3.8287   21.8521 C.3     1  UNL1        0.0722
     26 C           7.3622   -4.1895   22.5532 C.3     1  UNL1        0.0188
     27 C           6.9186   -2.2982   19.9247 C.3     1  UNL1        0.0722
     28 C           7.2044   -2.1243   18.4625 C.3     1  UNL1        0.0188
     29 N           6.2363   -4.1719   26.0343 N.am    1  UNL1       -0.3005
     30 C           6.4340   -2.6887   25.9298 C.2     1  UNL1        0.2519
     31 O           7.7783   -2.0891   26.2185 O.2     1  UNL1       -0.2696
     32 H           5.3540   -4.5654   25.8449 H       1  UNL1        0.1498
     33 C           7.4077   -6.4905   25.9913 C.3     1  UNL1        0.0230
     34 C           7.3829   -5.0555   26.4275 C.3     1  UNL1        0.0898
@<TRIPOS>BOND
     1    33    34    1
     2    34    29    1
     3    29    30   am
     4    30    31    2
     5    30     1    1
     6     1     2   ar
     7     2     3   ar
     8     3     4   ar
     9     4    13    1
    10    13    14   ar
    11    14    15   ar
    12    15    21    1
    13    21    22    1
    14    22    23    1
    15    23    24    1
    16    24    25    1
    17    25    26    1
    18    24    27    1
    19    27    28    1
    20    15    16   ar
    21    16    17    1
    22    16    18   ar
    23    18    19   ar
    24    19    20    1
    25     4     5   ar
    26     5     6   ar
    27     6     7    1
    28     6     8   ar
    29     8     9   ar
    30     9    10   ar
    31    10     1   ar
    32     9     3   ar
    33    19    13   ar
    34    29    32    1
    35     7    11    1
    36     7    12    1
@<TRIPOS>MOLECULE
*****
 34 36 0 0 0
SMALL
GASTEIGER

@<TRIPOS>ATOM
      1 C           3.5516   -0.5377   26.0969 C.ar    1  UNL1        0.0842
      2 C           4.4251   -1.0558   24.9930 C.ar    1  UNL1        0.0146
      3 C           5.4073   -2.0184   25.5920 C.ar    1  UNL1        0.0423
      4 C           6.5098   -2.8349   24.9856 C.ar    1  UNL1        0.0870
      5 N           7.3459   -3.7282   25.8533 N.ar    1  UNL1       -0.2139
      6 C           7.0795   -3.8051   27.3274 C.ar    1  UNL1        0.2141
      7 N           7.9155   -4.6984   28.1951 N.pl3   1  UNL1       -0.3274
      8 N           5.9769   -2.9885   27.9338 N.ar    1  UNL1       -0.2074
      9 C           5.1408   -2.0952   27.0661 C.ar    1  UNL1        0.1151
     10 S           3.9940   -1.1801   27.3782 S.2     1  UNL1       -0.0633
     11 H           8.6392   -5.2342   27.7971 H       1  UNL1        0.1452
     12 H           7.7406   -4.7488   29.1627 H       1  UNL1        0.1452
     13 C           6.7762   -2.7580   23.5114 C.ar    1  UNL1        0.0314
     14 C           6.0717   -3.6916   22.5723 C.ar    1  UNL1        0.0401
     15 C           6.3382   -3.6148   21.0981 C.ar    1  UNL1        0.1492
     16 C           7.3091   -2.6043   20.5631 C.ar    1  UNL1        0.0924
     17 CL          7.5755   -2.5275   19.0890 Cl      1  UNL1       -0.0791
     18 C           8.0136   -1.6707   21.5023 C.ar    1  UNL1        0.0259
     19 C           7.7472   -1.7475   22.9764 C.ar    1  UNL1        0.0601
     20 CL          8.4517   -0.8139   23.9156 Cl      1  UNL1       -0.0822
     21 O           5.6336   -4.5485   20.1590 O.3     1  UNL1       -0.4731
     22 C           4.1346   -4.5797   20.1167 C.3     1  UNL1        0.2227
     23 C           3.3967   -3.7812   19.0834 C.3     1  UNL1        0.1200
     24 N           3.4909   -2.2841   19.0843 N.3     1  UNL1       -0.2696
     25 C           4.3010   -1.5829   18.0346 C.3     1  UNL1        0.0722
     26 C           4.8399   -0.2079   18.2972 C.3     1  UNL1        0.0188
     27 C           2.7749   -1.4882   20.1350 C.3     1  UNL1        0.0722
     28 C           3.3932   -1.3067   21.4896 C.3     1  UNL1        0.0188
     29 N           1.4397    0.6331   27.0555 N.am    1  UNL1       -0.3005
     30 C           2.4324    0.4494   25.9461 C.2     1  UNL1        0.2519
     31 O           2.3057    1.2529   24.6858 O.2     1  UNL1       -0.2696
     32 H           1.5228    0.1057   27.8827 H       1  UNL1        0.1498
     33 C          -0.9473    1.4420   27.6865 C.3     1  UNL1        0.0230
     34 C           0.3204    1.6203   26.9047 C.3     1  UNL1        0.0898
@<TRIPOS>BOND
     1    33    34    1
     2    34    29    1
     3    29    30   am
     4    30    31    2
     5    30     1    1
     6     1     2   ar
     7     2     3   ar
     8     3     4   ar
     9     4    13    1
    10    13    14   ar
    11    14    15   ar
    12    15    21    1
    13    21    22    1
    14    22    23    1
    15    23    24    1
    16    24    25    1
    17    25    26    1
    18    24    27    1
    19    27    28    1
    20    15    16   ar
    21    16    17    1
    22    16    18   ar
    23    18    19   ar
    24    19    20    1
    25     4     5   ar
    26     5     6   ar
    27     6     7    1
    28     6     8   ar
    29     8     9   ar
    30     9    10   ar
    31    10     1   ar
    32     9     3   ar
    33    19    13   ar
    34    29    32    1
    35     7    11    1
    36     7    12    1
@<TRIPOS>MOLECULE
*****
 34 36 0 0 0
SMALL
GASTEIGER

@<TRIPOS>ATOM
      1 C           3.0502    1.9159   33.9578 C.ar    1  UNL1        0.0842
      2 C           3.9690    0.8902   33.3632 C.ar    1  UNL1        0.0146
      3 C           3.3688    0.4244   32.0698 C.ar    1  UNL1        0.0423
      4 C           3.8301   -0.5763   31.0521 C.ar    1  UNL1        0.0870
      5 N           3.0016   -0.8391   29.8295 N.ar    1  UNL1       -0.2139
      6 C           1.7118   -0.1012   29.6247 C.ar    1  UNL1        0.2141
      7 N           0.8833   -0.3639   28.4023 N.pl3   1  UNL1       -0.3274
      8 N           1.2505    0.8996   30.6425 N.ar    1  UNL1       -0.2074
      9 C           2.0790    1.1623   31.8650 C.ar    1  UNL1        0.1151
     10 S           1.8821    2.0841   33.0319 S.2     1  UNL1       -0.0633
     11 H           1.1861   -1.0207   27.7343 H       1  UNL1        0.1452
     12 H           0.0368    0.1204   28.2679 H       1  UNL1        0.1452
     13 C           5.1199   -1.3142   31.2569 C.ar    1  UNL1        0.0314
     14 C           6.2980   -1.0243   30.3750 C.ar    1  UNL1        0.0401
     15 C           7.5878   -1.7622   30.5798 C.ar    1  UNL1        0.1492
     16 C           7.6994   -2.7901   31.6665 C.ar    1  UNL1        0.0924
     17 CL          8.9892   -3.5281   31.8712 Cl      1  UNL1       -0.0791
     18 C           6.5212   -3.0801   32.5484 C.ar    1  UNL1        0.0259
     19 C           5.2314   -2.3422   32.3437 C.ar    1  UNL1        0.0601
     20 CL          4.0533   -2.6321   33.2256 Cl      1  UNL1       -0.0822
     21 O           8.7660   -1.4722   29.6978 O.3     1  UNL1       -0.4731
     22 C           8.8850   -2.1420   28.3609 C.3     1  UNL1        0.2227
     23 C           7.8749   -3.1697   27.9445 C.3     1  UNL1        0.1200
     24 N           8.3182   -4.5611   27.6016 N.3     1  UNL1       -0.2696
     25 C           7.8779   -5.7185   28.4481 C.3     1  UNL1        0.0722
     26 C           6.7995   -5.5302   29.4735 C.3     1  UNL1        0.0188
     27 C           9.2018   -4.7951   26.4123 C.3     1  UNL1        0.0722
     28 C           8.6051   -4.8726   25.0383 C.3     1  UNL1        0.0188
     29 N           2.1002    2.9106   36.1619 N.am    1  UNL1       -0.3005
     30 C           3.2622    2.6454   35.2512 C.2     1  UNL1        0.2519
     31 O           4.6362    3.1097   35.6340 O.2     1  UNL1       -0.2696
     32 H           1.1983    2.6059   35.9107 H       1  UNL1        0.1498
     33 C           2.6546    2.8760   38.6999 C.3     1  UNL1        0.0230
     34 C           2.3122    3.6401   37.4553 C.3     1  UNL1        0.0898
@<TRIPOS>BOND
     1    33    34    1
     2    34    29    1
     3    29    30   am
     4    30    31    2
     5    30     1    1
     6     1     2   ar
     7     2     3   ar
     8     3     4   ar
     9     4    13    1
    10    13    14   ar
    11    14    15   ar
    12    15    21    1
    13    21    22    1
    14    22    23    1
    15    23    24    1
    16    24    25    1
    17    25    26    1
    18    24    27    1
    19    27    28    1
    20    15    16   ar
    21    16    17    1
    22    16    18   ar
    23    18    19   ar
    24    19    20    1
    25     4     5   ar
    26     5     6   ar
    27     6     7    1
    28     6     8   ar
    29     8     9   ar
    30     9    10   ar
    31    10     1   ar
    32     9     3   ar
    33    19    13   ar
    34    29    32    1
    35     7    11    1
    36     7    12    1
