@<TRIPOS>MOLECULE
*****
 39 43 0 0 0
SMALL
GASTEIGER

@<TRIPOS>ATOM
      1 C           1.2734    1.1812   22.3731 C.ar    1  UNL1        0.0611
      2 C           0.5680    2.3330   23.0256 C.ar    1  UNL1        0.1037
      3 N           1.0459    2.4256   24.4444 N.ar    1  UNL1       -0.2269
      4 C           2.0465    1.3309   24.6689 C.ar    1  UNL1        0.1407
      5 N           2.8478    0.9351   25.8735 N.ar    1  UNL1       -0.3374
      6 C           3.7897   -0.2298   25.7980 C.ar    1  UNL1        0.0735
      7 C           3.9304   -0.9989   24.5179 C.ar    1  UNL1        0.0186
      8 C           3.1291   -0.6031   23.3133 C.ar    1  UNL1        0.0047
      9 C           2.1872    0.5618   23.3888 C.ar    1  UNL1        0.0386
     10 H           2.7555    1.4399   26.7137 H       1  UNL1        0.1674
     11 C           4.8723   -2.1639   24.4425 C.ar    1  UNL1        0.0207
     12 C           4.9211   -3.0101   23.2049 C.ar    1  UNL1        0.0045
     13 C           5.8630   -4.1750   23.1295 C.ar    1  UNL1        0.0343
     14 C           6.7563   -4.4937   24.2917 C.ar    1  UNL1        0.1317
     15 N           6.7075   -3.6475   25.5292 N.ar    1  UNL1       -0.2292
     16 C           5.7656   -2.4826   25.6046 C.ar    1  UNL1        0.1003
     17 N           7.6982   -5.6586   24.2163 N.pl3   1  UNL1       -0.2932
     18 C           7.8920   -6.7056   25.2728 C.3     1  UNL1        0.0922
     19 C           8.9253   -7.6752   24.7806 C.3     1  UNL1        0.0232
     20 C           9.3702   -7.2273   23.4199 C.3     1  UNL1        0.0232
     21 C           8.6118   -5.9810   23.0711 C.3     1  UNL1        0.0922
     22 C           1.0962    0.7282   20.9542 C.2     1  UNL1        0.2015
     23 O          -0.2338    0.2105   20.4927 O.2     1  UNL1       -0.2864
     24 C           4.0596   -0.4066   18.5707 C.ar    1  UNL1        0.0920
     25 C           4.5547    0.9222   18.0817 C.ar    1  UNL1        0.0204
     26 C           3.8970    2.1863   18.5501 C.ar    1  UNL1        0.0312
     27 C           2.7441    2.1217   19.5076 C.ar    1  UNL1        0.1454
     28 F           2.0864    3.3858   19.9761 F       1  UNL1       -0.2040
     29 C           2.2490    0.7929   19.9967 C.ar    1  UNL1        0.0951
     30 C           2.9068   -0.4712   19.5282 C.ar    1  UNL1        0.1598
     31 F           2.4116   -1.8000   20.0173 F       1  UNL1       -0.2026
     32 N           4.7173   -1.6707   18.1023 N.pl3   1  UNL1       -0.2166
     33 H           4.2195   -2.3041   17.5364 H       1  UNL1        0.1734
     34 S           6.1334   -1.9697   18.4961 S.O2    1  UNL1        0.0540
     35 O           6.5985   -1.5700   17.1272 O.2     1  UNL1       -0.1545
     36 O           5.6684   -2.3695   19.8650 O.2     1  UNL1       -0.1545
     37 C           7.5495   -2.2688   18.8900 C.3     1  UNL1        0.1724
     38 C           9.2489   -3.2419   20.5975 C.3     1  UNL1        0.0019
     39 C           7.8325   -3.0277   20.1525 C.3     1  UNL1        0.0273
@<TRIPOS>BOND
     1    38    39    1
     2    39    37    1
     3    37    34    1
     4    34    35    2
     5    34    36    2
     6    34    32    1
     7    32    24    1
     8    24    25   ar
     9    25    26   ar
    10    26    27   ar
    11    27    28    1
    12    27    29   ar
    13    29    22    1
    14    22    23    2
    15    22     1    1
    16     1     2   ar
    17     2     3   ar
    18     3     4   ar
    19     4     5   ar
    20     5     6   ar
    21     6     7   ar
    22     7    11    1
    23    11    12   ar
    24    12    13   ar
    25    13    14   ar
    26    14    17    1
    27    17    18    1
    28    18    19    1
    29    19    20    1
    30    20    21    1
    31    14    15   ar
    32    15    16   ar
    33     7     8   ar
    34     8     9   ar
    35    29    30   ar
    36    30    31    1
    37    30    24   ar
    38     9     1   ar
    39     9     4    1
    40    16    11   ar
    41    21    17    1
    42    32    33    1
    43     5    10    1
@<TRIPOS>MOLECULE
*****
 39 43 0 0 0
SMALL
GASTEIGER

@<TRIPOS>ATOM
      1 C           6.7952   -3.4647   29.8830 C.ar    1  UNL1        0.0611
      2 C           6.9616   -4.4223   31.0254 C.ar    1  UNL1        0.1037
      3 N           7.1137   -5.8016   30.4557 N.ar    1  UNL1       -0.2269
      4 C           7.0413   -5.6964   28.9612 C.ar    1  UNL1        0.1407
      5 N           7.1292   -6.7291   27.8769 N.ar    1  UNL1       -0.3374
      6 C           7.0202   -6.3175   26.4386 C.ar    1  UNL1        0.0735
      7 C           6.8233   -4.8732   26.0846 C.ar    1  UNL1        0.0186
      8 C           6.7354   -3.8405   27.1689 C.ar    1  UNL1        0.0047
      9 C           6.8444   -4.2521   28.6072 C.ar    1  UNL1        0.0386
     10 H           7.2584   -7.6770   28.1092 H       1  UNL1        0.1674
     11 C           6.7144   -4.4617   24.6462 C.ar    1  UNL1        0.0207
     12 C           5.7730   -3.3633   24.2497 C.ar    1  UNL1        0.0045
     13 C           5.6640   -2.9518   22.8113 C.ar    1  UNL1        0.0343
     14 C           6.4964   -3.6387   21.7696 C.ar    1  UNL1        0.1317
     15 N           7.4378   -4.7372   22.1662 N.ar    1  UNL1       -0.2292
     16 C           7.5468   -5.1486   23.6045 C.ar    1  UNL1        0.1003
     17 N           6.3875   -3.2272   20.3313 N.pl3   1  UNL1       -0.2932
     18 C           5.1949   -3.4294   19.4442 C.3     1  UNL1        0.0922
     19 C           5.5223   -2.8685   18.0922 C.3     1  UNL1        0.0232
     20 C           6.9174   -2.3196   18.1436 C.3     1  UNL1        0.0232
     21 C           7.4521   -2.5413   19.5274 C.3     1  UNL1        0.0922
     22 C           6.6117   -1.9803   29.9963 C.2     1  UNL1        0.2015
     23 O           7.7909   -1.0653   29.8480 O.2     1  UNL1       -0.2864
     24 C           2.9315   -0.6276   29.3825 C.ar    1  UNL1        0.0920
     25 C           2.5232   -0.2720   30.7814 C.ar    1  UNL1        0.0204
     26 C           3.4777   -0.4858   31.9186 C.ar    1  UNL1        0.0312
     27 C           4.8405   -1.0552   31.6569 C.ar    1  UNL1        0.1454
     28 F           5.7950   -1.2691   32.7941 F       1  UNL1       -0.2040
     29 C           5.2488   -1.4108   30.2581 C.ar    1  UNL1        0.0951
     30 C           4.2943   -1.1970   29.1209 C.ar    1  UNL1        0.1598
     31 F           4.7027   -1.5526   27.7220 F       1  UNL1       -0.2026
     32 N           1.9770   -0.4137   28.2454 N.pl3   1  UNL1       -0.2166
     33 H           1.9758   -1.0336   27.4805 H       1  UNL1        0.1734
     34 S           1.0243    0.7446   28.2735 S.O2    1  UNL1        0.0540
     35 O          -0.0992   -0.1878   28.6175 O.2     1  UNL1       -0.1545
     36 O           2.1479    1.6770   27.9296 O.2     1  UNL1       -0.1545
     37 C           0.0718    1.9029   28.3017 C.3     1  UNL1        0.1724
     38 C          -0.7345    1.9805   25.8331 C.3     1  UNL1        0.0019
     39 C          -1.0429    1.9818   27.3010 C.3     1  UNL1        0.0273
@<TRIPOS>BOND
     1    38    39    1
     2    39    37    1
     3    37    34    1
     4    34    35    2
     5    34    36    2
     6    34    32    1
     7    32    24    1
     8    24    25   ar
     9    25    26   ar
    10    26    27   ar
    11    27    28    1
    12    27    29   ar
    13    29    22    1
    14    22    23    2
    15    22     1    1
    16     1     2   ar
    17     2     3   ar
    18     3     4   ar
    19     4     5   ar
    20     5     6   ar
    21     6     7   ar
    22     7    11    1
    23    11    12   ar
    24    12    13   ar
    25    13    14   ar
    26    14    17    1
    27    17    18    1
    28    18    19    1
    29    19    20    1
    30    20    21    1
    31    14    15   ar
    32    15    16   ar
    33     7     8   ar
    34     8     9   ar
    35    29    30   ar
    36    30    31    1
    37    30    24   ar
    38     9     1   ar
    39     9     4    1
    40    16    11   ar
    41    21    17    1
    42    32    33    1
    43     5    10    1
@<TRIPOS>MOLECULE
*****
 39 43 0 0 0
SMALL
GASTEIGER

@<TRIPOS>ATOM
      1 C           0.2848    2.8139   20.4742 C.ar    1  UNL1        0.0611
      2 C          -0.8007    3.7648   20.8834 C.ar    1  UNL1        0.1037
      3 N          -1.0168    3.6138   22.3600 N.ar    1  UNL1       -0.2269
      4 C          -0.0648    2.5696   22.8635 C.ar    1  UNL1        0.1407
      5 N           0.1734    2.0051   24.2326 N.ar    1  UNL1       -0.3374
      6 C           1.2161    0.9463   24.4362 C.ar    1  UNL1        0.0735
      7 C           2.0206    0.4519   23.2707 C.ar    1  UNL1        0.0186
      8 C           1.7823    1.0164   21.9016 C.ar    1  UNL1        0.0047
      9 C           0.7396    2.0752   21.6980 C.ar    1  UNL1        0.0386
     10 H          -0.3546    2.3296   24.9976 H       1  UNL1        0.1674
     11 C           3.0633   -0.6071   23.4743 C.ar    1  UNL1        0.0207
     12 C           3.4493   -1.5078   22.3387 C.ar    1  UNL1        0.0045
     13 C           4.4921   -2.5667   22.5424 C.ar    1  UNL1        0.0343
     14 C           5.1488   -2.7249   23.8817 C.ar    1  UNL1        0.1317
     15 N           4.7627   -1.8241   25.0173 N.ar    1  UNL1       -0.2292
     16 C           3.7201   -0.7652   24.8136 C.ar    1  UNL1        0.1003
     17 N           6.1915   -3.7837   24.0854 N.pl3   1  UNL1       -0.2932
     18 C           7.0250   -4.4185   23.0119 C.3     1  UNL1        0.0922
     19 C           7.9324   -5.4208   23.6614 C.3     1  UNL1        0.0232
     20 C           7.6597   -5.4056   25.1363 C.3     1  UNL1        0.0232
     21 C           6.5838   -4.3938   25.3984 C.3     1  UNL1        0.0922
     22 C           0.8213    2.6333   19.0852 C.2     1  UNL1        0.2015
     23 O          -0.0529    2.9192   17.9004 O.2     1  UNL1       -0.2864
     24 C           3.9083    0.3793   18.0173 C.ar    1  UNL1        0.0920
     25 C           5.0541    1.2338   18.4724 C.ar    1  UNL1        0.0204
     26 C           4.7889    2.5547   19.1317 C.ar    1  UNL1        0.0312
     27 C           3.3781    3.0213   19.3360 C.ar    1  UNL1        0.1454
     28 F           3.1129    4.3422   19.9953 F       1  UNL1       -0.2040
     29 C           2.2323    2.1668   18.8809 C.ar    1  UNL1        0.0951
     30 C           2.4975    0.8458   18.2215 C.ar    1  UNL1        0.1598
     31 F           1.3516   -0.0086   17.7665 F       1  UNL1       -0.2026
     32 N           4.1735   -0.9417   17.3579 N.pl3   1  UNL1       -0.2166
     33 H           4.0145   -1.0507   16.3925 H       1  UNL1        0.1734
     34 S           4.6808   -2.0966   18.1695 S.O2    1  UNL1        0.0540
     35 O           3.4100   -2.0949   18.9663 O.2     1  UNL1       -0.1545
     36 O           5.9517   -2.0982   17.3727 O.2     1  UNL1       -0.1545
     37 C           5.1883   -3.2515   18.9811 C.3     1  UNL1        0.1724
     38 C           3.5907   -5.1682   19.7051 C.3     1  UNL1        0.0019
     39 C           4.6254   -4.6250   18.7647 C.3     1  UNL1        0.0273
@<TRIPOS>BOND
     1    38    39    1
     2    39    37    1
     3    37    34    1
     4    34    35    2
     5    34    36    2
     6    34    32    1
     7    32    24    1
     8    24    25   ar
     9    25    26   ar
    10    26    27   ar
    11    27    28    1
    12    27    29   ar
    13    29    22    1
    14    22    23    2
    15    22     1    1
    16     1     2   ar
    17     2     3   ar
    18     3     4   ar
    19     4     5   ar
    20     5     6   ar
    21     6     7   ar
    22     7    11    1
    23    11    12   ar
    24    12    13   ar
    25    13    14   ar
    26    14    17    1
    27    17    18    1
    28    18    19    1
    29    19    20    1
    30    20    21    1
    31    14    15   ar
    32    15    16   ar
    33     7     8   ar
    34     8     9   ar
    35    29    30   ar
    36    30    31    1
    37    30    24   ar
    38     9     1   ar
    39     9     4    1
    40    16    11   ar
    41    21    17    1
    42    32    33    1
    43     5    10    1
@<TRIPOS>MOLECULE
*****
 39 43 0 0 0
SMALL
GASTEIGER

@<TRIPOS>ATOM
      1 C           7.2052   -3.8369   22.2768 C.ar    1  UNL1        0.0611
      2 C           7.3299   -4.2898   20.8523 C.ar    1  UNL1        0.1037
      3 N           6.1670   -3.7332   20.0855 N.ar    1  UNL1       -0.2269
      4 C           5.3236   -2.9363   21.0362 C.ar    1  UNL1        0.1407
      5 N           4.0543   -2.1606   20.8436 N.ar    1  UNL1       -0.3374
      6 C           3.4267   -1.4490   22.0053 C.ar    1  UNL1        0.0735
      7 C           4.0683   -1.5131   23.3596 C.ar    1  UNL1        0.0186
      8 C           5.3376   -2.2888   23.5522 C.ar    1  UNL1        0.0047
      9 C           5.9653   -3.0004   22.3905 C.ar    1  UNL1        0.0386
     10 H           3.6332   -2.1185   19.9547 H       1  UNL1        0.1674
     11 C           3.4406   -0.8015   24.5214 C.ar    1  UNL1        0.0207
     12 C           2.4244    0.2753   24.2811 C.ar    1  UNL1        0.0045
     13 C           1.7966    0.9869   25.4428 C.ar    1  UNL1        0.0343
     14 C           2.1851    0.6217   26.8449 C.ar    1  UNL1        0.1317
     15 N           3.2014   -0.4552   27.0851 N.ar    1  UNL1       -0.2292
     16 C           3.8291   -1.1667   25.9234 C.ar    1  UNL1        0.1003
     17 N           1.5575    1.3333   28.0066 N.pl3   1  UNL1       -0.2932
     18 C           0.8771    0.6839   29.1751 C.3     1  UNL1        0.0922
     19 C           0.3991    1.7684   30.0945 C.3     1  UNL1        0.0232
     20 C           0.7840    3.0881   29.4941 C.3     1  UNL1        0.0232
     21 C           1.4999    2.8191   28.2037 C.3     1  UNL1        0.0922
     22 C           8.1538   -4.1632   23.3920 C.2     1  UNL1        0.2015
     23 O           9.4355   -3.3972   23.5348 O.2     1  UNL1       -0.2864
     24 C           6.7657   -6.0237   26.6110 C.ar    1  UNL1        0.0920
     25 C           7.1548   -7.4406   26.3094 C.ar    1  UNL1        0.0204
     26 C           7.8769   -7.7650   25.0353 C.ar    1  UNL1        0.0312
     27 C           8.2099   -6.6726   24.0628 C.ar    1  UNL1        0.1454
     28 F           8.9320   -6.9971   22.7888 F       1  UNL1       -0.2040
     29 C           7.8208   -5.2557   24.3645 C.ar    1  UNL1        0.0951
     30 C           7.0987   -4.9313   25.6386 C.ar    1  UNL1        0.1598
     31 F           6.7096   -3.5143   25.9401 F       1  UNL1       -0.2026
     32 N           6.0435   -5.6992   27.8851 N.pl3   1  UNL1       -0.2166
     33 H           5.0830   -5.8973   27.9707 H       1  UNL1        0.1734
     34 S           6.7850   -5.0730   29.0288 S.O2    1  UNL1        0.0540
     35 O           7.4784   -6.3766   29.2931 O.2     1  UNL1       -0.1545
     36 O           6.0916   -3.7694   28.7646 O.2     1  UNL1       -0.1545
     37 C           7.5264   -4.4467   30.1725 C.3     1  UNL1        0.1724
     38 C           6.3009   -3.4355   32.2283 C.3     1  UNL1        0.0019
     39 C           7.0037   -4.5865   31.5716 C.3     1  UNL1        0.0273
@<TRIPOS>BOND
     1    38    39    1
     2    39    37    1
     3    37    34    1
     4    34    35    2
     5    34    36    2
     6    34    32    1
     7    32    24    1
     8    24    25   ar
     9    25    26   ar
    10    26    27   ar
    11    27    28    1
    12    27    29   ar
    13    29    22    1
    14    22    23    2
    15    22     1    1
    16     1     2   ar
    17     2     3   ar
    18     3     4   ar
    19     4     5   ar
    20     5     6   ar
    21     6     7   ar
    22     7    11    1
    23    11    12   ar
    24    12    13   ar
    25    13    14   ar
    26    14    17    1
    27    17    18    1
    28    18    19    1
    29    19    20    1
    30    20    21    1
    31    14    15   ar
    32    15    16   ar
    33     7     8   ar
    34     8     9   ar
    35    29    30   ar
    36    30    31    1
    37    30    24   ar
    38     9     1   ar
    39     9     4    1
    40    16    11   ar
    41    21    17    1
    42    32    33    1
    43     5    10    1
@<TRIPOS>MOLECULE
*****
 39 43 0 0 0
SMALL
GASTEIGER

@<TRIPOS>ATOM
      1 C          -3.2008    4.5406   21.2661 C.ar    1  UNL1        0.0611
      2 C          -3.6499    5.9463   20.9971 C.ar    1  UNL1        0.1037
      3 N          -2.6961    6.5574   20.0138 N.ar    1  UNL1       -0.2269
      4 C          -1.6576    5.5294   19.6751 C.ar    1  UNL1        0.1407
      5 N          -0.4682    5.5673   18.7620 N.ar    1  UNL1       -0.3374
      6 C           0.4093    4.3587   18.6228 C.ar    1  UNL1        0.0735
      7 C           0.0973    3.1122   19.3968 C.ar    1  UNL1        0.0186
      8 C          -1.0921    3.0744   20.3100 C.ar    1  UNL1        0.0047
      9 C          -1.9695    4.2829   20.4491 C.ar    1  UNL1        0.0386
     10 H          -0.2634    6.3853   18.2540 H       1  UNL1        0.1674
     11 C           0.9748    1.9036   19.2577 C.ar    1  UNL1        0.0207
     12 C           2.2841    2.0068   18.5331 C.ar    1  UNL1        0.0045
     13 C           3.1617    0.7982   18.3939 C.ar    1  UNL1        0.0343
     14 C           2.7298   -0.5136   18.9793 C.ar    1  UNL1        0.1317
     15 N           1.4204   -0.6167   19.7039 N.ar    1  UNL1       -0.2292
     16 C           0.5430    0.5918   19.8431 C.ar    1  UNL1        0.1003
     17 N           3.6072   -1.7221   18.8402 N.pl3   1  UNL1       -0.2932
     18 C           4.9252   -1.7774   18.1260 C.3     1  UNL1        0.0922
     19 C           5.4533   -3.1771   18.2352 C.3     1  UNL1        0.0232
     20 C           4.4617   -3.9869   19.0169 C.3     1  UNL1        0.0232
     21 C           3.3208   -3.0877   19.3908 C.3     1  UNL1        0.0922
     22 C          -3.8662    3.5641   22.1900 C.2     1  UNL1        0.2015
     23 O          -4.7148    2.4610   21.6305 O.2     1  UNL1       -0.2864
     24 C          -2.1277    3.7157   25.7544 C.ar    1  UNL1        0.0920
     25 C          -3.3166    3.9436   26.6402 C.ar    1  UNL1        0.0204
     26 C          -4.6887    4.0451   26.0425 C.ar    1  UNL1        0.0312
     27 C          -4.8719    3.9186   24.5592 C.ar    1  UNL1        0.1454
     28 F          -6.2440    4.0200   23.9616 F       1  UNL1       -0.2040
     29 C          -3.6830    3.6906   23.6734 C.ar    1  UNL1        0.0951
     30 C          -2.3110    3.5892   24.2710 C.ar    1  UNL1        0.1598
     31 F          -1.1221    3.3612   23.3852 F       1  UNL1       -0.2026
     32 N          -0.7557    3.6142   26.3520 N.pl3   1  UNL1       -0.2166
     33 H          -0.0907    4.3197   26.1807 H       1  UNL1        0.1734
     34 S          -0.3967    2.4379   27.2107 S.O2    1  UNL1        0.0540
     35 O          -0.6219    1.5193   26.0464 O.2     1  UNL1       -0.1545
     36 O          -0.1715    3.3564   28.3749 O.2     1  UNL1       -0.1545
     37 C          -0.0378    1.2616   28.0694 C.3     1  UNL1        0.1724
     38 C          -1.3480   -0.8818   28.7323 C.3     1  UNL1        0.0019
     39 C          -1.0921    0.5871   28.8962 C.3     1  UNL1        0.0273
@<TRIPOS>BOND
     1    38    39    1
     2    39    37    1
     3    37    34    1
     4    34    35    2
     5    34    36    2
     6    34    32    1
     7    32    24    1
     8    24    25   ar
     9    25    26   ar
    10    26    27   ar
    11    27    28    1
    12    27    29   ar
    13    29    22    1
    14    22    23    2
    15    22     1    1
    16     1     2   ar
    17     2     3   ar
    18     3     4   ar
    19     4     5   ar
    20     5     6   ar
    21     6     7   ar
    22     7    11    1
    23    11    12   ar
    24    12    13   ar
    25    13    14   ar
    26    14    17    1
    27    17    18    1
    28    18    19    1
    29    19    20    1
    30    20    21    1
    31    14    15   ar
    32    15    16   ar
    33     7     8   ar
    34     8     9   ar
    35    29    30   ar
    36    30    31    1
    37    30    24   ar
    38     9     1   ar
    39     9     4    1
    40    16    11   ar
    41    21    17    1
    42    32    33    1
    43     5    10    1
@<TRIPOS>MOLECULE
*****
 39 43 0 0 0
SMALL
GASTEIGER

@<TRIPOS>ATOM
      1 C           5.1846   -3.4131   22.2368 C.ar    1  UNL1        0.0611
      2 C           6.3223   -4.1095   22.9228 C.ar    1  UNL1        0.1037
      3 N           6.4691   -3.5180   24.2934 N.ar    1  UNL1       -0.2269
      4 C           5.4221   -2.4560   24.4545 C.ar    1  UNL1        0.1407
      5 N           5.0891   -1.5397   25.5944 N.ar    1  UNL1       -0.3374
      6 C           3.9622   -0.5584   25.4632 C.ar    1  UNL1        0.0735
      7 C           3.1683   -0.4935   24.1922 C.ar    1  UNL1        0.0186
      8 C           3.5013   -1.4099   23.0523 C.ar    1  UNL1        0.0047
      9 C           4.6282   -2.3911   23.1835 C.ar    1  UNL1        0.0386
     10 H           5.6101   -1.5822   26.4286 H       1  UNL1        0.1674
     11 C           2.0414    0.4878   24.0611 C.ar    1  UNL1        0.0207
     12 C           1.4979    0.8289   22.7053 C.ar    1  UNL1        0.0045
     13 C           0.3709    1.8102   22.5741 C.ar    1  UNL1        0.0343
     14 C          -0.2124    2.4503   23.7988 C.ar    1  UNL1        0.1317
     15 N           0.3311    2.1092   25.1547 N.ar    1  UNL1       -0.2292
     16 C           1.4580    1.1279   25.2858 C.ar    1  UNL1        0.1003
     17 N          -1.3393    3.4316   23.6678 N.pl3   1  UNL1       -0.2932
     18 C          -2.3947    3.7051   24.6981 C.3     1  UNL1        0.0922
     19 C          -3.3163    4.7542   24.1505 C.3     1  UNL1        0.0232
     20 C          -2.8306    5.1291   22.7816 C.3     1  UNL1        0.0232
     21 C          -1.6087    4.3117   22.4834 C.3     1  UNL1        0.0922
     22 C           4.6900   -3.6899   20.8480 C.2     1  UNL1        0.2015
     23 O           3.9639   -4.9684   20.5513 O.2     1  UNL1       -0.2864
     24 C           4.0066   -0.8788   18.1311 C.ar    1  UNL1        0.0920
     25 C           5.3847   -0.6846   17.5715 C.ar    1  UNL1        0.0204
     26 C           6.5312   -1.4921   18.1039 C.ar    1  UNL1        0.0312
     27 C           6.2997   -2.4938   19.1961 C.ar    1  UNL1        0.1454
     28 F           7.4461   -3.3013   19.7286 F       1  UNL1       -0.2040
     29 C           4.9216   -2.6881   19.7558 C.ar    1  UNL1        0.0951
     30 C           3.7751   -1.8806   19.2233 C.ar    1  UNL1        0.1598
     31 F           2.3971   -2.0749   19.7830 F       1  UNL1       -0.2026
     32 N           2.8602   -0.0713   17.5986 N.pl3   1  UNL1       -0.2166
     33 H           2.4746   -0.2848   16.7183 H       1  UNL1        0.1734
     34 S           2.3011    1.0615   18.4075 S.O2    1  UNL1        0.0540
     35 O           0.9935    0.3353   18.5207 O.2     1  UNL1       -0.1545
     36 O           3.6087    1.7876   18.2943 O.2     1  UNL1       -0.1545
     37 C           1.7422    2.1943   19.2163 C.3     1  UNL1        0.1724
     38 C           0.1274    3.7088   17.8564 C.3     1  UNL1        0.0019
     39 C           0.3566    2.6995   18.9421 C.3     1  UNL1        0.0273
@<TRIPOS>BOND
     1    38    39    1
     2    39    37    1
     3    37    34    1
     4    34    35    2
     5    34    36    2
     6    34    32    1
     7    32    24    1
     8    24    25   ar
     9    25    26   ar
    10    26    27   ar
    11    27    28    1
    12    27    29   ar
    13    29    22    1
    14    22    23    2
    15    22     1    1
    16     1     2   ar
    17     2     3   ar
    18     3     4   ar
    19     4     5   ar
    20     5     6   ar
    21     6     7   ar
    22     7    11    1
    23    11    12   ar
    24    12    13   ar
    25    13    14   ar
    26    14    17    1
    27    17    18    1
    28    18    19    1
    29    19    20    1
    30    20    21    1
    31    14    15   ar
    32    15    16   ar
    33     7     8   ar
    34     8     9   ar
    35    29    30   ar
    36    30    31    1
    37    30    24   ar
    38     9     1   ar
    39     9     4    1
    40    16    11   ar
    41    21    17    1
    42    32    33    1
    43     5    10    1
@<TRIPOS>MOLECULE
*****
 39 43 0 0 0
SMALL
GASTEIGER

@<TRIPOS>ATOM
      1 C           4.9672   -3.5253   20.3388 C.ar    1  UNL1        0.0611
      2 C           6.0978   -4.4165   19.9177 C.ar    1  UNL1        0.1037
      3 N           7.0009   -4.6095   21.0997 N.ar    1  UNL1       -0.2269
      4 C           6.4284   -3.8375   22.2514 C.ar    1  UNL1        0.1407
      5 N           6.8893   -3.6581   23.6675 N.ar    1  UNL1       -0.3374
      6 C           6.0932   -2.8086   24.6133 C.ar    1  UNL1        0.0735
      7 C           4.8363   -2.1385   24.1431 C.ar    1  UNL1        0.0186
      8 C           4.3755   -2.3179   22.7269 C.ar    1  UNL1        0.0047
      9 C           5.1715   -3.1674   21.7811 C.ar    1  UNL1        0.0386
     10 H           7.7142   -4.0979   23.9762 H       1  UNL1        0.1674
     11 C           4.0402   -1.2890   25.0890 C.ar    1  UNL1        0.0207
     12 C           3.1910   -0.1715   24.5600 C.ar    1  UNL1        0.0045
     13 C           2.3949    0.6780   25.5059 C.ar    1  UNL1        0.0343
     14 C           2.4481    0.4099   26.9808 C.ar    1  UNL1        0.1317
     15 N           3.2974   -0.7077   27.5098 N.ar    1  UNL1       -0.2292
     16 C           4.0934   -1.5571   26.5639 C.ar    1  UNL1        0.1003
     17 N           1.6521    1.2593   27.9267 N.pl3   1  UNL1       -0.2932
     18 C           1.0710    2.6087   27.6241 C.3     1  UNL1        0.0922
     19 C           0.3571    3.0919   28.8517 C.3     1  UNL1        0.0232
     20 C           0.4971    2.0411   29.9130 C.3     1  UNL1        0.0232
     21 C           1.2975    0.9085   29.3413 C.3     1  UNL1        0.0922
     22 C           3.8316   -3.0715   19.4702 C.2     1  UNL1        0.2015
     23 O           2.8010   -4.0580   19.0071 O.2     1  UNL1       -0.2864
     24 C           2.4547    0.6337   19.1157 C.ar    1  UNL1        0.0920
     25 C           3.5167    1.2495   18.2536 C.ar    1  UNL1        0.0204
     26 C           4.6835    0.4249   17.7971 C.ar    1  UNL1        0.0312
     27 C           4.7886   -1.0154   18.2025 C.ar    1  UNL1        0.1454
     28 F           5.9554   -1.8400   17.7460 F       1  UNL1       -0.2040
     29 C           3.7266   -1.6311   19.0646 C.ar    1  UNL1        0.0951
     30 C           2.5598   -0.8066   19.5212 C.ar    1  UNL1        0.1598
     31 F           1.4979   -1.4224   20.3833 F       1  UNL1       -0.2026
     32 N           1.2879    1.4583   19.5723 N.pl3   1  UNL1       -0.2166
     33 H           0.7500    1.9564   18.9152 H       1  UNL1        0.1734
     34 S           0.9406    1.5240   21.0301 S.O2    1  UNL1        0.0540
     35 O           2.2853    2.1201   21.3236 O.2     1  UNL1       -0.1545
     36 O          -0.4042    0.9278   20.7365 O.2     1  UNL1       -0.1545
     37 C           0.5932    1.5896   22.4878 C.3     1  UNL1        0.1724
     38 C          -0.7270    2.7858   24.3790 C.3     1  UNL1        0.0019
     39 C          -0.0186    2.8349   23.0577 C.3     1  UNL1        0.0273
@<TRIPOS>BOND
     1    38    39    1
     2    39    37    1
     3    37    34    1
     4    34    35    2
     5    34    36    2
     6    34    32    1
     7    32    24    1
     8    24    25   ar
     9    25    26   ar
    10    26    27   ar
    11    27    28    1
    12    27    29   ar
    13    29    22    1
    14    22    23    2
    15    22     1    1
    16     1     2   ar
    17     2     3   ar
    18     3     4   ar
    19     4     5   ar
    20     5     6   ar
    21     6     7   ar
    22     7    11    1
    23    11    12   ar
    24    12    13   ar
    25    13    14   ar
    26    14    17    1
    27    17    18    1
    28    18    19    1
    29    19    20    1
    30    20    21    1
    31    14    15   ar
    32    15    16   ar
    33     7     8   ar
    34     8     9   ar
    35    29    30   ar
    36    30    31    1
    37    30    24   ar
    38     9     1   ar
    39     9     4    1
    40    16    11   ar
    41    21    17    1
    42    32    33    1
    43     5    10    1
@<TRIPOS>MOLECULE
*****
 39 43 0 0 0
SMALL
GASTEIGER

@<TRIPOS>ATOM
      1 C           4.4692   -1.9256   18.6374 C.ar    1  UNL1        0.0611
      2 C           5.2070   -3.1525   18.1894 C.ar    1  UNL1        0.1037
      3 N           5.4967   -3.9875   19.4014 N.ar    1  UNL1       -0.2269
      4 C           4.9380   -3.2767   20.5984 C.ar    1  UNL1        0.1407
      5 N           4.9255   -3.6253   22.0572 N.ar    1  UNL1       -0.3374
      6 C           4.2779   -2.6995   23.0439 C.ar    1  UNL1        0.0735
      7 C           3.6429   -1.4252   22.5717 C.ar    1  UNL1        0.0186
      8 C           3.6555   -1.0767   21.1129 C.ar    1  UNL1        0.0047
      9 C           4.3030   -2.0024   20.1262 C.ar    1  UNL1        0.0386
     10 H           5.3422   -4.4616   22.3671 H       1  UNL1        0.1674
     11 C           2.9954   -0.4994   23.5585 C.ar    1  UNL1        0.0207
     12 C           1.9425    0.4663   23.1017 C.ar    1  UNL1        0.0045
     13 C           1.2949    1.3921   24.0884 C.ar    1  UNL1        0.0343
     14 C           1.7003    1.3521   25.5321 C.ar    1  UNL1        0.1317
     15 N           2.7533    0.3863   25.9889 N.ar    1  UNL1       -0.2292
     16 C           3.4008   -0.5394   25.0021 C.ar    1  UNL1        0.1003
     17 N           1.0529    2.2778   26.5188 N.pl3   1  UNL1       -0.2932
     18 C           0.1348    3.4170   26.1880 C.3     1  UNL1        0.0922
     19 C          -0.2757    4.0702   27.4744 C.3     1  UNL1        0.0232
     20 C           0.3886    3.3346   28.6003 C.3     1  UNL1        0.0232
     21 C           1.2097    2.2269   28.0097 C.3     1  UNL1        0.0922
     22 C           3.9831   -0.8167   17.7520 C.2     1  UNL1        0.2015
     23 O           3.8686   -1.0337   16.2723 O.2     1  UNL1       -0.2864
     24 C           1.8002    2.2527   19.0028 C.ar    1  UNL1        0.0920
     25 C           2.8681    3.1616   19.5353 C.ar    1  UNL1        0.0204
     26 C           4.3076    2.7445   19.4734 C.ar    1  UNL1        0.0312
     27 C           4.6793    1.4184   18.8790 C.ar    1  UNL1        0.1454
     28 F           6.1188    1.0013   18.8170 F       1  UNL1       -0.2040
     29 C           3.6114    0.5095   18.3465 C.ar    1  UNL1        0.0951
     30 C           2.1719    0.9266   18.4084 C.ar    1  UNL1        0.1598
     31 F           1.1041    0.0176   17.8759 F       1  UNL1       -0.2026
     32 N           0.3607    2.6699   19.0648 N.pl3   1  UNL1       -0.2166
     33 H          -0.1451    2.8180   18.2332 H       1  UNL1        0.1734
     34 S          -0.3081    2.8613   20.3937 S.O2    1  UNL1        0.0540
     35 O          -0.4435    1.3746   20.5397 O.2     1  UNL1       -0.1545
     36 O          -0.1727    4.3480   20.2476 O.2     1  UNL1       -0.1545
     37 C          -0.9769    3.0529   21.7225 C.3     1  UNL1        0.1724
     38 C          -3.4072    3.2945   20.8363 C.3     1  UNL1        0.0019
     39 C          -2.3280    3.7003   21.7958 C.3     1  UNL1        0.0273
@<TRIPOS>BOND
     1    38    39    1
     2    39    37    1
     3    37    34    1
     4    34    35    2
     5    34    36    2
     6    34    32    1
     7    32    24    1
     8    24    25   ar
     9    25    26   ar
    10    26    27   ar
    11    27    28    1
    12    27    29   ar
    13    29    22    1
    14    22    23    2
    15    22     1    1
    16     1     2   ar
    17     2     3   ar
    18     3     4   ar
    19     4     5   ar
    20     5     6   ar
    21     6     7   ar
    22     7    11    1
    23    11    12   ar
    24    12    13   ar
    25    13    14   ar
    26    14    17    1
    27    17    18    1
    28    18    19    1
    29    19    20    1
    30    20    21    1
    31    14    15   ar
    32    15    16   ar
    33     7     8   ar
    34     8     9   ar
    35    29    30   ar
    36    30    31    1
    37    30    24   ar
    38     9     1   ar
    39     9     4    1
    40    16    11   ar
    41    21    17    1
    42    32    33    1
    43     5    10    1
@<TRIPOS>MOLECULE
*****
 39 43 0 0 0
SMALL
GASTEIGER

@<TRIPOS>ATOM
      1 C           7.6823   -4.0480   27.6970 C.ar    1  UNL1        0.0611
      2 C           8.1344   -5.3963   27.2201 C.ar    1  UNL1        0.1037
      3 N           8.0308   -6.3535   28.3704 N.ar    1  UNL1       -0.2269
      4 C           7.5147   -5.5967   29.5582 C.ar    1  UNL1        0.1407
      5 N           7.2131   -6.0209   30.9649 N.ar    1  UNL1       -0.3374
      6 C           6.6960   -5.0202   31.9555 C.ar    1  UNL1        0.0735
      7 C           6.4806   -3.5953   31.5393 C.ar    1  UNL1        0.0186
      8 C           6.7823   -3.1711   30.1326 C.ar    1  UNL1        0.0047
      9 C           7.2993   -4.1717   29.1420 C.ar    1  UNL1        0.0386
     10 H           7.3544   -6.9561   31.2381 H       1  UNL1        0.1674
     11 C           5.9636   -2.5946   32.5300 C.ar    1  UNL1        0.0207
     12 C           6.8316   -1.4505   32.9630 C.ar    1  UNL1        0.0045
     13 C           6.3146   -0.4498   33.9537 C.ar    1  UNL1        0.0343
     14 C           4.9295   -0.5933   34.5113 C.ar    1  UNL1        0.1317
     15 N           4.0614   -1.7374   34.0782 N.ar    1  UNL1       -0.2292
     16 C           4.5785   -2.7381   33.0876 C.ar    1  UNL1        0.1003
     17 N           4.4124    0.4073   35.5019 N.pl3   1  UNL1       -0.2932
     18 C           3.6042    1.6295   35.1806 C.3     1  UNL1        0.0922
     19 C           3.3050    2.3390   36.4679 C.3     1  UNL1        0.0232
     20 C           3.9284    1.5553   37.5848 C.3     1  UNL1        0.0232
     21 C           4.6127    0.3615   36.9877 C.3     1  UNL1        0.0922
     22 C           7.6235   -2.7956   26.8735 C.2     1  UNL1        0.2015
     23 O           8.5712   -1.6676   27.1551 O.2     1  UNL1       -0.2864
     24 C           5.8511   -3.2292   23.3492 C.ar    1  UNL1        0.0920
     25 C           4.6037   -2.4226   23.5580 C.ar    1  UNL1        0.0204
     26 C           4.3630   -1.7404   24.8720 C.ar    1  UNL1        0.0312
     27 C           5.3695   -1.8647   25.9772 C.ar    1  UNL1        0.1454
     28 F           5.1288   -1.1825   27.2912 F       1  UNL1       -0.2040
     29 C           6.6168   -2.6713   25.7683 C.ar    1  UNL1        0.0951
     30 C           6.8576   -3.3535   24.4543 C.ar    1  UNL1        0.1598
     31 F           8.1050   -4.1600   24.2455 F       1  UNL1       -0.2026
     32 N           6.0918   -3.9114   22.0352 N.pl3   1  UNL1       -0.2166
     33 H           6.6914   -4.6908   21.9877 H       1  UNL1        0.1734
     34 S           5.4190   -3.4061   20.7934 S.O2    1  UNL1        0.0540
     35 O           4.4346   -4.5355   20.8672 O.2     1  UNL1       -0.1545
     36 O           6.4034   -2.2767   20.7196 O.2     1  UNL1       -0.1545
     37 C           4.7463   -2.9007   19.5517 C.3     1  UNL1        0.1724
     38 C           2.6891   -1.4163   20.1128 C.3     1  UNL1        0.0019
     39 C           3.2629   -2.6782   19.5399 C.3     1  UNL1        0.0273
@<TRIPOS>BOND
     1    38    39    1
     2    39    37    1
     3    37    34    1
     4    34    35    2
     5    34    36    2
     6    34    32    1
     7    32    24    1
     8    24    25   ar
     9    25    26   ar
    10    26    27   ar
    11    27    28    1
    12    27    29   ar
    13    29    22    1
    14    22    23    2
    15    22     1    1
    16     1     2   ar
    17     2     3   ar
    18     3     4   ar
    19     4     5   ar
    20     5     6   ar
    21     6     7   ar
    22     7    11    1
    23    11    12   ar
    24    12    13   ar
    25    13    14   ar
    26    14    17    1
    27    17    18    1
    28    18    19    1
    29    19    20    1
    30    20    21    1
    31    14    15   ar
    32    15    16   ar
    33     7     8   ar
    34     8     9   ar
    35    29    30   ar
    36    30    31    1
    37    30    24   ar
    38     9     1   ar
    39     9     4    1
    40    16    11   ar
    41    21    17    1
    42    32    33    1
    43     5    10    1
