@<TRIPOS>MOLECULE
*****
 40 43 0 0 0
SMALL
GASTEIGER

@<TRIPOS>ATOM
      1 C           6.3204   -2.8428   25.7439 C.2     1  UNL1        0.2485
      2 O           6.8921   -1.5279   25.3032 O.2     1  UNL1       -0.2726
      3 N           5.5310   -3.6781   24.7801 N.am    1  UNL1       -0.2823
      4 H           5.1557   -4.5411   25.0693 H       1  UNL1        0.1549
      5 C           5.4782   -1.7053   31.1876 C.ar    1  UNL1        0.1054
      6 C           5.0536   -0.8734   30.0139 C.ar    1  UNL1        0.0181
      7 C           5.3628   -1.3308   28.6192 C.ar    1  UNL1       -0.0011
      8 C           6.0966   -2.6202   28.3982 C.ar    1  UNL1        0.0022
      9 C           6.5212   -3.4522   29.5719 C.ar    1  UNL1       -0.0030
     10 C           6.2120   -2.9947   30.9665 C.ar    1  UNL1        0.0155
     11 C           7.2252   -4.6686   29.0474 C.3     1  UNL1        0.1207
     12 N           7.2357   -4.5883   27.5496 N.am    1  UNL1       -0.2635
     13 C           7.8379   -5.5969   26.6168 C.2     1  UNL1        0.2537
     14 O           7.7712   -5.3806   25.1340 O.2     1  UNL1       -0.2722
     15 C           6.5381   -3.3224   27.1484 C.3     1  UNL1        0.1751
     16 C           4.8597   -0.7904   33.9769 C.3     1  UNL1        0.1816
     17 S           5.1689   -1.2479   32.5822 S.O2    1  UNL1        0.0104
     18 O           6.4662   -0.4960   32.6232 O.2     1  UNL1       -0.1686
     19 O           3.8716   -1.9997   32.5412 O.2     1  UNL1       -0.1686
     20 C           8.5067   -6.8217   27.1668 C.3     1  UNL1        0.1935
     21 C           8.4233   -8.2926   26.8852 C.3     1  UNL1        0.0711
     22 C           9.4526   -8.5538   27.9447 C.3     1  UNL1        0.1457
     23 O           9.5359   -7.0828   28.2262 O.3     1  UNL1       -0.3469
     24 C           5.3132   -3.1985   23.3756 C.ar    1  UNL1        0.0503
     25 C           4.1957   -2.2446   23.0736 C.ar    1  UNL1        0.0144
     26 C           3.9779   -1.7650   21.6691 C.ar    1  UNL1       -0.0002
     27 C           4.8777   -2.2392   20.5666 C.ar    1  UNL1        0.0182
     28 C           5.9952   -3.1931   20.8686 C.ar    1  UNL1       -0.0002
     29 C           6.2129   -3.6727   22.2731 C.ar    1  UNL1        0.0144
     30 C           4.6599   -1.7596   19.1621 C.3     1  UNL1        0.2827
     31 O           4.7427   -0.3384   19.6346 O.3     1  UNL1       -0.3692
     32 H           4.8933   -0.3245   20.5927 H       1  UNL1        0.2112
     33 C           4.4422   -1.2800   17.7576 C.3     1  UNL1        0.4311
     34 F           4.2244   -0.8005   16.3532 F       1  UNL1       -0.1669
     35 F           3.5765   -1.4627   17.7142 F       1  UNL1       -0.1669
     36 F           5.8923   -0.9095   17.6594 F       1  UNL1       -0.1669
     37 C           4.5771   -3.1809   18.6896 C.3     1  UNL1        0.4311
     38 F           4.4943   -4.6021   18.2172 F       1  UNL1       -0.1669
     39 F           5.3571   -3.2010   18.2704 F       1  UNL1       -0.1669
     40 F           3.2559   -3.6609   19.2130 F       1  UNL1       -0.1669
@<TRIPOS>BOND
     1    16    17    1
     2    17    18    2
     3    17    19    2
     4    17     5    1
     5     5     6   ar
     6     6     7   ar
     7     7     8   ar
     8     8     9   ar
     9     9    10   ar
    10     9    11    1
    11    11    12    1
    12    12    13   am
    13    13    14    2
    14    13    20    1
    15    20    21    1
    16    21    22    1
    17    22    23    1
    18    12    15    1
    19    15     1    1
    20     1     2    2
    21     1     3   am
    22     3    24    1
    23    24    25   ar
    24    25    26   ar
    25    26    27   ar
    26    27    30    1
    27    30    31    1
    28    30    33    1
    29    33    34    1
    30    33    35    1
    31    33    36    1
    32    30    37    1
    33    37    38    1
    34    37    39    1
    35    37    40    1
    36    27    28   ar
    37    28    29   ar
    38    10     5   ar
    39    23    20    1
    40    29    24   ar
    41    15     8    1
    42     3     4    1
    43    31    32    1
@<TRIPOS>MOLECULE
*****
 40 43 0 0 0
SMALL
GASTEIGER

@<TRIPOS>ATOM
      1 C          -0.5343    2.8053   20.7481 C.2     1  UNL1        0.2485
      2 O           0.7814    3.4471   21.0750 O.2     1  UNL1       -0.2726
      3 N          -0.5708    1.4204   20.1730 N.am    1  UNL1       -0.2823
      4 H          -1.4344    0.9992   19.9584 H       1  UNL1        0.1549
      5 C          -4.1140    4.6377   24.6806 C.ar    1  UNL1        0.1054
      6 C          -2.8467    3.8660   24.9007 C.ar    1  UNL1        0.0181
      7 C          -2.0059    3.4546   23.7285 C.ar    1  UNL1       -0.0011
      8 C          -2.4325    3.8149   22.3363 C.ar    1  UNL1        0.0022
      9 C          -3.6998    4.5865   22.1163 C.ar    1  UNL1       -0.0030
     10 C          -4.5405    4.9979   23.2884 C.ar    1  UNL1        0.0155
     11 C          -3.8640    4.7970   20.6402 C.3     1  UNL1        0.1207
     12 N          -2.6982    4.1553   19.9480 N.am    1  UNL1       -0.2635
     13 C          -2.4591    4.1258   18.4674 C.2     1  UNL1        0.2537
     14 O          -1.2420    3.4427   17.9178 O.2     1  UNL1       -0.2722
     15 C          -1.8135    3.5484   20.9963 C.3     1  UNL1        0.1751
     16 C          -5.7954    5.4605   27.0249 C.3     1  UNL1        0.1816
     17 S          -4.9547    5.0491   25.8528 S.O2    1  UNL1        0.0104
     18 O          -4.4771    3.8496   26.6163 O.2     1  UNL1       -0.1686
     19 O          -5.4323    6.2486   25.0892 O.2     1  UNL1       -0.1686
     20 C          -3.4370    4.7793   17.5366 C.3     1  UNL1        0.1935
     21 C          -4.2538    4.3220   16.3645 C.3     1  UNL1        0.0711
     22 C          -4.8201    5.7035   16.2202 C.3     1  UNL1        0.1457
     23 O          -4.0033    6.1607   17.3923 O.3     1  UNL1       -0.3469
     24 C           0.7083    0.6774   19.9248 C.ar    1  UNL1        0.0503
     25 C           1.4040    0.8029   18.6018 C.ar    1  UNL1        0.0144
     26 C           2.6832    0.0599   18.3536 C.ar    1  UNL1       -0.0002
     27 C           3.2668   -0.8086   19.4283 C.ar    1  UNL1        0.0182
     28 C           2.5711   -0.9342   20.7513 C.ar    1  UNL1       -0.0002
     29 C           1.2919   -0.1911   20.9995 C.ar    1  UNL1        0.0144
     30 C           4.5459   -1.5517   19.1801 C.3     1  UNL1        0.2827
     31 O           5.2881   -0.2501   19.1090 O.3     1  UNL1       -0.3692
     32 H           4.6682    0.4835   19.2450 H       1  UNL1        0.2112
     33 C           5.8251   -2.2947   18.9319 C.3     1  UNL1        0.4311
     34 F           7.1043   -3.0377   18.6837 F       1  UNL1       -0.1669
     35 F           5.6033   -2.6310   18.1431 F       1  UNL1       -0.1669
     36 F           6.3606   -1.8122   20.2474 F       1  UNL1       -0.1669
     37 C           3.8037   -2.8532   19.2513 C.3     1  UNL1        0.4311
     38 F           3.0615   -4.1548   19.3224 F       1  UNL1       -0.1669
     39 F           3.3734   -2.7744   18.4811 F       1  UNL1       -0.1669
     40 F           4.2481   -3.4538   20.5520 F       1  UNL1       -0.1669
@<TRIPOS>BOND
     1    16    17    1
     2    17    18    2
     3    17    19    2
     4    17     5    1
     5     5     6   ar
     6     6     7   ar
     7     7     8   ar
     8     8     9   ar
     9     9    10   ar
    10     9    11    1
    11    11    12    1
    12    12    13   am
    13    13    14    2
    14    13    20    1
    15    20    21    1
    16    21    22    1
    17    22    23    1
    18    12    15    1
    19    15     1    1
    20     1     2    2
    21     1     3   am
    22     3    24    1
    23    24    25   ar
    24    25    26   ar
    25    26    27   ar
    26    27    30    1
    27    30    31    1
    28    30    33    1
    29    33    34    1
    30    33    35    1
    31    33    36    1
    32    30    37    1
    33    37    38    1
    34    37    39    1
    35    37    40    1
    36    27    28   ar
    37    28    29   ar
    38    10     5   ar
    39    23    20    1
    40    29    24   ar
    41    15     8    1
    42     3     4    1
    43    31    32    1
@<TRIPOS>MOLECULE
*****
 40 43 0 0 0
SMALL
GASTEIGER

@<TRIPOS>ATOM
      1 C           4.9940   -1.0771   26.2756 C.2     1  UNL1        0.2485
      2 O           5.7261    0.0601   25.6270 O.2     1  UNL1       -0.2726
      3 N           4.2199   -2.0480   25.4340 N.am    1  UNL1       -0.2823
      4 H           3.7394   -2.7944   25.8597 H       1  UNL1        0.1549
      5 C           3.1624    0.9441   31.1945 C.ar    1  UNL1        0.1054
      6 C           2.8402    1.4669   29.8260 C.ar    1  UNL1        0.0181
      7 C           3.4201    0.8013   28.6132 C.ar    1  UNL1       -0.0011
      8 C           4.3220   -0.3871   28.7690 C.ar    1  UNL1        0.0022
      9 C           4.6441   -0.9098   30.1375 C.ar    1  UNL1       -0.0030
     10 C           4.0643   -0.2442   31.3503 C.ar    1  UNL1        0.0155
     11 C           5.5573   -2.0895   29.9801 C.3     1  UNL1        0.1207
     12 N           5.7995   -2.2957   28.5143 N.am    1  UNL1       -0.2635
     13 C           6.6550   -3.3661   27.9040 C.2     1  UNL1        0.2537
     14 O           6.8038   -3.4485   26.4137 O.2     1  UNL1       -0.2722
     15 C           5.0361   -1.2436   27.7658 C.3     1  UNL1        0.1751
     16 C           2.0027    2.2753   33.6201 C.3     1  UNL1        0.1816
     17 S           2.5826    1.6097   32.4073 S.O2    1  UNL1        0.0104
     18 O           3.9590    1.7556   32.9853 O.2     1  UNL1       -0.1686
     19 O           1.2061    1.4639   31.8293 O.2     1  UNL1       -0.1686
     20 C           7.3617   -4.3540   28.7840 C.3     1  UNL1        0.1935
     21 C           6.9697   -5.6217   29.4836 C.3     1  UNL1        0.0711
     22 C           8.3612   -5.7512   30.0286 C.3     1  UNL1        0.1457
     23 O           8.7531   -4.4835   29.3290 O.3     1  UNL1       -0.3469
     24 C           4.1779   -1.8815   23.9439 C.ar    1  UNL1        0.0503
     25 C           3.2201   -0.9072   23.3248 C.ar    1  UNL1        0.0144
     26 C           3.1781   -0.7408   21.8346 C.ar    1  UNL1       -0.0002
     27 C           4.0938   -1.5486   20.9636 C.ar    1  UNL1        0.0182
     28 C           5.0516   -2.5230   21.5827 C.ar    1  UNL1       -0.0002
     29 C           5.0936   -2.6894   23.0729 C.ar    1  UNL1        0.0144
     30 C           4.0518   -1.3822   19.4734 C.3     1  UNL1        0.2827
     31 O           4.6262   -0.0034   19.6112 O.3     1  UNL1       -0.3692
     32 H           4.7756    0.1923   20.5495 H       1  UNL1        0.2112
     33 C           4.0098   -1.2158   17.9833 C.3     1  UNL1        0.4311
     34 F           3.9678   -1.0493   16.4932 F       1  UNL1       -0.1669
     35 F           3.1294   -1.1563   17.9061 F       1  UNL1       -0.1669
     36 F           5.5067   -1.2968   17.9320 F       1  UNL1       -0.1669
     37 C           3.4774   -2.7610   19.3356 C.3     1  UNL1        0.4311
     38 F           2.9031   -4.1398   19.1978 F       1  UNL1       -0.1669
     39 F           2.6996   -2.5934   19.7247 F       1  UNL1       -0.1669
     40 F           4.5577   -3.5365   18.6417 F       1  UNL1       -0.1669
@<TRIPOS>BOND
     1    16    17    1
     2    17    18    2
     3    17    19    2
     4    17     5    1
     5     5     6   ar
     6     6     7   ar
     7     7     8   ar
     8     8     9   ar
     9     9    10   ar
    10     9    11    1
    11    11    12    1
    12    12    13   am
    13    13    14    2
    14    13    20    1
    15    20    21    1
    16    21    22    1
    17    22    23    1
    18    12    15    1
    19    15     1    1
    20     1     2    2
    21     1     3   am
    22     3    24    1
    23    24    25   ar
    24    25    26   ar
    25    26    27   ar
    26    27    30    1
    27    30    31    1
    28    30    33    1
    29    33    34    1
    30    33    35    1
    31    33    36    1
    32    30    37    1
    33    37    38    1
    34    37    39    1
    35    37    40    1
    36    27    28   ar
    37    28    29   ar
    38    10     5   ar
    39    23    20    1
    40    29    24   ar
    41    15     8    1
    42     3     4    1
    43    31    32    1
@<TRIPOS>MOLECULE
*****
 40 43 0 0 0
SMALL
GASTEIGER

@<TRIPOS>ATOM
      1 C           1.6558    1.2964   24.4765 C.2     1  UNL1        0.2485
      2 O           2.8381    2.1070   24.9181 O.2     1  UNL1       -0.2726
      3 N           0.5809    0.9407   25.4604 N.am    1  UNL1       -0.2823
      4 H          -0.1952    0.4086   25.1707 H       1  UNL1        0.1549
      5 C           3.5994   -2.3190   20.6311 C.ar    1  UNL1        0.1054
      6 C           4.0288   -2.2055   22.0638 C.ar    1  UNL1        0.0181
      7 C           3.4001   -1.1766   22.9560 C.ar    1  UNL1       -0.0011
      8 C           2.3419   -0.2611   22.4154 C.ar    1  UNL1        0.0022
      9 C           1.9125   -0.3747   20.9827 C.ar    1  UNL1       -0.0030
     10 C           2.5412   -1.4036   20.0906 C.ar    1  UNL1        0.0155
     11 C           0.8535    0.6580   20.7330 C.3     1  UNL1        0.1207
     12 N           0.6284    1.4096   22.0114 N.am    1  UNL1       -0.2635
     13 C          -0.3455    2.5323   22.2144 C.2     1  UNL1        0.2537
     14 O          -0.4606    3.1918   23.5567 O.2     1  UNL1       -0.2722
     15 C           1.5483    0.8416   23.0512 C.3     1  UNL1        0.1751
     16 C           4.8569   -4.3769   18.8468 C.3     1  UNL1        0.1816
     17 S           4.2281   -3.3480   19.7390 S.O2    1  UNL1        0.0104
     18 O           4.0693   -2.4274   18.5654 O.2     1  UNL1       -0.1686
     19 O           4.3869   -4.2685   20.9126 O.2     1  UNL1       -0.1686
     20 C          -1.2044    2.9953   21.0752 C.3     1  UNL1        0.1935
     21 C          -0.9815    3.8333   19.8512 C.3     1  UNL1        0.0711
     22 C          -2.4190    3.6501   19.4640 C.3     1  UNL1        0.1457
     23 O          -2.6419    2.8121   20.6880 O.3     1  UNL1       -0.3469
     24 C           0.6884    1.3955   26.8857 C.ar    1  UNL1        0.0503
     25 C           0.1749    2.7480   27.2822 C.ar    1  UNL1        0.0144
     26 C           0.2824    3.2028   28.7075 C.ar    1  UNL1       -0.0002
     27 C           0.9033    2.3052   29.7364 C.ar    1  UNL1        0.0182
     28 C           1.4167    0.9527   29.3400 C.ar    1  UNL1       -0.0002
     29 C           1.3092    0.4979   27.9147 C.ar    1  UNL1        0.0144
     30 C           1.0107    2.7601   31.1618 C.3     1  UNL1        0.2827
     31 O          -0.0400    1.7658   31.5583 O.3     1  UNL1       -0.3692
     32 H          -0.3321    1.2741   30.7747 H       1  UNL1        0.2112
     33 C           1.1182    3.2149   32.5871 C.3     1  UNL1        0.4311
     34 F           1.2257    3.6697   34.0124 F       1  UNL1       -0.1669
     35 F           1.9266    2.8885   32.7439 F       1  UNL1       -0.1669
     36 F          -0.2478    3.8276   32.4946 F       1  UNL1       -0.1669
     37 C           2.0615    3.7544   30.7652 C.3     1  UNL1        0.4311
     38 F           3.1123    4.7487   30.3687 F       1  UNL1       -0.1669
     39 F           2.7057    3.1699   30.5982 F       1  UNL1       -0.1669
     40 F           1.3745    5.0811   30.8985 F       1  UNL1       -0.1669
@<TRIPOS>BOND
     1    16    17    1
     2    17    18    2
     3    17    19    2
     4    17     5    1
     5     5     6   ar
     6     6     7   ar
     7     7     8   ar
     8     8     9   ar
     9     9    10   ar
    10     9    11    1
    11    11    12    1
    12    12    13   am
    13    13    14    2
    14    13    20    1
    15    20    21    1
    16    21    22    1
    17    22    23    1
    18    12    15    1
    19    15     1    1
    20     1     2    2
    21     1     3   am
    22     3    24    1
    23    24    25   ar
    24    25    26   ar
    25    26    27   ar
    26    27    30    1
    27    30    31    1
    28    30    33    1
    29    33    34    1
    30    33    35    1
    31    33    36    1
    32    30    37    1
    33    37    38    1
    34    37    39    1
    35    37    40    1
    36    27    28   ar
    37    28    29   ar
    38    10     5   ar
    39    23    20    1
    40    29    24   ar
    41    15     8    1
    42     3     4    1
    43    31    32    1
@<TRIPOS>MOLECULE
*****
 40 43 0 0 0
SMALL
GASTEIGER

@<TRIPOS>ATOM
      1 C           1.4664    1.3670   24.5619 C.2     1  UNL1        0.2485
      2 O           2.1130    2.4015   23.6891 O.2     1  UNL1       -0.2726
      3 N           1.6804   -0.0909   24.2812 N.am    1  UNL1       -0.2823
      4 H           1.2560   -0.7700   24.8539 H       1  UNL1        0.1549
      5 C          -3.3061    3.9434   26.0523 C.ar    1  UNL1        0.1054
      6 C          -2.7938    3.7244   24.6597 C.ar    1  UNL1        0.0181
      7 C          -1.4914    3.0124   24.4429 C.ar    1  UNL1       -0.0011
      8 C          -0.7013    2.5195   25.6189 C.ar    1  UNL1        0.0022
      9 C          -1.2137    2.7386   27.0115 C.ar    1  UNL1       -0.0030
     10 C          -2.5160    3.4506   27.2282 C.ar    1  UNL1        0.0155
     11 C          -0.2230    2.1447   27.9686 C.3     1  UNL1        0.1207
     12 N           0.9015    1.5586   27.1675 N.am    1  UNL1       -0.2635
     13 C           2.1096    0.8630   27.7213 C.2     1  UNL1        0.2537
     14 O           3.1573    0.3254   26.7921 O.2     1  UNL1       -0.2722
     15 C           0.6059    1.7903   25.7152 C.3     1  UNL1        0.1751
     16 C          -5.9108    5.3674   26.4857 C.3     1  UNL1        0.1816
     17 S          -4.6084    4.6554   26.2690 S.O2    1  UNL1        0.0104
     18 O          -5.1857    3.9646   25.0692 O.2     1  UNL1       -0.1686
     19 O          -4.0311    5.3462   27.4688 O.2     1  UNL1       -0.1686
     20 C           2.2700    0.7049   29.2043 C.3     1  UNL1        0.1935
     21 C           3.1394    1.3370   30.2504 C.3     1  UNL1        0.0711
     22 C           2.4967    0.4813   31.3015 C.3     1  UNL1        0.1457
     23 O           1.6273   -0.1508   30.2553 O.3     1  UNL1       -0.3469
     24 C           2.5409   -0.5142   23.1278 C.ar    1  UNL1        0.0503
     25 C           3.8971   -1.1033   23.3804 C.ar    1  UNL1        0.0144
     26 C           4.7576   -1.5266   22.2270 C.ar    1  UNL1       -0.0002
     27 C           4.2621   -1.3609   20.8210 C.ar    1  UNL1        0.0182
     28 C           2.9059   -0.7718   20.5684 C.ar    1  UNL1       -0.0002
     29 C           2.0454   -0.3485   21.7218 C.ar    1  UNL1        0.0144
     30 C           5.1226   -1.7842   19.6676 C.3     1  UNL1        0.2827
     31 O           6.1182   -0.7188   20.0194 O.3     1  UNL1       -0.3692
     32 H           5.8081   -0.2311   20.7985 H       1  UNL1        0.2112
     33 C           5.9831   -2.2075   18.5142 C.3     1  UNL1        0.4311
     34 F           6.8436   -2.6307   17.3609 F       1  UNL1       -0.1669
     35 F           6.2498   -2.9798   18.8563 F       1  UNL1       -0.1669
     36 F           5.6338   -0.9417   17.7891 F       1  UNL1       -0.1669
     37 C           4.1270   -2.8495   19.3158 C.3     1  UNL1        0.4311
     38 F           3.1314   -3.9149   18.9640 F       1  UNL1       -0.1669
     39 F           3.8307   -2.4779   18.5684 F       1  UNL1       -0.1669
     40 F           4.2580   -3.8496   20.4261 F       1  UNL1       -0.1669
@<TRIPOS>BOND
     1    16    17    1
     2    17    18    2
     3    17    19    2
     4    17     5    1
     5     5     6   ar
     6     6     7   ar
     7     7     8   ar
     8     8     9   ar
     9     9    10   ar
    10     9    11    1
    11    11    12    1
    12    12    13   am
    13    13    14    2
    14    13    20    1
    15    20    21    1
    16    21    22    1
    17    22    23    1
    18    12    15    1
    19    15     1    1
    20     1     2    2
    21     1     3   am
    22     3    24    1
    23    24    25   ar
    24    25    26   ar
    25    26    27   ar
    26    27    30    1
    27    30    31    1
    28    30    33    1
    29    33    34    1
    30    33    35    1
    31    33    36    1
    32    30    37    1
    33    37    38    1
    34    37    39    1
    35    37    40    1
    36    27    28   ar
    37    28    29   ar
    38    10     5   ar
    39    23    20    1
    40    29    24   ar
    41    15     8    1
    42     3     4    1
    43    31    32    1
@<TRIPOS>MOLECULE
*****
 40 43 0 0 0
SMALL
GASTEIGER

@<TRIPOS>ATOM
      1 C          -0.7173    2.8080   20.3799 C.2     1  UNL1        0.2485
      2 O           0.4599    3.6563   19.9997 O.2     1  UNL1       -0.2726
      3 N          -0.5960    1.3129   20.3784 N.am    1  UNL1       -0.2823
      4 H          -1.3687    0.7561   20.6279 H       1  UNL1        0.1549
      5 C          -5.3963    5.2532   18.4396 C.ar    1  UNL1        0.1054
      6 C          -4.2603    4.7038   17.6286 C.ar    1  UNL1        0.0181
      7 C          -3.0811    4.0808   18.3152 C.ar    1  UNL1       -0.0011
      8 C          -3.0380    4.0071   19.8128 C.ar    1  UNL1        0.0022
      9 C          -4.1740    4.5564   20.6237 C.ar    1  UNL1       -0.0030
     10 C          -5.3531    5.1795   19.9371 C.ar    1  UNL1        0.0155
     11 C          -3.8539    4.3436   22.0737 C.3     1  UNL1        0.1207
     12 N          -2.5201    3.6628   22.1588 N.am    1  UNL1       -0.2635
     13 C          -1.8143    3.2605   23.4199 C.2     1  UNL1        0.2537
     14 O          -0.4777    2.5836   23.3480 O.2     1  UNL1       -0.2722
     15 C          -2.0158    3.4548   20.7615 C.3     1  UNL1        0.1751
     16 C          -7.7546    6.4992   17.0664 C.3     1  UNL1        0.1816
     17 S          -6.5754    5.8762   17.7530 S.O2    1  UNL1        0.0104
     18 O          -7.4278    4.7107   18.1592 O.2     1  UNL1       -0.1686
     19 O          -5.7231    7.0417   17.3467 O.2     1  UNL1       -0.1686
     20 C          -2.4453    3.5351   24.7527 C.3     1  UNL1        0.1935
     21 C          -1.9518    3.5933   26.1680 C.3     1  UNL1        0.0711
     22 C          -3.3376    3.9235   26.6376 C.3     1  UNL1        0.1457
     23 O          -3.8310    3.8653   25.2223 O.3     1  UNL1       -0.3469
     24 C           0.7024    0.6662   19.9968 C.ar    1  UNL1        0.0503
     25 C           1.5362   -0.0154   21.0409 C.ar    1  UNL1        0.0144
     26 C           2.8347   -0.6622   20.6593 C.ar    1  UNL1       -0.0002
     27 C           3.2995   -0.6274   19.2336 C.ar    1  UNL1        0.0182
     28 C           2.4657    0.0542   18.1894 C.ar    1  UNL1       -0.0002
     29 C           1.1672    0.7009   18.5710 C.ar    1  UNL1        0.0144
     30 C           4.5979   -1.2742   18.8520 C.3     1  UNL1        0.2827
     31 O           5.2116    0.0790   18.6464 O.3     1  UNL1       -0.3692
     32 H           4.5522    0.7651   18.8348 H       1  UNL1        0.2112
     33 C           5.8964   -1.9209   18.4704 C.3     1  UNL1        0.4311
     34 F           7.1949   -2.5677   18.0887 F       1  UNL1       -0.1669
     35 F           5.6043   -2.3261   17.7388 F       1  UNL1       -0.1669
     36 F           6.5542   -1.3091   19.6716 F       1  UNL1       -0.1669
     37 C           3.9843   -2.6274   19.0575 C.3     1  UNL1        0.4311
     38 F           3.3707   -3.9806   19.2631 F       1  UNL1       -0.1669
     39 F           3.4460   -2.6098   18.3544 F       1  UNL1       -0.1669
     40 F           4.6539   -3.1452   20.2959 F       1  UNL1       -0.1669
@<TRIPOS>BOND
     1    16    17    1
     2    17    18    2
     3    17    19    2
     4    17     5    1
     5     5     6   ar
     6     6     7   ar
     7     7     8   ar
     8     8     9   ar
     9     9    10   ar
    10     9    11    1
    11    11    12    1
    12    12    13   am
    13    13    14    2
    14    13    20    1
    15    20    21    1
    16    21    22    1
    17    22    23    1
    18    12    15    1
    19    15     1    1
    20     1     2    2
    21     1     3   am
    22     3    24    1
    23    24    25   ar
    24    25    26   ar
    25    26    27   ar
    26    27    30    1
    27    30    31    1
    28    30    33    1
    29    33    34    1
    30    33    35    1
    31    33    36    1
    32    30    37    1
    33    37    38    1
    34    37    39    1
    35    37    40    1
    36    27    28   ar
    37    28    29   ar
    38    10     5   ar
    39    23    20    1
    40    29    24   ar
    41    15     8    1
    42     3     4    1
    43    31    32    1
@<TRIPOS>MOLECULE
*****
 40 43 0 0 0
SMALL
GASTEIGER

@<TRIPOS>ATOM
      1 C           1.2026    1.9495   31.4004 C.2     1  UNL1        0.2485
      2 O          -0.2621    1.6807   31.5798 O.2     1  UNL1       -0.2726
      3 N           1.7181    2.4455   30.0819 N.am    1  UNL1       -0.2823
      4 H           2.6794    2.6220   29.9641 H       1  UNL1        0.1549
      5 C           2.9961    3.8902   36.3656 C.ar    1  UNL1        0.1054
      6 C           1.9314    4.4861   35.4931 C.ar    1  UNL1        0.0181
      7 C           1.5764    3.8326   34.1905 C.ar    1  UNL1       -0.0011
      8 C           2.2861    2.5831   33.7603 C.ar    1  UNL1        0.0022
      9 C           3.3508    1.9872   34.6328 C.ar    1  UNL1       -0.0030
     10 C           3.7058    2.6408   35.9354 C.ar    1  UNL1        0.0155
     11 C           3.8747    0.7580   33.9510 C.3     1  UNL1        0.1207
     12 N           3.1337    0.5943   32.6572 N.am    1  UNL1       -0.2635
     13 C           3.3385   -0.5045   31.6567 C.2     1  UNL1        0.2537
     14 O           2.5189   -0.5378   30.4009 O.2     1  UNL1       -0.2722
     15 C           2.1519    1.7222   32.5393 C.3     1  UNL1        0.1751
     16 C           3.7060    5.1974   38.9708 C.3     1  UNL1        0.1816
     17 S           3.3511    4.5438   37.6682 S.O2    1  UNL1        0.0104
     18 O           4.1249    5.5954   36.9297 O.2     1  UNL1       -0.1686
     19 O           2.5772    3.4923   38.4067 O.2     1  UNL1       -0.1686
     20 C           4.3630   -1.5700   31.9121 C.3     1  UNL1        0.1935
     21 C           4.5883   -2.5880   32.9905 C.3     1  UNL1        0.0711
     22 C           5.8118   -3.0767   32.2733 C.3     1  UNL1        0.1457
     23 O           5.5864   -2.0587   31.1950 O.3     1  UNL1       -0.3469
     24 C           0.7687    2.6727   28.9430 C.ar    1  UNL1        0.0503
     25 C           0.2218    1.5042   28.1779 C.ar    1  UNL1        0.0144
     26 C          -0.7275    1.7314   27.0390 C.ar    1  UNL1       -0.0002
     27 C          -1.1299    3.1272   26.6651 C.ar    1  UNL1        0.0182
     28 C          -0.5830    4.2957   27.4302 C.ar    1  UNL1       -0.0002
     29 C           0.3663    4.0685   28.5691 C.ar    1  UNL1        0.0144
     30 C          -2.0792    3.3544   25.5262 C.3     1  UNL1        0.2827
     31 O          -1.0428    2.8566   24.5629 O.3     1  UNL1       -0.3692
     32 H          -0.2405    2.6107   25.0497 H       1  UNL1        0.2112
     33 C          -3.0286    3.5816   24.3873 C.3     1  UNL1        0.4311
     34 F          -3.9779    3.8088   23.2483 F       1  UNL1       -0.1669
     35 F          -3.6269    2.9722   24.6223 F       1  UNL1       -0.1669
     36 F          -2.1242    4.6492   23.8465 F       1  UNL1       -0.1669
     37 C          -3.1157    3.8522   26.4894 C.3     1  UNL1        0.4311
     38 F          -4.1522    4.3500   27.4527 F       1  UNL1       -0.1669
     39 F          -3.2738    3.0772   26.8881 F       1  UNL1       -0.1669
     40 F          -3.2284    5.3150   26.1774 F       1  UNL1       -0.1669
@<TRIPOS>BOND
     1    16    17    1
     2    17    18    2
     3    17    19    2
     4    17     5    1
     5     5     6   ar
     6     6     7   ar
     7     7     8   ar
     8     8     9   ar
     9     9    10   ar
    10     9    11    1
    11    11    12    1
    12    12    13   am
    13    13    14    2
    14    13    20    1
    15    20    21    1
    16    21    22    1
    17    22    23    1
    18    12    15    1
    19    15     1    1
    20     1     2    2
    21     1     3   am
    22     3    24    1
    23    24    25   ar
    24    25    26   ar
    25    26    27   ar
    26    27    30    1
    27    30    31    1
    28    30    33    1
    29    33    34    1
    30    33    35    1
    31    33    36    1
    32    30    37    1
    33    37    38    1
    34    37    39    1
    35    37    40    1
    36    27    28   ar
    37    28    29   ar
    38    10     5   ar
    39    23    20    1
    40    29    24   ar
    41    15     8    1
    42     3     4    1
    43    31    32    1
@<TRIPOS>MOLECULE
*****
 40 43 0 0 0
SMALL
GASTEIGER

@<TRIPOS>ATOM
      1 C           3.4954    0.0474   26.2970 C.2     1  UNL1        0.2485
      2 O           4.4047    1.1417   26.7717 O.2     1  UNL1       -0.2726
      3 N           3.0244   -1.0052   27.2562 N.am    1  UNL1       -0.2823
      4 H           2.4276   -1.7236   26.9447 H       1  UNL1        0.1549
      5 C           4.1558   -2.5409   21.3471 C.ar    1  UNL1        0.1054
      6 C           4.8615   -2.8550   22.6329 C.ar    1  UNL1        0.0181
      7 C           4.5616   -2.0575   23.8674 C.ar    1  UNL1       -0.0011
      8 C           3.5560   -0.9458   23.8161 C.ar    1  UNL1        0.0022
      9 C           2.8502   -0.6316   22.5304 C.ar    1  UNL1       -0.0030
     10 C           3.1501   -1.4292   21.2959 C.ar    1  UNL1        0.0155
     11 C           1.9152    0.5139   22.7827 C.3     1  UNL1        0.1207
     12 N           2.0431    0.9077   24.2244 N.am    1  UNL1       -0.2635
     13 C           1.2893    2.0100   24.9076 C.2     1  UNL1        0.2537
     14 O           1.5236    2.2891   26.3626 O.2     1  UNL1       -0.2722
     15 C           3.0571    0.0055   24.8631 C.3     1  UNL1        0.1751
     16 C           4.7556   -4.1360   18.8782 C.3     1  UNL1        0.1816
     17 S           4.4557   -3.3384   20.1126 S.O2    1  UNL1        0.0104
     18 O           4.4292   -2.0817   19.2942 O.2     1  UNL1       -0.1686
     19 O           4.4822   -4.5952   20.9311 O.2     1  UNL1       -0.1686
     20 C           0.3012    2.8333   24.1356 C.3     1  UNL1        0.1935
     21 C          -1.1295    3.2369   24.3365 C.3     1  UNL1        0.0711
     22 C          -1.0962    3.9975   23.0440 C.3     1  UNL1        0.1457
     23 O           0.3344    3.5938   22.8433 O.3     1  UNL1       -0.3469
     24 C           3.4627   -0.9634   28.6902 C.ar    1  UNL1        0.0503
     25 C           2.4827   -0.5926   29.7635 C.ar    1  UNL1        0.0144
     26 C           2.9210   -0.5507   31.1974 C.ar    1  UNL1       -0.0002
     27 C           4.3393   -0.8797   31.5581 C.ar    1  UNL1        0.0182
     28 C           5.3193   -1.2506   30.4848 C.ar    1  UNL1       -0.0002
     29 C           4.8810   -1.2924   29.0508 C.ar    1  UNL1        0.0144
     30 C           4.7776   -0.8379   32.9920 C.3     1  UNL1        0.2827
     31 O           4.3686    0.6029   33.0750 O.3     1  UNL1       -0.3692
     32 H           4.0132    0.8879   32.2186 H       1  UNL1        0.2112
     33 C           5.2159   -0.7961   34.4259 C.3     1  UNL1        0.4311
     34 F           5.6542   -0.7543   35.8598 F       1  UNL1       -0.1669
     35 F           4.6089   -1.3591   34.7408 F       1  UNL1       -0.1669
     36 F           6.3053    0.1696   34.0647 F       1  UNL1       -0.1669
     37 C           5.1865   -2.2787   32.9090 C.3     1  UNL1        0.4311
     38 F           5.5955   -3.7195   32.8260 F       1  UNL1       -0.1669
     39 F           4.3725   -2.6173   32.8237 F       1  UNL1       -0.1669
     40 F           6.6819   -2.2385   33.0203 F       1  UNL1       -0.1669
@<TRIPOS>BOND
     1    16    17    1
     2    17    18    2
     3    17    19    2
     4    17     5    1
     5     5     6   ar
     6     6     7   ar
     7     7     8   ar
     8     8     9   ar
     9     9    10   ar
    10     9    11    1
    11    11    12    1
    12    12    13   am
    13    13    14    2
    14    13    20    1
    15    20    21    1
    16    21    22    1
    17    22    23    1
    18    12    15    1
    19    15     1    1
    20     1     2    2
    21     1     3   am
    22     3    24    1
    23    24    25   ar
    24    25    26   ar
    25    26    27   ar
    26    27    30    1
    27    30    31    1
    28    30    33    1
    29    33    34    1
    30    33    35    1
    31    33    36    1
    32    30    37    1
    33    37    38    1
    34    37    39    1
    35    37    40    1
    36    27    28   ar
    37    28    29   ar
    38    10     5   ar
    39    23    20    1
    40    29    24   ar
    41    15     8    1
    42     3     4    1
    43    31    32    1
@<TRIPOS>MOLECULE
*****
 40 43 0 0 0
SMALL
GASTEIGER

@<TRIPOS>ATOM
      1 C           1.9896    0.8630   24.7906 C.2     1  UNL1        0.2485
      2 O           2.3846    2.2865   24.5306 O.2     1  UNL1       -0.2726
      3 N           0.6297    0.5506   25.3412 N.am    1  UNL1       -0.2823
      4 H           0.3704   -0.3837   25.5118 H       1  UNL1        0.1549
      5 C           4.0358   -2.5435   20.8099 C.ar    1  UNL1        0.1054
      6 C           2.9860   -1.4854   20.6422 C.ar    1  UNL1        0.0181
      7 C           2.5555   -0.6625   21.8202 C.ar    1  UNL1       -0.0011
      8 C           3.1750   -0.8978   23.1659 C.ar    1  UNL1        0.0022
      9 C           4.2249   -1.9558   23.3336 C.ar    1  UNL1       -0.0030
     10 C           4.6553   -2.7787   22.1556 C.ar    1  UNL1        0.0155
     11 C           4.6532   -1.9602   24.7712 C.3     1  UNL1        0.1207
     12 N           3.8679   -0.9048   25.4920 N.am    1  UNL1       -0.2635
     13 C           3.9771   -0.5655   26.9491 C.2     1  UNL1        0.2537
     14 O           3.1224    0.5204   27.5323 O.2     1  UNL1       -0.2722
     15 C           2.9544   -0.2482   24.4998 C.3     1  UNL1        0.1751
     16 C           4.8967   -4.1891   18.4540 C.3     1  UNL1        0.1816
     17 S           4.4663   -3.3663   19.6319 S.O2    1  UNL1        0.0104
     18 O           4.7906   -4.5087   20.5484 O.2     1  UNL1       -0.1686
     19 O           4.1420   -2.2240   18.7155 O.2     1  UNL1       -0.1686
     20 C           4.9409   -1.3122   27.8228 C.3     1  UNL1        0.1935
     21 C           5.8426   -0.9440   28.9636 C.3     1  UNL1        0.0711
     22 C           6.3039   -2.3682   29.0585 C.3     1  UNL1        0.1457
     23 O           5.4022   -2.7363   27.9177 O.3     1  UNL1       -0.3469
     24 C          -0.3351    1.6617   25.6320 C.ar    1  UNL1        0.0503
     25 C          -0.7063    1.9809   27.0498 C.ar    1  UNL1        0.0144
     26 C          -1.6710    3.0921   27.3406 C.ar    1  UNL1       -0.0002
     27 C          -2.2647    3.8840   26.2135 C.ar    1  UNL1        0.0182
     28 C          -1.8935    3.5649   24.7957 C.ar    1  UNL1       -0.0002
     29 C          -0.9287    2.4537   24.5049 C.ar    1  UNL1        0.0144
     30 C          -3.2295    4.9952   26.5043 C.3     1  UNL1        0.2827
     31 O          -2.1193    5.8001   27.1121 O.3     1  UNL1       -0.3692
     32 H          -1.2917    5.2962   27.0658 H       1  UNL1        0.2112
     33 C          -4.1943    6.1063   26.7950 C.3     1  UNL1        0.4311
     34 F          -5.1591    7.2174   27.0857 F       1  UNL1       -0.1669
     35 F          -4.6859    5.6698   27.3886 F       1  UNL1       -0.1669
     36 F          -3.4739    6.9875   25.8180 F       1  UNL1       -0.1669
     37 C          -4.3397    4.1902   25.8965 C.3     1  UNL1        0.4311
     38 F          -5.4499    3.3853   25.2887 F       1  UNL1       -0.1669
     39 F          -4.3822    3.5707   26.5281 F       1  UNL1       -0.1669
     40 F          -4.6703    4.9251   24.6313 F       1  UNL1       -0.1669
@<TRIPOS>BOND
     1    16    17    1
     2    17    18    2
     3    17    19    2
     4    17     5    1
     5     5     6   ar
     6     6     7   ar
     7     7     8   ar
     8     8     9   ar
     9     9    10   ar
    10     9    11    1
    11    11    12    1
    12    12    13   am
    13    13    14    2
    14    13    20    1
    15    20    21    1
    16    21    22    1
    17    22    23    1
    18    12    15    1
    19    15     1    1
    20     1     2    2
    21     1     3   am
    22     3    24    1
    23    24    25   ar
    24    25    26   ar
    25    26    27   ar
    26    27    30    1
    27    30    31    1
    28    30    33    1
    29    33    34    1
    30    33    35    1
    31    33    36    1
    32    30    37    1
    33    37    38    1
    34    37    39    1
    35    37    40    1
    36    27    28   ar
    37    28    29   ar
    38    10     5   ar
    39    23    20    1
    40    29    24   ar
    41    15     8    1
    42     3     4    1
    43    31    32    1
