@<TRIPOS>MOLECULE
*****
 30 33 0 0 0
SMALL
GASTEIGER

@<TRIPOS>ATOM
      1 C         -12.3508   -4.4891   19.4498 C.2     1  UNL1        0.2881
      2 O         -10.8662   -4.6026   19.2683 O.2     1  UNL1       -0.2664
      3 N         -13.2321   -5.6723   19.1789 N.am    1  UNL1       -0.2717
      4 C         -14.7168   -5.5588   19.3603 C.3     1  UNL1        0.1153
      5 C         -15.5981   -6.7420   19.0894 C.3     1  UNL1        0.1152
      6 N         -14.9947   -8.0385   18.6369 N.am    1  UNL1       -0.2726
      7 C         -15.8760   -9.2218   18.3659 C.2     1  UNL1        0.2491
      8 O         -15.2726  -10.5184   17.9135 O.2     1  UNL1       -0.2699
      9 C         -13.5101   -8.1520   18.4555 C.3     1  UNL1        0.1135
     10 C         -12.6287   -6.9688   18.7264 C.3     1  UNL1        0.0956
     11 C         -11.1441   -7.0823   18.5449 C.3     1  UNL1        0.0233
     12 C         -17.3606   -9.1083   18.5474 C.ar    1  UNL1        0.0536
     13 C         -17.9542   -9.1616   19.9239 C.ar    1  UNL1        0.0045
     14 C         -19.4389   -9.0481   20.1054 C.ar    1  UNL1        0.0001
     15 C         -20.3300   -8.8814   18.9103 C.ar    1  UNL1        0.0000
     16 C         -19.7363   -8.8281   17.5339 C.ar    1  UNL1        0.0001
     17 C         -18.2517   -8.9416   17.3524 C.ar    1  UNL1        0.0045
     18 C         -12.9542   -3.1924   19.9023 C.2     1  UNL1        0.2494
     19 O         -13.6643   -3.1155   21.2213 O.2     1  UNL1       -0.2819
     20 C         -15.4794   -1.3022   18.6691 C.2     1  UNL1        0.1360
     21 C         -16.4006   -0.3182   18.0111 C.2     1  UNL1        0.0837
     22 C         -15.8370    0.8060   17.1934 C.2     1  UNL1        0.2385
     23 N         -14.3522    0.9461   17.0337 N.2     1  UNL1       -0.0338
     24 C         -13.4310   -0.0378   17.6917 C.2     1  UNL1        0.3626
     25 N         -11.9356   -0.1538   17.7127 N.2     1  UNL1       -0.0341
     26 C         -11.5750   -1.3497   18.5433 C.2     1  UNL1        0.2356
     27 C         -12.8475   -1.9727   19.0357 C.2     1  UNL1        0.0868
     28 C         -13.9945   -1.1620   18.5094 C.3     1  UNL1        0.1975
     29 C         -17.5276   -2.5631   19.6513 C.3     1  UNL1        0.2520
     30 O         -16.0430   -2.4263   19.4868 O.2     1  UNL1       -0.4746
@<TRIPOS>BOND
     1    29    30    1
     2    30    20    1
     3    20    21    2
     4    21    22    1
     5    22    23    2
     6    23    24    1
     7    24    25    2
     8    25    26    1
     9    26    27    2
    10    27    18    1
    11    18    19    2
    12    18     1    1
    13     1     2    2
    14     1     3   am
    15     3     4    1
    16     4     5    1
    17     5     6    1
    18     6     7   am
    19     7     8    2
    20     7    12    1
    21    12    13   ar
    22    13    14   ar
    23    14    15   ar
    24    15    16   ar
    25    16    17   ar
    26     6     9    1
    27     9    10    1
    28    10    11    1
    29    27    28    1
    30    28    20    1
    31    28    24    1
    32    10     3    1
    33    17    12   ar
@<TRIPOS>MOLECULE
*****
 30 33 0 0 0
SMALL
GASTEIGER

@<TRIPOS>ATOM
      1 C           7.2976   -4.8181   25.0035 C.2     1  UNL1        0.2881
      2 O           7.3253   -6.1041   24.2318 O.2     1  UNL1       -0.2664
      3 N           7.2151   -4.8436   26.5010 N.am    1  UNL1       -0.2717
      4 C           7.1875   -3.5576   27.2726 C.3     1  UNL1        0.1153
      5 C           7.1049   -3.5831   28.7701 C.3     1  UNL1        0.1152
      6 N           7.0500   -4.8946   29.4959 N.am    1  UNL1       -0.2726
      7 C           6.9675   -4.9202   30.9935 C.2     1  UNL1        0.2491
      8 O           6.9126   -6.2317   31.7194 O.2     1  UNL1       -0.2699
      9 C           7.0777   -6.1806   28.7243 C.3     1  UNL1        0.1135
     10 C           7.1602   -6.1552   27.2268 C.3     1  UNL1        0.0956
     11 C           7.1879   -7.4412   26.4552 C.3     1  UNL1        0.0233
     12 C           6.9398   -3.6342   31.7651 C.ar    1  UNL1        0.0536
     13 C           8.2243   -2.9528   32.1334 C.ar    1  UNL1        0.0045
     14 C           8.1967   -1.6668   32.9050 C.ar    1  UNL1        0.0001
     15 C           6.8845   -1.0622   33.3084 C.ar    1  UNL1        0.0000
     16 C           5.6000   -1.7436   32.9400 C.ar    1  UNL1        0.0001
     17 C           5.6277   -3.0296   32.1684 C.ar    1  UNL1        0.0045
     18 C           7.3525   -3.5065   24.2775 C.2     1  UNL1        0.2494
     19 O           8.6609   -2.7898   24.1219 O.2     1  UNL1       -0.2819
     20 C           6.1479   -3.8431   21.1302 C.2     1  UNL1        0.1360
     21 C           5.4129   -3.8344   19.8226 C.2     1  UNL1        0.0837
     22 C           4.1300   -3.0688   19.6885 C.2     1  UNL1        0.2385
     23 N           3.5820   -2.3119   20.8618 N.2     1  UNL1       -0.0338
     24 C           4.3170   -2.3206   22.1694 C.2     1  UNL1        0.3626
     25 N           4.0233   -1.6732   23.4902 N.2     1  UNL1       -0.0341
     26 C           5.1246   -2.0386   24.4407 C.2     1  UNL1        0.2356
     27 C           6.0990   -2.9119   23.7073 C.2     1  UNL1        0.0868
     28 C           5.5999   -3.0862   22.3035 C.3     1  UNL1        0.1975
     29 C           8.7218   -3.9942   20.8109 C.3     1  UNL1        0.2520
     30 O           7.4308   -4.6086   21.2644 O.2     1  UNL1       -0.4746
@<TRIPOS>BOND
     1    29    30    1
     2    30    20    1
     3    20    21    2
     4    21    22    1
     5    22    23    2
     6    23    24    1
     7    24    25    2
     8    25    26    1
     9    26    27    2
    10    27    18    1
    11    18    19    2
    12    18     1    1
    13     1     2    2
    14     1     3   am
    15     3     4    1
    16     4     5    1
    17     5     6    1
    18     6     7   am
    19     7     8    2
    20     7    12    1
    21    12    13   ar
    22    13    14   ar
    23    14    15   ar
    24    15    16   ar
    25    16    17   ar
    26     6     9    1
    27     9    10    1
    28    10    11    1
    29    27    28    1
    30    28    20    1
    31    28    24    1
    32    10     3    1
    33    17    12   ar
@<TRIPOS>MOLECULE
*****
 30 33 0 0 0
SMALL
GASTEIGER

@<TRIPOS>ATOM
      1 C          -8.6178  -15.8950   24.9747 C.2     1  UNL1        0.2881
      2 O          -8.6998  -15.1326   26.2639 O.2     1  UNL1       -0.2664
      3 N          -7.2833  -16.3228   24.4399 N.am    1  UNL1       -0.2717
      4 C          -7.2013  -17.0852   23.1508 C.3     1  UNL1        0.1153
      5 C          -5.8668  -17.5131   22.6160 C.3     1  UNL1        0.1152
      6 N          -4.6143  -17.1784   23.3704 N.am    1  UNL1       -0.2726
      7 C          -3.2797  -17.6062   22.8357 C.2     1  UNL1        0.2491
      8 O          -2.0271  -17.2716   23.5901 O.2     1  UNL1       -0.2699
      9 C          -4.6963  -16.4160   24.6596 C.3     1  UNL1        0.1135
     10 C          -6.0308  -15.9882   25.1944 C.3     1  UNL1        0.0956
     11 C          -6.1128  -15.2258   26.4835 C.3     1  UNL1        0.0233
     12 C          -3.1977  -18.3686   21.5465 C.ar    1  UNL1        0.0536
     13 C          -3.8325  -19.7231   21.4344 C.ar    1  UNL1        0.0045
     14 C          -3.7505  -20.4855   20.1453 C.ar    1  UNL1        0.0001
     15 C          -3.0337  -19.8935   18.9681 C.ar    1  UNL1        0.0000
     16 C          -2.3990  -18.5391   19.0801 C.ar    1  UNL1        0.0001
     17 C          -2.4810  -17.7766   20.3693 C.ar    1  UNL1        0.0045
     18 C          -9.8705  -16.2296   24.2203 C.2     1  UNL1        0.2494
     19 O         -10.7972  -15.1346   23.7823 O.2     1  UNL1       -0.2819
     20 C         -10.2866  -17.6303   21.1649 C.2     1  UNL1        0.1360
     21 C         -10.5162  -18.4785   19.9493 C.2     1  UNL1        0.0837
     22 C         -10.8317  -19.9371   20.1013 C.2     1  UNL1        0.2385
     23 N         -10.9176  -20.5474   21.4688 N.2     1  UNL1       -0.0338
     24 C         -10.6880  -19.6991   22.6843 C.2     1  UNL1        0.3626
     25 N         -10.7067  -20.0192   24.1497 N.2     1  UNL1       -0.0341
     26 C         -10.4026  -18.7584   24.9034 C.2     1  UNL1        0.2356
     27 C         -10.1962  -17.6592   23.9039 C.2     1  UNL1        0.0868
     28 C         -10.3725  -18.2406   22.5324 C.3     1  UNL1        0.1975
     29 C         -10.7748  -15.3246   20.0716 C.3     1  UNL1        0.2520
     30 O          -9.9711  -16.1717   21.0130 O.2     1  UNL1       -0.4746
@<TRIPOS>BOND
     1    29    30    1
     2    30    20    1
     3    20    21    2
     4    21    22    1
     5    22    23    2
     6    23    24    1
     7    24    25    2
     8    25    26    1
     9    26    27    2
    10    27    18    1
    11    18    19    2
    12    18     1    1
    13     1     2    2
    14     1     3   am
    15     3     4    1
    16     4     5    1
    17     5     6    1
    18     6     7   am
    19     7     8    2
    20     7    12    1
    21    12    13   ar
    22    13    14   ar
    23    14    15   ar
    24    15    16   ar
    25    16    17   ar
    26     6     9    1
    27     9    10    1
    28    10    11    1
    29    27    28    1
    30    28    20    1
    31    28    24    1
    32    10     3    1
    33    17    12   ar
@<TRIPOS>MOLECULE
*****
 30 33 0 0 0
SMALL
GASTEIGER

@<TRIPOS>ATOM
      1 C           5.7013   -1.7700   26.0761 C.2     1  UNL1        0.2881
      2 O           6.5273   -2.8772   26.6608 O.2     1  UNL1       -0.2664
      3 N           5.1718   -1.8875   24.6776 N.am    1  UNL1       -0.2717
      4 C           4.3458   -0.7803   24.0929 C.3     1  UNL1        0.1153
      5 C           3.8163   -0.8978   22.6944 C.3     1  UNL1        0.1152
      6 N           4.1128   -2.1224   21.8807 N.am    1  UNL1       -0.2726
      7 C           3.5833   -2.2400   20.4821 C.2     1  UNL1        0.2491
      8 O           3.8797   -3.4646   19.6683 O.2     1  UNL1       -0.2699
      9 C           4.9387   -3.2296   22.4653 C.3     1  UNL1        0.1135
     10 C           5.4683   -3.1122   23.8638 C.3     1  UNL1        0.0956
     11 C           6.2942   -4.2194   24.4485 C.3     1  UNL1        0.0233
     12 C           2.7573   -1.1328   19.8974 C.ar    1  UNL1        0.0536
     13 C           1.3620   -0.8952   20.3941 C.ar    1  UNL1        0.0045
     14 C           0.5360    0.2120   19.8095 C.ar    1  UNL1        0.0001
     15 C           1.1053    1.0817   18.7280 C.ar    1  UNL1        0.0000
     16 C           2.5006    0.8441   18.2313 C.ar    1  UNL1        0.0001
     17 C           3.3266   -0.2631   18.8160 C.ar    1  UNL1        0.0045
     18 C           5.4048   -0.5453   26.8900 C.2     1  UNL1        0.2494
     19 O           6.2504    0.6834   26.7312 O.2     1  UNL1       -0.2819
     20 C           5.5312   -1.1011   30.2284 C.2     1  UNL1        0.1360
     21 C           5.3198   -1.3102   31.6986 C.2     1  UNL1        0.0837
     22 C           3.9394   -1.2190   32.2783 C.2     1  UNL1        0.2385
     23 N           2.7703   -0.9187   31.3878 N.2     1  UNL1       -0.0338
     24 C           2.9817   -0.7097   29.9176 C.2     1  UNL1        0.3626
     25 N           2.0292   -0.4018   28.8004 N.2     1  UNL1       -0.0341
     26 C           2.8210   -0.3028   27.5303 C.2     1  UNL1        0.2356
     27 C           4.2628   -0.5494   27.8625 C.2     1  UNL1        0.0868
     28 C           4.3621   -0.8009   29.3379 C.3     1  UNL1        0.1975
     29 C           7.7708   -2.3865   29.9418 C.3     1  UNL1        0.2520
     30 O           6.9116   -1.1924   29.6487 O.2     1  UNL1       -0.4746
@<TRIPOS>BOND
     1    29    30    1
     2    30    20    1
     3    20    21    2
     4    21    22    1
     5    22    23    2
     6    23    24    1
     7    24    25    2
     8    25    26    1
     9    26    27    2
    10    27    18    1
    11    18    19    2
    12    18     1    1
    13     1     2    2
    14     1     3   am
    15     3     4    1
    16     4     5    1
    17     5     6    1
    18     6     7   am
    19     7     8    2
    20     7    12    1
    21    12    13   ar
    22    13    14   ar
    23    14    15   ar
    24    15    16   ar
    25    16    17   ar
    26     6     9    1
    27     9    10    1
    28    10    11    1
    29    27    28    1
    30    28    20    1
    31    28    24    1
    32    10     3    1
    33    17    12   ar
@<TRIPOS>MOLECULE
*****
 30 33 0 0 0
SMALL
GASTEIGER

@<TRIPOS>ATOM
      1 C         -10.2248  -19.1522   20.7803 C.2     1  UNL1        0.2881
      2 O         -11.1376  -19.9579   19.9041 O.2     1  UNL1       -0.2664
      3 N          -8.7409  -19.2058   20.5677 N.am    1  UNL1       -0.2717
      4 C          -7.8282  -18.4001   21.4439 C.3     1  UNL1        0.1153
      5 C          -6.3443  -18.4538   21.2314 C.3     1  UNL1        0.1152
      6 N          -5.7732  -19.3131   20.1426 N.am    1  UNL1       -0.2726
      7 C          -4.2893  -19.3668   19.9300 C.2     1  UNL1        0.2491
      8 O          -3.7182  -20.2261   18.8413 O.2     1  UNL1       -0.2699
      9 C          -6.6860  -20.1187   19.2664 C.3     1  UNL1        0.1135
     10 C          -8.1699  -20.0651   19.4790 C.3     1  UNL1        0.0956
     11 C          -9.0827  -20.8708   18.6028 C.3     1  UNL1        0.0233
     12 C          -3.3766  -18.5611   20.8062 C.ar    1  UNL1        0.0536
     13 C          -3.3094  -18.8416   22.2782 C.ar    1  UNL1        0.0045
     14 C          -2.3966  -18.0359   23.1544 C.ar    1  UNL1        0.0001
     15 C          -1.5510  -16.9497   22.5586 C.ar    1  UNL1        0.0000
     16 C          -1.6181  -16.6692   21.0866 C.ar    1  UNL1        0.0001
     17 C          -2.5309  -17.4749   20.2104 C.ar    1  UNL1        0.0045
     18 C         -10.7960  -18.2928   21.8691 C.2     1  UNL1        0.2494
     19 O         -11.7151  -17.1586   21.5249 O.2     1  UNL1       -0.2819
     20 C          -9.2028  -16.2414   24.0425 C.2     1  UNL1        0.1360
     21 C          -8.5275  -15.5357   25.1808 C.2     1  UNL1        0.0837
     22 C          -8.3889  -16.2176   26.5097 C.2     1  UNL1        0.2385
     23 N          -8.9257  -17.6052   26.7002 N.2     1  UNL1       -0.0338
     24 C          -9.6010  -18.3109   25.5619 C.2     1  UNL1        0.3626
     25 N         -10.2237  -19.6711   25.4521 N.2     1  UNL1       -0.0341
     26 C         -10.7472  -19.8299   24.0554 C.2     1  UNL1        0.2356
     27 C         -10.4480  -18.5679   23.3020 C.2     1  UNL1        0.0868
     28 C          -9.7396  -17.6291   24.2331 C.3     1  UNL1        0.1975
     29 C          -8.1367  -14.9649   22.0466 C.3     1  UNL1        0.2520
     30 O          -9.3414  -15.5596   22.7137 O.2     1  UNL1       -0.4746
@<TRIPOS>BOND
     1    29    30    1
     2    30    20    1
     3    20    21    2
     4    21    22    1
     5    22    23    2
     6    23    24    1
     7    24    25    2
     8    25    26    1
     9    26    27    2
    10    27    18    1
    11    18    19    2
    12    18     1    1
    13     1     2    2
    14     1     3   am
    15     3     4    1
    16     4     5    1
    17     5     6    1
    18     6     7   am
    19     7     8    2
    20     7    12    1
    21    12    13   ar
    22    13    14   ar
    23    14    15   ar
    24    15    16   ar
    25    16    17   ar
    26     6     9    1
    27     9    10    1
    28    10    11    1
    29    27    28    1
    30    28    20    1
    31    28    24    1
    32    10     3    1
    33    17    12   ar
@<TRIPOS>MOLECULE
*****
 30 33 0 0 0
SMALL
GASTEIGER

@<TRIPOS>ATOM
      1 C           2.1759    1.6376   20.4572 C.2     1  UNL1        0.2881
      2 O           2.7088    2.6934   19.5347 O.2     1  UNL1       -0.2664
      3 N           1.9402    1.9553   21.9041 N.am    1  UNL1       -0.2717
      4 C           1.4072    0.8995   22.8267 C.3     1  UNL1        0.1153
      5 C           1.1715    1.2172   24.2736 C.3     1  UNL1        0.1152
      6 N           1.4688    2.5908   24.7978 N.am    1  UNL1       -0.2726
      7 C           1.2331    2.9086   26.2447 C.2     1  UNL1        0.2491
      8 O           1.5303    4.2822   26.7691 O.2     1  UNL1       -0.2699
      9 C           2.0017    3.6466   23.8753 C.3     1  UNL1        0.1135
     10 C           2.2374    3.3289   22.4284 C.3     1  UNL1        0.0956
     11 C           2.7704    4.3847   21.5058 C.3     1  UNL1        0.0233
     12 C           0.7002    1.8528   27.1673 C.ar    1  UNL1        0.0536
     13 C           1.6435    0.9057   27.8478 C.ar    1  UNL1        0.0045
     14 C           1.1105   -0.1502   28.7704 C.ar    1  UNL1        0.0001
     15 C          -0.3658   -0.2590   29.0125 C.ar    1  UNL1        0.0000
     16 C          -1.3091    0.6881   28.3320 C.ar    1  UNL1        0.0001
     17 C          -0.7762    1.7440   27.4094 C.ar    1  UNL1        0.0045
     18 C           1.8786    0.2639   19.9329 C.2     1  UNL1        0.2494
     19 O           0.5938   -0.4172   20.3004 O.2     1  UNL1       -0.2819
     20 C           4.0702   -2.1773   20.7741 C.2     1  UNL1        0.1360
     21 C           5.1145   -3.2482   20.8870 C.2     1  UNL1        0.0837
     22 C           5.9105   -3.6497   19.6807 C.2     1  UNL1        0.2385
     23 N           5.6622   -2.9804   18.3615 N.2     1  UNL1       -0.0338
     24 C           4.6180   -1.9096   18.2486 C.2     1  UNL1        0.3626
     25 N           4.1543   -1.0781   17.0894 N.2     1  UNL1       -0.0341
     26 C           3.0716   -0.1627   17.5792 C.2     1  UNL1        0.2356
     27 C           2.8663   -0.4284   19.0412 C.2     1  UNL1        0.0868
     28 C           3.8220   -1.5080   19.4548 C.3     1  UNL1        0.1975
     29 C           3.9623   -1.5619   23.2959 C.3     1  UNL1        0.2520
     30 O           3.2742   -1.7758   21.9803 O.2     1  UNL1       -0.4746
@<TRIPOS>BOND
     1    29    30    1
     2    30    20    1
     3    20    21    2
     4    21    22    1
     5    22    23    2
     6    23    24    1
     7    24    25    2
     8    25    26    1
     9    26    27    2
    10    27    18    1
    11    18    19    2
    12    18     1    1
    13     1     2    2
    14     1     3   am
    15     3     4    1
    16     4     5    1
    17     5     6    1
    18     6     7   am
    19     7     8    2
    20     7    12    1
    21    12    13   ar
    22    13    14   ar
    23    14    15   ar
    24    15    16   ar
    25    16    17   ar
    26     6     9    1
    27     9    10    1
    28    10    11    1
    29    27    28    1
    30    28    20    1
    31    28    24    1
    32    10     3    1
    33    17    12   ar
@<TRIPOS>MOLECULE
*****
 30 33 0 0 0
SMALL
GASTEIGER

@<TRIPOS>ATOM
      1 C         -14.1226   -0.3892   18.5046 C.2     1  UNL1        0.2881
      2 O         -12.8892    0.4446   18.6873 O.2     1  UNL1       -0.2664
      3 N         -14.0316   -1.8854   18.5605 N.am    1  UNL1       -0.2717
      4 C         -15.2650   -2.7192   18.3778 C.3     1  UNL1        0.1153
      5 C         -15.1740   -4.2154   18.4337 C.3     1  UNL1        0.1152
      6 N         -13.8494   -4.8777   18.6722 N.am    1  UNL1       -0.2726
      7 C         -13.7583   -6.3739   18.7281 C.2     1  UNL1        0.2491
      8 O         -12.4338   -7.0363   18.9666 O.2     1  UNL1       -0.2699
      9 C         -12.6160   -4.0439   18.8548 C.3     1  UNL1        0.1135
     10 C         -12.7071   -2.5477   18.7990 C.3     1  UNL1        0.0956
     11 C         -11.4736   -1.7139   18.9817 C.3     1  UNL1        0.0233
     12 C         -14.9917   -7.2077   18.5454 C.ar    1  UNL1        0.0536
     13 C         -15.3817   -7.6802   17.1762 C.ar    1  UNL1        0.0045
     14 C         -16.6151   -8.5140   16.9936 C.ar    1  UNL1        0.0001
     15 C         -17.4587   -8.8754   18.1801 C.ar    1  UNL1        0.0000
     16 C         -17.0687   -8.4029   19.5493 C.ar    1  UNL1        0.0001
     17 C         -15.8353   -7.5691   19.7319 C.ar    1  UNL1        0.0045
     18 C         -15.4472    0.2732   18.2661 C.2     1  UNL1        0.2494
     19 O         -15.9093    0.5428   16.8648 O.2     1  UNL1       -0.2819
     20 C         -15.5595    3.2696   19.8408 C.2     1  UNL1        0.1360
     21 C         -15.7968    4.4803   20.6938 C.2     1  UNL1        0.0837
     22 C         -16.8033    4.4295   21.8048 C.2     1  UNL1        0.2385
     23 N         -17.5724    3.1678   22.0629 N.2     1  UNL1       -0.0338
     24 C         -17.3351    1.9570   21.2099 C.2     1  UNL1        0.3626
     25 N         -17.9381    0.5837   21.2266 N.2     1  UNL1       -0.0341
     26 C         -17.3043   -0.2143   20.1258 C.2     1  UNL1        0.2356
     27 C         -16.3096    0.6660   19.4289 C.2     1  UNL1        0.0868
     28 C         -16.3286    2.0079   20.0989 C.3     1  UNL1        0.1975
     29 C         -14.9267    3.9189   17.4061 C.3     1  UNL1        0.2520
     30 O         -14.5530    3.3204   18.7297 O.2     1  UNL1       -0.4746
@<TRIPOS>BOND
     1    29    30    1
     2    30    20    1
     3    20    21    2
     4    21    22    1
     5    22    23    2
     6    23    24    1
     7    24    25    2
     8    25    26    1
     9    26    27    2
    10    27    18    1
    11    18    19    2
    12    18     1    1
    13     1     2    2
    14     1     3   am
    15     3     4    1
    16     4     5    1
    17     5     6    1
    18     6     7   am
    19     7     8    2
    20     7    12    1
    21    12    13   ar
    22    13    14   ar
    23    14    15   ar
    24    15    16   ar
    25    16    17   ar
    26     6     9    1
    27     9    10    1
    28    10    11    1
    29    27    28    1
    30    28    20    1
    31    28    24    1
    32    10     3    1
    33    17    12   ar
@<TRIPOS>MOLECULE
*****
 30 33 0 0 0
SMALL
GASTEIGER

@<TRIPOS>ATOM
      1 C         -15.4803   -3.2524   18.3030 C.2     1  UNL1        0.2881
      2 O         -15.8482   -3.8908   16.9964 O.2     1  UNL1       -0.2664
      3 N         -16.0822   -1.9340   18.6894 N.am    1  UNL1       -0.2717
      4 C         -15.7143   -1.2957   19.9960 C.3     1  UNL1        0.1153
      5 C         -16.3163    0.0228   20.3824 C.3     1  UNL1        0.1152
      6 N         -17.2861    0.7029   19.4622 N.am    1  UNL1       -0.2726
      7 C         -17.8881    2.0214   19.8485 C.2     1  UNL1        0.2491
      8 O         -18.8580    2.7015   18.9284 O.2     1  UNL1       -0.2699
      9 C         -17.6541    0.0646   18.1556 C.3     1  UNL1        0.1135
     10 C         -17.0521   -1.2539   17.7692 C.3     1  UNL1        0.0956
     11 C         -17.4200   -1.8922   16.4626 C.3     1  UNL1        0.0233
     12 C         -17.5202    2.6597   21.1551 C.ar    1  UNL1        0.0536
     13 C         -18.2902    2.3230   22.3975 C.ar    1  UNL1        0.0045
     14 C         -17.9223    2.9613   23.7041 C.ar    1  UNL1        0.0001
     15 C         -16.7843    3.9364   23.7683 C.ar    1  UNL1        0.0000
     16 C         -16.0142    4.2731   22.5259 C.ar    1  UNL1        0.0001
     17 C         -16.3822    3.6348   21.2193 C.ar    1  UNL1        0.0045
     18 C         -14.5103   -3.9326   19.2232 C.2     1  UNL1        0.2494
     19 O         -15.0164   -4.7736   20.3574 O.2     1  UNL1       -0.2819
     20 C         -12.2058   -6.3735   18.7744 C.2     1  UNL1        0.1360
     21 C         -11.0087   -7.2510   18.5579 C.2     1  UNL1        0.0837
     22 C          -9.6514   -6.6375   18.3807 C.2     1  UNL1        0.2385
     23 N          -9.4912   -5.1467   18.4201 N.2     1  UNL1       -0.0338
     24 C         -10.6883   -4.2692   18.6367 C.2     1  UNL1        0.3626
     25 N         -10.8383   -2.7792   18.7224 N.2     1  UNL1       -0.0341
     26 C         -12.2883   -2.4717   18.9526 C.2     1  UNL1        0.2356
     27 C         -13.0344   -3.7717   19.0091 C.2     1  UNL1        0.0868
     28 C         -12.0456   -4.8827   18.8138 C.3     1  UNL1        0.1975
     29 C         -13.9988   -8.1138   18.0625 C.3     1  UNL1        0.2520
     30 O         -13.5632   -6.9870   18.9516 O.2     1  UNL1       -0.4746
@<TRIPOS>BOND
     1    29    30    1
     2    30    20    1
     3    20    21    2
     4    21    22    1
     5    22    23    2
     6    23    24    1
     7    24    25    2
     8    25    26    1
     9    26    27    2
    10    27    18    1
    11    18    19    2
    12    18     1    1
    13     1     2    2
    14     1     3   am
    15     3     4    1
    16     4     5    1
    17     5     6    1
    18     6     7   am
    19     7     8    2
    20     7    12    1
    21    12    13   ar
    22    13    14   ar
    23    14    15   ar
    24    15    16   ar
    25    16    17   ar
    26     6     9    1
    27     9    10    1
    28    10    11    1
    29    27    28    1
    30    28    20    1
    31    28    24    1
    32    10     3    1
    33    17    12   ar
@<TRIPOS>MOLECULE
*****
 30 33 0 0 0
SMALL
GASTEIGER

@<TRIPOS>ATOM
      1 C          -8.6521  -16.4403   25.0702 C.2     1  UNL1        0.2881
      2 O          -8.7788  -15.4504   26.1901 O.2     1  UNL1       -0.2664
      3 N          -7.3305  -16.6360   24.3882 N.am    1  UNL1       -0.2717
      4 C          -7.2038  -17.6258   23.2683 C.3     1  UNL1        0.1153
      5 C          -5.8822  -17.8215   22.5863 C.3     1  UNL1        0.1152
      6 N          -4.6875  -17.0273   23.0241 N.am    1  UNL1       -0.2726
      7 C          -3.3658  -17.2229   22.3421 C.2     1  UNL1        0.2491
      8 O          -2.1710  -16.4287   22.7799 O.2     1  UNL1       -0.2699
      9 C          -4.8142  -16.0374   24.1440 C.3     1  UNL1        0.1135
     10 C          -6.1358  -15.8417   24.8261 C.3     1  UNL1        0.0956
     11 C          -6.2626  -14.8519   25.9459 C.3     1  UNL1        0.0233
     12 C          -3.2391  -18.2127   21.2223 C.ar    1  UNL1        0.0536
     13 C          -2.6088  -17.8009   19.9250 C.ar    1  UNL1        0.0045
     14 C          -2.4820  -18.7908   18.8051 C.ar    1  UNL1        0.0001
     15 C          -2.9855  -20.1925   18.9825 C.ar    1  UNL1        0.0000
     16 C          -3.6158  -20.6044   20.2798 C.ar    1  UNL1        0.0001
     17 C          -3.7426  -19.6145   21.3997 C.ar    1  UNL1        0.0045
     18 C          -9.8469  -17.2345   24.6324 C.2     1  UNL1        0.2494
     19 O         -10.3743  -18.3370   25.5021 O.2     1  UNL1       -0.2819
     20 C          -9.9321  -19.1599   21.8475 C.2     1  UNL1        0.1360
     21 C         -10.1152  -19.8110   20.5086 C.2     1  UNL1        0.0837
     22 C         -10.8944  -19.1113   19.4347 C.2     1  UNL1        0.2385
     23 N         -11.4905  -17.7606   19.6996 N.2     1  UNL1       -0.0338
     24 C         -11.3075  -17.1096   21.0384 C.2     1  UNL1        0.3626
     25 N         -11.7750  -15.7942   21.5872 N.2     1  UNL1       -0.0341
     26 C         -11.2849  -15.6809   23.0003 C.2     1  UNL1        0.2356
     27 C         -10.5143  -16.9263   23.3249 C.2     1  UNL1        0.0868
     28 C         -10.5283  -17.8092   22.1124 C.3     1  UNL1        0.1975
     29 C          -9.8530  -20.7782   23.8784 C.3     1  UNL1        0.2520
     30 O          -9.1530  -19.8596   22.9214 O.2     1  UNL1       -0.4746
@<TRIPOS>BOND
     1    29    30    1
     2    30    20    1
     3    20    21    2
     4    21    22    1
     5    22    23    2
     6    23    24    1
     7    24    25    2
     8    25    26    1
     9    26    27    2
    10    27    18    1
    11    18    19    2
    12    18     1    1
    13     1     2    2
    14     1     3   am
    15     3     4    1
    16     4     5    1
    17     5     6    1
    18     6     7   am
    19     7     8    2
    20     7    12    1
    21    12    13   ar
    22    13    14   ar
    23    14    15   ar
    24    15    16   ar
    25    16    17   ar
    26     6     9    1
    27     9    10    1
    28    10    11    1
    29    27    28    1
    30    28    20    1
    31    28    24    1
    32    10     3    1
    33    17    12   ar
