@<TRIPOS>MOLECULE
*****
 24 26 0 0 0
SMALL
GASTEIGER

@<TRIPOS>ATOM
      1 C          -5.9153  -19.1097   21.3349 C.ar    1  UNL1        0.0511
      2 C          -6.8837  -20.1354   20.8249 C.ar    1  UNL1        0.0823
      3 C          -6.5608  -21.2675   19.8954 C.3     1  UNL1        0.0540
      4 N          -8.2317  -19.8301   21.4077 N.ar    1  UNL1       -0.1681
      5 N          -8.0964  -18.6157   22.2778 N.ar    1  UNL1       -0.2085
      6 C          -9.0918  -17.8579   23.1053 C.ar    1  UNL1        0.1569
      7 C          -8.6556  -16.6548   23.8877 C.ar    1  UNL1        0.0379
      8 C          -7.2239  -16.2096   23.8427 C.ar    1  UNL1        0.0625
      9 C          -6.7877  -15.0064   24.6252 C.3     1  UNL1        0.0522
     10 N          -6.2285  -16.9674   23.0152 N.ar    1  UNL1       -0.2308
     11 C          -6.6647  -18.1705   22.2328 C.ar    1  UNL1        0.1644
     12 C          -1.5311  -18.8888   20.3447 C.ar    1  UNL1        0.1660
     13 C          -1.9703  -19.3225   21.7118 C.ar    1  UNL1        0.0392
     14 C          -3.4317  -19.3961   22.0418 C.ar    1  UNL1        0.0034
     15 C          -4.4539  -19.0361   21.0049 C.ar    1  UNL1        0.0066
     16 C          -4.0146  -18.6024   19.6377 C.ar    1  UNL1        0.0329
     17 C          -2.5532  -18.5288   19.3076 C.ar    1  UNL1        0.1738
     18 F          -2.1141  -18.0951   17.9405 F       1  UNL1       -0.2010
     19 C           0.6395  -17.4937   20.0407 C.3     1  UNL1        0.2526
     20 O          -0.0697  -18.8152   20.0147 O.3     1  UNL1       -0.4692
     21 C         -10.5235  -18.3032   23.1503 C.3     1  UNL1        0.4350
     22 F         -11.9552  -18.7484   23.1953 F       1  UNL1       -0.1644
     23 F         -10.7288  -17.7839   21.7581 F       1  UNL1       -0.1644
     24 F         -10.3183  -18.8224   24.5425 F       1  UNL1       -0.1644
@<TRIPOS>BOND
     1    19    20    1
     2    20    12    1
     3    12    13   ar
     4    13    14   ar
     5    14    15   ar
     6    15     1    1
     7     1     2   ar
     8     2     3    1
     9     2     4   ar
    10     4     5   ar
    11     5     6   ar
    12     6    21    1
    13    21    22    1
    14    21    23    1
    15    21    24    1
    16     6     7   ar
    17     7     8   ar
    18     8     9    1
    19     8    10   ar
    20    10    11   ar
    21    15    16   ar
    22    16    17   ar
    23    17    18    1
    24    17    12   ar
    25    11     1   ar
    26    11     5   ar
@<TRIPOS>MOLECULE
*****
 24 26 0 0 0
SMALL
GASTEIGER

@<TRIPOS>ATOM
      1 C          -7.8745  -17.3285   23.1586 C.ar    1  UNL1        0.0511
      2 C          -7.0987  -16.1988   23.7684 C.ar    1  UNL1        0.0823
      3 C          -7.6724  -15.0626   24.5622 C.3     1  UNL1        0.0540
      4 N          -5.6486  -16.4047   23.4450 N.ar    1  UNL1       -0.1681
      5 N          -5.5281  -17.6617   22.6354 N.ar    1  UNL1       -0.2085
      6 C          -4.3434  -18.3601   22.0365 C.ar    1  UNL1        0.1569
      7 C          -4.5345  -19.6295   21.2606 C.ar    1  UNL1        0.0379
      8 C          -5.9102  -20.2005   21.0836 C.ar    1  UNL1        0.0625
      9 C          -6.1013  -21.4699   20.3076 C.3     1  UNL1        0.0522
     10 N          -7.0949  -19.5020   21.6825 N.ar    1  UNL1       -0.2308
     11 C          -6.9038  -18.2326   22.4584 C.ar    1  UNL1        0.1644
     12 C         -12.3316  -17.9043   23.3893 C.ar    1  UNL1        0.1660
     13 C         -11.4295  -18.6491   24.3282 C.ar    1  UNL1        0.0392
     14 C          -9.9439  -18.4571   24.2513 C.ar    1  UNL1        0.0034
     15 C          -9.3602  -17.5205   23.2355 C.ar    1  UNL1        0.0066
     16 C         -10.2623  -16.7756   22.2966 C.ar    1  UNL1        0.0329
     17 C         -11.7480  -16.9676   22.3735 C.ar    1  UNL1        0.1738
     18 F         -12.6500  -16.2228   21.4345 F       1  UNL1       -0.2010
     19 C         -14.4702  -18.3741   24.7878 C.3     1  UNL1        0.2526
     20 O         -13.8173  -18.0963   23.4662 O.3     1  UNL1       -0.4692
     21 C          -2.9677  -17.7891   22.2135 C.3     1  UNL1        0.4350
     22 F          -1.5919  -17.2182   22.3905 F       1  UNL1       -0.1644
     23 F          -3.0787  -17.9816   23.6970 F       1  UNL1       -0.1644
     24 F          -2.8567  -17.5967   20.7300 F       1  UNL1       -0.1644
@<TRIPOS>BOND
     1    19    20    1
     2    20    12    1
     3    12    13   ar
     4    13    14   ar
     5    14    15   ar
     6    15     1    1
     7     1     2   ar
     8     2     3    1
     9     2     4   ar
    10     4     5   ar
    11     5     6   ar
    12     6    21    1
    13    21    22    1
    14    21    23    1
    15    21    24    1
    16     6     7   ar
    17     7     8   ar
    18     8     9    1
    19     8    10   ar
    20    10    11   ar
    21    15    16   ar
    22    16    17   ar
    23    17    18    1
    24    17    12   ar
    25    11     1   ar
    26    11     5   ar
@<TRIPOS>MOLECULE
*****
 24 26 0 0 0
SMALL
GASTEIGER

@<TRIPOS>ATOM
      1 C          -7.5094  -18.8968   20.9786 C.ar    1  UNL1        0.0511
      2 C          -8.4376  -19.5786   20.0175 C.ar    1  UNL1        0.0823
      3 C          -8.0345  -20.5095   18.9125 C.3     1  UNL1        0.0540
      4 N          -9.8395  -19.1660   20.3554 N.ar    1  UNL1       -0.1681
      5 N          -9.7779  -18.2293   21.5253 N.ar    1  UNL1       -0.2085
      6 C         -10.8470  -17.5063   22.2896 C.ar    1  UNL1        0.1569
      7 C         -10.4760  -16.6169   23.4391 C.ar    1  UNL1        0.0379
      8 C          -9.0359  -16.4505   23.8242 C.ar    1  UNL1        0.0625
      9 C          -8.6649  -15.5611   24.9738 C.3     1  UNL1        0.0522
     10 N          -7.9667  -17.1735   23.0599 N.ar    1  UNL1       -0.2308
     11 C          -8.3378  -18.0629   21.9104 C.ar    1  UNL1        0.1644
     12 C          -3.0268  -19.2851   21.0531 C.ar    1  UNL1        0.1660
     13 C          -3.8036  -19.3154   22.3358 C.ar    1  UNL1        0.0392
     14 C          -5.2979  -19.1860   22.3110 C.ar    1  UNL1        0.0034
     15 C          -6.0152  -19.0262   21.0034 C.ar    1  UNL1        0.0066
     16 C          -5.2383  -18.9959   19.7206 C.ar    1  UNL1        0.0329
     17 C          -3.7441  -19.1253   19.7454 C.ar    1  UNL1        0.1738
     18 F          -2.9673  -19.0950   18.4626 F       1  UNL1       -0.2010
     19 C          -0.6778  -18.3624   20.4356 C.3     1  UNL1        0.2526
     20 O          -1.5326  -19.4145   21.0779 O.3     1  UNL1       -0.4692
     21 C         -12.2871  -17.6727   21.9045 C.3     1  UNL1        0.4350
     22 F         -13.7273  -17.8390   21.5193 F       1  UNL1       -0.1644
     23 F         -12.0505  -16.8578   20.6675 F       1  UNL1       -0.1644
     24 F         -12.5238  -18.4876   23.1414 F       1  UNL1       -0.1644
@<TRIPOS>BOND
     1    19    20    1
     2    20    12    1
     3    12    13   ar
     4    13    14   ar
     5    14    15   ar
     6    15     1    1
     7     1     2   ar
     8     2     3    1
     9     2     4   ar
    10     4     5   ar
    11     5     6   ar
    12     6    21    1
    13    21    22    1
    14    21    23    1
    15    21    24    1
    16     6     7   ar
    17     7     8   ar
    18     8     9    1
    19     8    10   ar
    20    10    11   ar
    21    15    16   ar
    22    16    17   ar
    23    17    18    1
    24    17    12   ar
    25    11     1   ar
    26    11     5   ar
@<TRIPOS>MOLECULE
*****
 24 26 0 0 0
SMALL
GASTEIGER

@<TRIPOS>ATOM
      1 C          -7.8114  -18.8455   21.3214 C.ar    1  UNL1        0.0511
      2 C          -7.3535  -19.7034   20.1794 C.ar    1  UNL1        0.0823
      3 C          -8.2395  -20.4582   19.2331 C.3     1  UNL1        0.0540
      4 N          -5.8541  -19.6741   20.1499 N.ar    1  UNL1       -0.1681
      5 N          -5.3853  -18.7981   21.2736 N.ar    1  UNL1       -0.2085
      6 C          -4.0133  -18.4006   21.7311 C.ar    1  UNL1        0.1569
      7 C          -3.8509  -17.4909   22.9127 C.ar    1  UNL1        0.0379
      8 C          -5.0606  -16.9788   23.6367 C.ar    1  UNL1        0.0625
      9 C          -4.8982  -16.0691   24.8184 C.3     1  UNL1        0.0522
     10 N          -6.4327  -17.3763   23.1793 N.ar    1  UNL1       -0.2308
     11 C          -6.5951  -18.2859   21.9977 C.ar    1  UNL1        0.1644
     12 C         -12.0843  -18.0838   22.5101 C.ar    1  UNL1        0.1660
     13 C         -11.2246  -18.9894   23.3412 C.ar    1  UNL1        0.0392
     14 C          -9.8004  -19.2433   22.9450 C.ar    1  UNL1        0.0034
     15 C          -9.2357  -18.5916   21.7177 C.ar    1  UNL1        0.0066
     16 C         -10.0954  -17.6859   20.8865 C.ar    1  UNL1        0.0329
     17 C         -11.5197  -17.4321   21.2827 C.ar    1  UNL1        0.1738
     18 F         -12.3793  -16.5264   20.4515 F       1  UNL1       -0.2010
     19 C         -13.9639  -18.1330   24.3030 C.3     1  UNL1        0.2526
     20 O         -13.5086  -17.8299   22.9063 O.3     1  UNL1       -0.4692
     21 C          -2.8035  -18.9127   21.0071 C.3     1  UNL1        0.4350
     22 F          -1.5938  -19.4248   20.2830 F       1  UNL1       -0.1644
     23 F          -2.9809  -17.8525   19.9609 F       1  UNL1       -0.1644
     24 F          -2.6262  -19.9729   22.0532 F       1  UNL1       -0.1644
@<TRIPOS>BOND
     1    19    20    1
     2    20    12    1
     3    12    13   ar
     4    13    14   ar
     5    14    15   ar
     6    15     1    1
     7     1     2   ar
     8     2     3    1
     9     2     4   ar
    10     4     5   ar
    11     5     6   ar
    12     6    21    1
    13    21    22    1
    14    21    23    1
    15    21    24    1
    16     6     7   ar
    17     7     8   ar
    18     8     9    1
    19     8    10   ar
    20    10    11   ar
    21    15    16   ar
    22    16    17   ar
    23    17    18    1
    24    17    12   ar
    25    11     1   ar
    26    11     5   ar
@<TRIPOS>MOLECULE
*****
 24 26 0 0 0
SMALL
GASTEIGER

@<TRIPOS>ATOM
      1 C          -7.1744  -17.4298   22.8329 C.ar    1  UNL1        0.0511
      2 C          -7.6821  -16.5497   23.9364 C.ar    1  UNL1        0.0823
      3 C          -6.8441  -15.8697   24.9781 C.3     1  UNL1        0.0540
      4 N          -9.1751  -16.4691   23.8151 N.ar    1  UNL1       -0.1681
      5 N          -9.5900  -17.2993   22.6367 N.ar    1  UNL1       -0.2085
      6 C         -10.9340  -17.5913   22.0381 C.ar    1  UNL1        0.1569
      7 C         -11.0414  -18.4771   20.8324 C.ar    1  UNL1        0.0379
      8 C          -9.8049  -19.0709   20.2253 C.ar    1  UNL1        0.0625
      9 C          -9.9125  -19.9567   19.0195 C.3     1  UNL1        0.0522
     10 N          -8.4610  -18.7788   20.8239 N.ar    1  UNL1       -0.2308
     11 C          -8.3535  -17.8931   22.0297 C.ar    1  UNL1        0.1644
     12 C          -2.8696  -18.4936   22.0664 C.ar    1  UNL1        0.1660
     13 C          -3.2087  -17.3212   22.9385 C.ar    1  UNL1        0.0392
     14 C          -4.6436  -16.9666   23.1940 C.ar    1  UNL1        0.0034
     15 C          -5.7395  -17.7844   22.5774 C.ar    1  UNL1        0.0066
     16 C          -5.4004  -18.9568   21.7053 C.ar    1  UNL1        0.0329
     17 C          -3.9655  -19.3114   21.4498 C.ar    1  UNL1        0.1738
     18 F          -3.6265  -20.4838   20.5778 F       1  UNL1       -0.2010
     19 C          -0.7749  -18.4287   20.5309 C.3     1  UNL1        0.2526
     20 O          -1.4347  -18.8482   21.8110 O.3     1  UNL1       -0.4692
     21 C         -12.1704  -16.9976   22.6452 C.3     1  UNL1        0.4350
     22 F         -13.4069  -16.4038   23.2522 F       1  UNL1       -0.1644
     23 F         -11.8029  -15.6566   22.0823 F       1  UNL1       -0.1644
     24 F         -12.5380  -18.3385   23.2080 F       1  UNL1       -0.1644
@<TRIPOS>BOND
     1    19    20    1
     2    20    12    1
     3    12    13   ar
     4    13    14   ar
     5    14    15   ar
     6    15     1    1
     7     1     2   ar
     8     2     3    1
     9     2     4   ar
    10     4     5   ar
    11     5     6   ar
    12     6    21    1
    13    21    22    1
    14    21    23    1
    15    21    24    1
    16     6     7   ar
    17     7     8   ar
    18     8     9    1
    19     8    10   ar
    20    10    11   ar
    21    15    16   ar
    22    16    17   ar
    23    17    18    1
    24    17    12   ar
    25    11     1   ar
    26    11     5   ar
@<TRIPOS>MOLECULE
*****
 24 26 0 0 0
SMALL
GASTEIGER

@<TRIPOS>ATOM
      1 C          -8.8565  -19.3475   22.2992 C.ar    1  UNL1        0.0511
      2 C          -9.4486  -20.1706   23.4046 C.ar    1  UNL1        0.0823
      3 C          -8.7422  -21.2411   24.1824 C.3     1  UNL1        0.0540
      4 N         -10.8713  -19.7351   23.5956 N.ar    1  UNL1       -0.1681
      5 N         -11.1583  -18.6429   22.6083 N.ar    1  UNL1       -0.2085
      6 C         -12.3927  -17.8356   22.3354 C.ar    1  UNL1        0.1569
      7 C         -12.3818  -16.7888   21.2612 C.ar    1  UNL1        0.0379
      8 C         -11.1366  -16.5492   20.4599 C.ar    1  UNL1        0.0625
      9 C         -11.1258  -15.5023   19.3857 C.3     1  UNL1        0.0522
     10 N          -9.9022  -17.3565   20.7329 N.ar    1  UNL1       -0.2308
     11 C          -9.9131  -18.4034   21.8070 C.ar    1  UNL1        0.1644
     12 C          -4.6487  -19.6564   20.7341 C.ar    1  UNL1        0.1660
     13 C          -5.7515  -20.4339   20.0790 C.ar    1  UNL1        0.0392
     14 C          -7.1541  -20.3309   20.6007 C.ar    1  UNL1        0.0034
     15 C          -7.4539  -19.4505   21.7775 C.ar    1  UNL1        0.0066
     16 C          -6.3510  -18.6729   22.4326 C.ar    1  UNL1        0.0329
     17 C          -4.9484  -18.7759   21.9109 C.ar    1  UNL1        0.1738
     18 F          -3.8456  -17.9984   22.5661 F       1  UNL1       -0.2010
     19 C          -2.6596  -18.6353   19.4108 C.3     1  UNL1        0.2526
     20 O          -3.2461  -19.7593   20.2124 O.3     1  UNL1       -0.4692
     21 C         -13.6379  -18.0752   23.1366 C.3     1  UNL1        0.4350
     22 F         -14.8832  -18.3147   23.9379 F       1  UNL1       -0.1644
     23 F         -14.4030  -18.3294   21.8717 F       1  UNL1       -0.1644
     24 F         -12.8729  -17.8210   24.4016 F       1  UNL1       -0.1644
@<TRIPOS>BOND
     1    19    20    1
     2    20    12    1
     3    12    13   ar
     4    13    14   ar
     5    14    15   ar
     6    15     1    1
     7     1     2   ar
     8     2     3    1
     9     2     4   ar
    10     4     5   ar
    11     5     6   ar
    12     6    21    1
    13    21    22    1
    14    21    23    1
    15    21    24    1
    16     6     7   ar
    17     7     8   ar
    18     8     9    1
    19     8    10   ar
    20    10    11   ar
    21    15    16   ar
    22    16    17   ar
    23    17    18    1
    24    17    12   ar
    25    11     1   ar
    26    11     5   ar
@<TRIPOS>MOLECULE
*****
 24 26 0 0 0
SMALL
GASTEIGER

@<TRIPOS>ATOM
      1 C          -6.9206  -19.1463   22.1408 C.ar    1  UNL1        0.0511
      2 C          -7.6359  -20.3119   22.7570 C.ar    1  UNL1        0.0823
      3 C          -7.0341  -21.6493   23.0720 C.3     1  UNL1        0.0540
      4 N          -9.0586  -19.9052   23.0030 N.ar    1  UNL1       -0.1681
      5 N          -9.2226  -18.4883   22.5389 N.ar    1  UNL1       -0.2085
      6 C         -10.4044  -17.5646   22.5326 C.ar    1  UNL1        0.1569
      7 C         -10.2649  -16.1719   21.9934 C.ar    1  UNL1        0.0379
      8 C          -8.9435  -15.7028   21.4605 C.ar    1  UNL1        0.0625
      9 C          -8.8040  -14.3100   20.9214 C.3     1  UNL1        0.0522
     10 N          -7.7617  -16.6265   21.4668 N.ar    1  UNL1       -0.2308
     11 C          -7.9012  -18.0192   22.0060 C.ar    1  UNL1        0.1644
     12 C          -2.5926  -19.0477   20.9125 C.ar    1  UNL1        0.1660
     13 C          -3.6216  -19.6277   19.9880 C.ar    1  UNL1        0.0392
     14 C          -5.0643  -19.6605   20.3975 C.ar    1  UNL1        0.0034
     15 C          -5.4780  -19.1134   21.7314 C.ar    1  UNL1        0.0066
     16 C          -4.4489  -18.5334   22.6559 C.ar    1  UNL1        0.0329
     17 C          -3.0062  -18.5005   22.2464 C.ar    1  UNL1        0.1738
     18 F          -1.9773  -17.9205   23.1710 F       1  UNL1       -0.2010
     19 C          -0.5735  -17.7752   19.8858 C.3     1  UNL1        0.2526
     20 O          -1.1499  -19.0148   20.5030 O.3     1  UNL1       -0.4692
     21 C         -11.7258  -18.0337   23.0654 C.3     1  UNL1        0.4350
     22 F         -13.0472  -18.5028   23.5983 F       1  UNL1       -0.1644
     23 F         -12.2735  -18.0764   21.6697 F       1  UNL1       -0.1644
     24 F         -11.1781  -17.9910   24.4612 F       1  UNL1       -0.1644
@<TRIPOS>BOND
     1    19    20    1
     2    20    12    1
     3    12    13   ar
     4    13    14   ar
     5    14    15   ar
     6    15     1    1
     7     1     2   ar
     8     2     3    1
     9     2     4   ar
    10     4     5   ar
    11     5     6   ar
    12     6    21    1
    13    21    22    1
    14    21    23    1
    15    21    24    1
    16     6     7   ar
    17     7     8   ar
    18     8     9    1
    19     8    10   ar
    20    10    11   ar
    21    15    16   ar
    22    16    17   ar
    23    17    18    1
    24    17    12   ar
    25    11     1   ar
    26    11     5   ar
@<TRIPOS>MOLECULE
*****
 24 26 0 0 0
SMALL
GASTEIGER

@<TRIPOS>ATOM
      1 C          -6.8894  -17.6756   23.0162 C.ar    1  UNL1        0.0511
      2 C          -5.9955  -16.5787   23.5141 C.ar    1  UNL1        0.0823
      3 C          -6.3980  -15.4603   24.4292 C.3     1  UNL1        0.0540
      4 N          -4.6286  -16.7965   22.9362 N.ar    1  UNL1       -0.1681
      5 N          -4.6776  -18.0280   22.0812 N.ar    1  UNL1       -0.2085
      6 C          -3.6304  -18.7248   21.2640 C.ar    1  UNL1        0.1569
      7 C          -3.9805  -19.9649   20.4963 C.ar    1  UNL1        0.0379
      8 C          -5.3778  -20.5082   20.5458 C.ar    1  UNL1        0.0625
      9 C          -5.7278  -21.7485   19.7780 C.3     1  UNL1        0.0522
     10 N          -6.4249  -19.8114   21.3629 N.ar    1  UNL1       -0.2308
     11 C          -6.0748  -18.5713   22.1307 C.ar    1  UNL1        0.1644
     12 C         -11.2491  -18.1891   24.0057 C.ar    1  UNL1        0.1660
     13 C         -10.7457  -16.8708   23.4973 C.ar    1  UNL1        0.0392
     14 C          -9.2924  -16.6996   23.1675 C.ar    1  UNL1        0.0034
     15 C          -8.3426  -17.8467   23.3460 C.ar    1  UNL1        0.0066
     16 C          -8.8461  -19.1651   23.8545 C.ar    1  UNL1        0.0329
     17 C         -10.2994  -19.3363   24.1843 C.ar    1  UNL1        0.1738
     18 F         -10.8028  -20.6547   24.6926 F       1  UNL1       -0.2010
     19 C         -13.7488  -17.7394   23.4581 C.3     1  UNL1        0.2526
     20 O         -12.7024  -18.3603   24.3354 O.3     1  UNL1       -0.4692
     21 C          -2.2331  -18.1815   21.2146 C.3     1  UNL1        0.4350
     22 F          -0.8359  -17.6382   21.1651 F       1  UNL1       -0.1644
     23 F          -2.4618  -17.7216   19.8053 F       1  UNL1       -0.1644
     24 F          -2.0044  -18.6414   22.6239 F       1  UNL1       -0.1644
@<TRIPOS>BOND
     1    19    20    1
     2    20    12    1
     3    12    13   ar
     4    13    14   ar
     5    14    15   ar
     6    15     1    1
     7     1     2   ar
     8     2     3    1
     9     2     4   ar
    10     4     5   ar
    11     5     6   ar
    12     6    21    1
    13    21    22    1
    14    21    23    1
    15    21    24    1
    16     6     7   ar
    17     7     8   ar
    18     8     9    1
    19     8    10   ar
    20    10    11   ar
    21    15    16   ar
    22    16    17   ar
    23    17    18    1
    24    17    12   ar
    25    11     1   ar
    26    11     5   ar
@<TRIPOS>MOLECULE
*****
 24 26 0 0 0
SMALL
GASTEIGER

@<TRIPOS>ATOM
      1 C         -14.2745   -5.2076   18.0796 C.ar    1  UNL1        0.0511
      2 C         -14.8446   -3.8934   17.6347 C.ar    1  UNL1        0.0823
      3 C         -16.2790   -3.6274   17.2856 C.3     1  UNL1        0.0540
      4 N         -13.7284   -2.8919   17.6002 N.ar    1  UNL1       -0.1681
      5 N         -12.4686   -3.5871   18.0238 N.ar    1  UNL1       -0.2085
      6 C         -11.0577   -3.1018   18.1780 C.ar    1  UNL1        0.1569
      7 C          -9.9843   -4.0478   18.6284 C.ar    1  UNL1        0.0379
      8 C         -10.3218   -5.4790   18.9247 C.ar    1  UNL1        0.0625
      9 C          -9.2483   -6.4249   19.3752 C.3     1  UNL1        0.0522
     10 N         -11.7327   -5.9642   18.7705 N.ar    1  UNL1       -0.2308
     11 C         -12.8061   -5.0183   18.3200 C.ar    1  UNL1        0.1644
     12 C         -16.5672   -9.0445   18.6013 C.ar    1  UNL1        0.1660
     13 C         -15.5460   -8.9235   17.5093 C.ar    1  UNL1        0.0392
     14 C         -14.7818   -7.6445   17.3354 C.ar    1  UNL1        0.0034
     15 C         -15.0387   -6.4865   18.2535 C.ar    1  UNL1        0.0066
     16 C         -16.0600   -6.6075   19.3456 C.ar    1  UNL1        0.0329
     17 C         -16.8242   -7.8865   19.5195 C.ar    1  UNL1        0.1738
     18 F         -17.8453   -8.0073   20.6115 F       1  UNL1       -0.2010
     19 C         -18.6499  -10.5092   18.0845 C.3     1  UNL1        0.2526
     20 O         -17.3314  -10.3234   18.7752 O.3     1  UNL1       -0.4692
     21 C         -10.7201   -1.6706   17.8817 C.3     1  UNL1        0.4350
     22 F         -10.3826   -0.2394   17.5854 F       1  UNL1       -0.1644
     23 F         -11.3855   -1.2495   19.1584 F       1  UNL1       -0.1644
     24 F         -10.0548   -2.0918   16.6050 F       1  UNL1       -0.1644
@<TRIPOS>BOND
     1    19    20    1
     2    20    12    1
     3    12    13   ar
     4    13    14   ar
     5    14    15   ar
     6    15     1    1
     7     1     2   ar
     8     2     3    1
     9     2     4   ar
    10     4     5   ar
    11     5     6   ar
    12     6    21    1
    13    21    22    1
    14    21    23    1
    15    21    24    1
    16     6     7   ar
    17     7     8   ar
    18     8     9    1
    19     8    10   ar
    20    10    11   ar
    21    15    16   ar
    22    16    17   ar
    23    17    18    1
    24    17    12   ar
    25    11     1   ar
    26    11     5   ar
