@<TRIPOS>MOLECULE
*****
 29 31 0 0 0
SMALL
GASTEIGER

@<TRIPOS>ATOM
      1 C          -5.0409  -17.3639   22.7345 C.ar    1  UNL1        0.1357
      2 N          -3.7439  -16.6116   22.6938 N.ar    1  UNL1       -0.1992
      3 C          -2.6172  -17.1052   21.8354 C.ar    1  UNL1        0.2148
      4 N          -1.3201  -16.3528   21.7947 N.pl3   1  UNL1       -0.3274
      5 N          -2.7874  -18.3512   21.0179 N.ar    1  UNL1       -0.2138
      6 C          -4.0845  -19.1036   21.0586 C.ar    1  UNL1        0.0898
      7 C          -4.2547  -20.3496   20.2410 C.ar    1  UNL1        0.0195
      8 C          -5.5517  -21.1019   20.2818 C.ar    1  UNL1        0.0047
      9 C          -6.6785  -20.6083   21.1401 C.ar    1  UNL1        0.0371
     10 C          -6.5082  -19.3623   21.9577 C.ar    1  UNL1        0.1431
     11 C          -5.2112  -18.6100   21.9169 C.ar    1  UNL1        0.0831
     12 H          -1.2084  -15.5350   22.3313 H       1  UNL1        0.1452
     13 H          -0.5806  -16.6767   21.2314 H       1  UNL1        0.1452
     14 N          -6.1677  -16.8703   23.5929 N.pl3   1  UNL1       -0.3179
     15 H          -6.9680  -17.4285   23.7236 H       1  UNL1        0.1482
     16 C          -6.0751  -15.5261   24.2521 C.3     1  UNL1        0.0882
     17 C          -5.5078  -15.4067   25.6356 C.3     1  UNL1        0.0212
     18 C          -7.8987  -15.5656   26.6399 C.3     1  UNL1        0.0001
     19 C          -6.4116  -15.5107   26.8283 C.3     1  UNL1        0.0017
     20 O          -7.6350  -18.8687   22.8160 O.3     1  UNL1       -0.4704
     21 C          -8.8865  -19.6840   22.9527 C.3     1  UNL1        0.2350
     22 C         -10.2282  -19.0195   22.8621 C.ar    1  UNL1        0.0551
     23 C         -11.1344  -18.9931   24.0572 C.ar    1  UNL1        0.0023
     24 C         -12.4761  -18.3286   23.9666 C.ar    1  UNL1       -0.0000
     25 C         -12.9117  -17.6905   22.6808 C.ar    1  UNL1        0.0031
     26 C         -12.0055  -17.7169   21.4857 C.ar    1  UNL1        0.0367
     27 C         -10.6638  -18.3814   21.5764 C.ar    1  UNL1        0.1382
     28 O          -9.7577  -18.4078   20.3813 O.3     1  UNL1       -0.4716
     29 C          -9.8357  -19.5447   19.4059 C.3     1  UNL1        0.2525
@<TRIPOS>BOND
     1    18    19    1
     2    19    17    1
     3    17    16    1
     4    16    14    1
     5    14     1    1
     6     1     2   ar
     7     2     3   ar
     8     3     4    1
     9     3     5   ar
    10     5     6   ar
    11     6     7   ar
    12     7     8   ar
    13     8     9   ar
    14     9    10   ar
    15    10    20    1
    16    20    21    1
    17    21    22    1
    18    22    23   ar
    19    23    24   ar
    20    24    25   ar
    21    25    26   ar
    22    26    27   ar
    23    27    28    1
    24    28    29    1
    25    10    11   ar
    26    11     1   ar
    27    11     6   ar
    28    27    22   ar
    29    14    15    1
    30     4    12    1
    31     4    13    1
@<TRIPOS>MOLECULE
*****
 29 31 0 0 0
SMALL
GASTEIGER

@<TRIPOS>ATOM
      1 C          -9.4357  -17.7858   22.9415 C.ar    1  UNL1        0.1357
      2 N         -10.7940  -17.4925   23.5063 N.ar    1  UNL1       -0.1992
      3 C         -12.0243  -17.9040   22.7532 C.ar    1  UNL1        0.2148
      4 N         -13.3826  -17.6107   23.3181 N.pl3   1  UNL1       -0.3274
      5 N         -11.8963  -18.6087   21.4353 N.ar    1  UNL1       -0.2138
      6 C         -10.5379  -18.9020   20.8704 C.ar    1  UNL1        0.0898
      7 C         -10.4099  -19.6067   19.5525 C.ar    1  UNL1        0.0195
      8 C          -9.0517  -19.9000   18.9877 C.ar    1  UNL1        0.0047
      9 C          -7.8214  -19.4885   19.7408 C.ar    1  UNL1        0.0371
     10 C          -7.9494  -18.7838   21.0587 C.ar    1  UNL1        0.1431
     11 C          -9.3077  -18.4905   21.6235 C.ar    1  UNL1        0.0831
     12 H         -13.4666  -17.1481   24.1831 H       1  UNL1        0.1452
     13 H         -14.1901  -17.8807   22.8238 H       1  UNL1        0.1452
     14 N          -8.2055  -17.3743   23.6946 N.pl3   1  UNL1       -0.3179
     15 H          -7.5094  -18.0392   23.9011 H       1  UNL1        0.1482
     16 C          -8.0358  -15.9499   24.1330 C.3     1  UNL1        0.0882
     17 C          -8.6528  -15.4821   25.4177 C.3     1  UNL1        0.0212
     18 C          -6.7605  -15.4927   27.1980 C.3     1  UNL1        0.0001
     19 C          -8.1066  -15.9609   26.7302 C.3     1  UNL1        0.0017
     20 O          -6.7192  -18.3723   21.8118 O.3     1  UNL1       -0.4704
     21 C          -5.5307  -19.2860   21.8634 C.3     1  UNL1        0.2350
     22 C          -4.2179  -18.8421   21.2895 C.ar    1  UNL1        0.0551
     23 C          -3.8596  -19.1946   19.8761 C.ar    1  UNL1        0.0023
     24 C          -2.5468  -18.7506   19.3022 C.ar    1  UNL1       -0.0000
     25 C          -1.5922  -17.9542   20.1416 C.ar    1  UNL1        0.0031
     26 C          -1.9505  -17.6017   21.5549 C.ar    1  UNL1        0.0367
     27 C          -3.2633  -18.0457   22.1288 C.ar    1  UNL1        0.1382
     28 O          -3.6216  -17.6932   23.5421 O.3     1  UNL1       -0.4716
     29 C          -4.4372  -16.4666   23.8255 C.3     1  UNL1        0.2525
@<TRIPOS>BOND
     1    18    19    1
     2    19    17    1
     3    17    16    1
     4    16    14    1
     5    14     1    1
     6     1     2   ar
     7     2     3   ar
     8     3     4    1
     9     3     5   ar
    10     5     6   ar
    11     6     7   ar
    12     7     8   ar
    13     8     9   ar
    14     9    10   ar
    15    10    20    1
    16    20    21    1
    17    21    22    1
    18    22    23   ar
    19    23    24   ar
    20    24    25   ar
    21    25    26   ar
    22    26    27   ar
    23    27    28    1
    24    28    29    1
    25    10    11   ar
    26    11     1   ar
    27    11     6   ar
    28    27    22   ar
    29    14    15    1
    30     4    12    1
    31     4    13    1
@<TRIPOS>MOLECULE
*****
 29 31 0 0 0
SMALL
GASTEIGER

@<TRIPOS>ATOM
      1 C          -8.0890  -17.1964   22.2146 C.ar    1  UNL1        0.1357
      2 N          -9.5718  -17.1566   21.9915 N.ar    1  UNL1       -0.1992
      3 C         -10.4641  -16.4925   22.9978 C.ar    1  UNL1        0.2148
      4 N         -11.9470  -16.4528   22.7746 N.pl3   1  UNL1       -0.3274
      5 N          -9.8738  -15.8682   24.2272 N.ar    1  UNL1       -0.2138
      6 C          -8.3909  -15.9079   24.4504 C.ar    1  UNL1        0.0898
      7 C          -7.8006  -15.2835   25.6799 C.ar    1  UNL1        0.0195
      8 C          -6.3178  -15.3233   25.9030 C.ar    1  UNL1        0.0047
      9 C          -5.4254  -15.9874   24.8967 C.ar    1  UNL1        0.0371
     10 C          -6.0158  -16.6117   23.6673 C.ar    1  UNL1        0.1431
     11 C          -7.4986  -16.5720   23.4441 C.ar    1  UNL1        0.0831
     12 H         -12.3344  -16.8626   21.9676 H       1  UNL1        0.1452
     13 H         -12.5327  -16.0169   23.4350 H       1  UNL1        0.1452
     14 N          -7.1966  -17.8605   21.2083 N.pl3   1  UNL1       -0.3179
     15 H          -6.4369  -17.3672   20.8227 H       1  UNL1        0.1482
     16 C          -7.4618  -19.2762   20.7896 C.3     1  UNL1        0.0882
     17 C          -7.7182  -19.5961   19.3467 C.3     1  UNL1        0.0212
     18 C         -10.3042  -19.4892   19.5732 C.3     1  UNL1        0.0001
     19 C          -9.0803  -20.0468   18.9090 C.3     1  UNL1        0.0017
     20 O          -5.1235  -17.2759   22.6610 O.3     1  UNL1       -0.4704
     21 C          -3.6587  -17.4309   22.9443 C.3     1  UNL1        0.2350
     22 C          -2.6831  -17.5421   21.8103 C.ar    1  UNL1        0.0551
     23 C          -1.6839  -16.4493   21.5707 C.ar    1  UNL1        0.0023
     24 C          -0.7083  -16.5606   20.4367 C.ar    1  UNL1       -0.0000
     25 C          -0.7319  -17.7646   19.5424 C.ar    1  UNL1        0.0031
     26 C          -1.7311  -18.8574   19.7821 C.ar    1  UNL1        0.0367
     27 C          -2.7067  -18.7461   20.9161 C.ar    1  UNL1        0.1382
     28 O          -3.7058  -19.8389   21.1557 O.3     1  UNL1       -0.4716
     29 C          -4.1438  -20.7169   20.0211 C.3     1  UNL1        0.2525
@<TRIPOS>BOND
     1    18    19    1
     2    19    17    1
     3    17    16    1
     4    16    14    1
     5    14     1    1
     6     1     2   ar
     7     2     3   ar
     8     3     4    1
     9     3     5   ar
    10     5     6   ar
    11     6     7   ar
    12     7     8   ar
    13     8     9   ar
    14     9    10   ar
    15    10    20    1
    16    20    21    1
    17    21    22    1
    18    22    23   ar
    19    23    24   ar
    20    24    25   ar
    21    25    26   ar
    22    26    27   ar
    23    27    28    1
    24    28    29    1
    25    10    11   ar
    26    11     1   ar
    27    11     6   ar
    28    27    22   ar
    29    14    15    1
    30     4    12    1
    31     4    13    1
@<TRIPOS>MOLECULE
*****
 29 31 0 0 0
SMALL
GASTEIGER

@<TRIPOS>ATOM
      1 C          -7.8265  -18.9316   20.2020 C.ar    1  UNL1        0.1357
      2 N          -7.8084  -19.9242   19.0776 N.ar    1  UNL1       -0.1992
      3 C          -9.0973  -20.4693   18.5376 C.ar    1  UNL1        0.2148
      4 N          -9.0792  -21.4619   17.4130 N.pl3   1  UNL1       -0.3274
      5 N         -10.4042  -20.0220   19.1221 N.ar    1  UNL1       -0.2138
      6 C         -10.4224  -19.0294   20.2466 C.ar    1  UNL1        0.0898
      7 C         -11.7293  -18.5820   20.8311 C.ar    1  UNL1        0.0195
      8 C         -11.7474  -17.5894   21.9555 C.ar    1  UNL1        0.0047
      9 C         -10.4585  -17.0443   22.4955 C.ar    1  UNL1        0.0371
     10 C          -9.1515  -17.4917   21.9110 C.ar    1  UNL1        0.1431
     11 C          -9.1335  -18.4842   20.7866 C.ar    1  UNL1        0.0831
     12 H          -8.2213  -21.7556   17.0294 H       1  UNL1        0.1452
     13 H          -9.9251  -21.8198   17.0586 H       1  UNL1        0.1452
     14 N          -6.5376  -18.3865   20.7420 N.pl3   1  UNL1       -0.3179
     15 H          -6.4914  -17.4557   21.0594 H       1  UNL1        0.1482
     16 C          -5.3191  -19.2595   20.7984 C.3     1  UNL1        0.0882
     17 C          -4.2158  -19.0728   19.7995 C.3     1  UNL1        0.0212
     18 C          -2.4437  -19.5956   21.6262 C.3     1  UNL1        0.0001
     19 C          -2.7963  -19.3651   20.1865 C.3     1  UNL1        0.0017
     20 O          -7.8627  -16.9465   22.4510 O.3     1  UNL1       -0.4704
     21 C          -7.8395  -15.6082   23.1280 C.3     1  UNL1        0.2350
     22 C          -7.4901  -15.5098   24.5834 C.ar    1  UNL1        0.0551
     23 C          -8.5788  -15.4544   25.6140 C.ar    1  UNL1        0.0023
     24 C          -8.2294  -15.3560   27.0694 C.ar    1  UNL1       -0.0000
     25 C          -6.7914  -15.3131   27.4943 C.ar    1  UNL1        0.0031
     26 C          -5.7029  -15.3685   26.4638 C.ar    1  UNL1        0.0367
     27 C          -6.0523  -15.4669   25.0083 C.ar    1  UNL1        0.1382
     28 O          -4.9637  -15.5224   23.9778 O.3     1  UNL1       -0.4716
     29 C          -4.3816  -16.8440   23.5722 C.3     1  UNL1        0.2525
@<TRIPOS>BOND
     1    18    19    1
     2    19    17    1
     3    17    16    1
     4    16    14    1
     5    14     1    1
     6     1     2   ar
     7     2     3   ar
     8     3     4    1
     9     3     5   ar
    10     5     6   ar
    11     6     7   ar
    12     7     8   ar
    13     8     9   ar
    14     9    10   ar
    15    10    20    1
    16    20    21    1
    17    21    22    1
    18    22    23   ar
    19    23    24   ar
    20    24    25   ar
    21    25    26   ar
    22    26    27   ar
    23    27    28    1
    24    28    29    1
    25    10    11   ar
    26    11     1   ar
    27    11     6   ar
    28    27    22   ar
    29    14    15    1
    30     4    12    1
    31     4    13    1
@<TRIPOS>MOLECULE
*****
 29 31 0 0 0
SMALL
GASTEIGER

@<TRIPOS>ATOM
      1 C          -7.6977  -19.1094   20.2976 C.ar    1  UNL1        0.1357
      2 N          -7.6798  -20.2369   19.3085 N.ar    1  UNL1       -0.1992
      3 C          -8.9393  -20.6275   18.5936 C.ar    1  UNL1        0.2148
      4 N          -8.9213  -21.7551   17.6044 N.pl3   1  UNL1       -0.3274
      5 N         -10.2167  -19.8907   18.8679 N.ar    1  UNL1       -0.2138
      6 C         -10.2346  -18.7632   19.8570 C.ar    1  UNL1        0.0898
      7 C         -11.5120  -18.0263   20.1313 C.ar    1  UNL1        0.0195
      8 C         -11.5299  -16.8988   21.1204 C.ar    1  UNL1        0.0047
      9 C         -10.2704  -16.5082   21.8353 C.ar    1  UNL1        0.0371
     10 C          -8.9930  -17.2450   21.5610 C.ar    1  UNL1        0.1431
     11 C          -8.9751  -18.3725   20.5719 C.ar    1  UNL1        0.0831
     12 H          -8.0829  -22.2387   17.4244 H       1  UNL1        0.1452
     13 H          -9.7480  -22.0115   17.1352 H       1  UNL1        0.1452
     14 N          -6.4382  -18.7188   21.0125 N.pl3   1  UNL1       -0.3179
     15 H          -6.4773  -18.0962   21.7741 H       1  UNL1        0.1482
     16 C          -5.1190  -19.2766   20.5668 C.3     1  UNL1        0.0882
     17 C          -3.8975  -19.0825   21.4154 C.3     1  UNL1        0.0212
     18 C          -3.9539  -17.3510   23.3517 C.3     1  UNL1        0.0001
     19 C          -4.0405  -18.7709   22.8758 C.3     1  UNL1        0.0017
     20 O          -7.7335  -16.8544   22.2759 O.3     1  UNL1       -0.4704
     21 C          -7.6976  -15.6035   23.1028 C.3     1  UNL1        0.2350
     22 C          -7.4346  -15.6863   24.5772 C.ar    1  UNL1        0.0551
     23 C          -6.1759  -15.1036   25.1484 C.ar    1  UNL1        0.0023
     24 C          -5.9128  -15.1865   26.6229 C.ar    1  UNL1       -0.0000
     25 C          -6.9084  -15.8521   27.5261 C.ar    1  UNL1        0.0031
     26 C          -8.1670  -16.4348   26.9549 C.ar    1  UNL1        0.0367
     27 C          -8.4301  -16.3519   25.4805 C.ar    1  UNL1        0.1382
     28 O          -9.6887  -16.9346   24.9093 O.3     1  UNL1       -0.4716
     29 C          -9.9376  -18.4114   24.9945 C.3     1  UNL1        0.2525
@<TRIPOS>BOND
     1    18    19    1
     2    19    17    1
     3    17    16    1
     4    16    14    1
     5    14     1    1
     6     1     2   ar
     7     2     3   ar
     8     3     4    1
     9     3     5   ar
    10     5     6   ar
    11     6     7   ar
    12     7     8   ar
    13     8     9   ar
    14     9    10   ar
    15    10    20    1
    16    20    21    1
    17    21    22    1
    18    22    23   ar
    19    23    24   ar
    20    24    25   ar
    21    25    26   ar
    22    26    27   ar
    23    27    28    1
    24    28    29    1
    25    10    11   ar
    26    11     1   ar
    27    11     6   ar
    28    27    22   ar
    29    14    15    1
    30     4    12    1
    31     4    13    1
@<TRIPOS>MOLECULE
*****
 29 31 0 0 0
SMALL
GASTEIGER

@<TRIPOS>ATOM
      1 C         -14.9810   -8.4345   18.9637 C.ar    1  UNL1        0.1357
      2 N         -15.3369   -9.8886   18.8701 N.ar    1  UNL1       -0.1992
      3 C         -16.7658  -10.3218   19.0138 C.ar    1  UNL1        0.2148
      4 N         -17.1216  -11.7761   18.9202 N.pl3   1  UNL1       -0.3274
      5 N         -17.8388   -9.3009   19.2510 N.ar    1  UNL1       -0.2138
      6 C         -17.4830   -7.8467   19.3446 C.ar    1  UNL1        0.0898
      7 C         -18.5560   -6.8258   19.5817 C.ar    1  UNL1        0.0195
      8 C         -18.2001   -5.3716   19.6753 C.ar    1  UNL1        0.0047
      9 C         -16.7712   -4.9384   19.5317 C.ar    1  UNL1        0.0371
     10 C         -15.6982   -5.9593   19.2945 C.ar    1  UNL1        0.1431
     11 C         -16.0541   -7.4135   19.2009 C.ar    1  UNL1        0.0831
     12 H         -16.4174  -12.4461   18.7645 H       1  UNL1        0.1452
     13 H         -18.0595  -12.0604   19.0144 H       1  UNL1        0.1452
     14 N         -13.5522   -8.0013   18.8201 N.pl3   1  UNL1       -0.3179
     15 H         -13.0374   -7.7313   19.6147 H       1  UNL1        0.1482
     16 C         -12.9075   -7.9795   17.4659 C.3     1  UNL1        0.0882
     17 C         -11.6012   -7.2693   17.2684 C.3     1  UNL1        0.0212
     18 C          -9.5948   -7.5790   18.8897 C.3     1  UNL1        0.0001
     19 C         -10.3146   -7.9518   17.6276 C.3     1  UNL1        0.0017
     20 O         -14.2693   -5.5261   19.1509 O.3     1  UNL1       -0.4704
     21 C         -13.7202   -4.4470   20.0362 C.3     1  UNL1        0.2350
     22 C         -13.3579   -3.1123   19.4553 C.ar    1  UNL1        0.0551
     23 C         -14.3804   -2.0161   19.3995 C.ar    1  UNL1        0.0023
     24 C         -14.0181   -0.6815   18.8186 C.ar    1  UNL1       -0.0000
     25 C         -12.6334   -0.4430   18.2936 C.ar    1  UNL1        0.0031
     26 C         -11.6110   -1.5391   18.3494 C.ar    1  UNL1        0.0367
     27 C         -11.9733   -2.8738   18.9303 C.ar    1  UNL1        0.1382
     28 O         -10.9509   -3.9699   18.9861 O.3     1  UNL1       -0.4716
     29 C          -9.8397   -4.0112   17.9792 C.3     1  UNL1        0.2525
@<TRIPOS>BOND
     1    18    19    1
     2    19    17    1
     3    17    16    1
     4    16    14    1
     5    14     1    1
     6     1     2   ar
     7     2     3   ar
     8     3     4    1
     9     3     5   ar
    10     5     6   ar
    11     6     7   ar
    12     7     8   ar
    13     8     9   ar
    14     9    10   ar
    15    10    20    1
    16    20    21    1
    17    21    22    1
    18    22    23   ar
    19    23    24   ar
    20    24    25   ar
    21    25    26   ar
    22    26    27   ar
    23    27    28    1
    24    28    29    1
    25    10    11   ar
    26    11     1   ar
    27    11     6   ar
    28    27    22   ar
    29    14    15    1
    30     4    12    1
    31     4    13    1
@<TRIPOS>MOLECULE
*****
 29 31 0 0 0
SMALL
GASTEIGER

@<TRIPOS>ATOM
      1 C         -15.3074   -8.2700   19.1067 C.ar    1  UNL1        0.1357
      2 N         -15.5128   -9.7541   19.0352 N.ar    1  UNL1       -0.1992
      3 C         -16.8967  -10.3251   19.1293 C.ar    1  UNL1        0.2148
      4 N         -17.1021  -11.8093   19.0578 N.pl3   1  UNL1       -0.3274
      5 N         -18.0751   -9.4120   19.2950 N.ar    1  UNL1       -0.2138
      6 C         -17.8697   -7.9278   19.3665 C.ar    1  UNL1        0.0898
      7 C         -19.0481   -7.0147   19.5322 C.ar    1  UNL1        0.0195
      8 C         -18.8426   -5.5306   19.6037 C.ar    1  UNL1        0.0047
      9 C         -17.4588   -4.9596   19.5095 C.ar    1  UNL1        0.0371
     10 C         -16.2804   -5.8727   19.3439 C.ar    1  UNL1        0.1431
     11 C         -16.4858   -7.3568   19.2723 C.ar    1  UNL1        0.0831
     12 H         -16.3286  -12.4086   18.9491 H       1  UNL1        0.1452
     13 H         -18.0104  -12.1841   19.1196 H       1  UNL1        0.1452
     14 N         -13.9235   -7.6990   19.0125 N.pl3   1  UNL1       -0.3179
     15 H         -13.5325   -7.2266   19.7826 H       1  UNL1        0.1482
     16 C         -13.1354   -7.8479   17.7450 C.3     1  UNL1        0.0882
     17 C         -11.8896   -7.0387   17.5369 C.3     1  UNL1        0.0212
     18 C          -9.6813   -7.3833   18.8616 C.3     1  UNL1        0.0001
     19 C         -11.0092   -6.7037   18.7044 C.3     1  UNL1        0.0017
     20 O         -14.8965   -5.3017   19.2497 O.3     1  UNL1       -0.4704
     21 C         -14.4981   -4.1522   20.1271 C.3     1  UNL1        0.2350
     22 C         -13.7318   -2.9989   19.5504 C.ar    1  UNL1        0.0551
     23 C         -12.2554   -3.1218   19.3157 C.ar    1  UNL1        0.0023
     24 C         -11.4890   -1.9685   18.7390 C.ar    1  UNL1       -0.0000
     25 C         -12.1992   -0.6922   18.3969 C.ar    1  UNL1        0.0031
     26 C         -13.6756   -0.5694   18.6315 C.ar    1  UNL1        0.0367
     27 C         -14.4419   -1.7227   19.2083 C.ar    1  UNL1        0.1382
     28 O         -15.9183   -1.5999   19.4429 O.3     1  UNL1       -0.4716
     29 C         -16.4744   -0.3680   20.0935 C.3     1  UNL1        0.2525
@<TRIPOS>BOND
     1    18    19    1
     2    19    17    1
     3    17    16    1
     4    16    14    1
     5    14     1    1
     6     1     2   ar
     7     2     3   ar
     8     3     4    1
     9     3     5   ar
    10     5     6   ar
    11     6     7   ar
    12     7     8   ar
    13     8     9   ar
    14     9    10   ar
    15    10    20    1
    16    20    21    1
    17    21    22    1
    18    22    23   ar
    19    23    24   ar
    20    24    25   ar
    21    25    26   ar
    22    26    27   ar
    23    27    28    1
    24    28    29    1
    25    10    11   ar
    26    11     1   ar
    27    11     6   ar
    28    27    22   ar
    29    14    15    1
    30     4    12    1
    31     4    13    1
@<TRIPOS>MOLECULE
*****
 29 31 0 0 0
SMALL
GASTEIGER

@<TRIPOS>ATOM
      1 C         -13.0560   -3.6501   17.6150 C.ar    1  UNL1        0.1357
      2 N         -12.4407   -2.3151   17.3167 N.ar    1  UNL1       -0.1992
      3 C         -10.9540   -2.1374   17.4069 C.ar    1  UNL1        0.2148
      4 N         -10.3388   -0.8023   17.1085 N.pl3   1  UNL1       -0.3274
      5 N         -10.0826   -3.2948   17.7955 N.ar    1  UNL1       -0.2138
      6 C         -10.6978   -4.6299   18.0938 C.ar    1  UNL1        0.0898
      7 C          -9.8264   -5.7873   18.4824 C.ar    1  UNL1        0.0195
      8 C         -10.4416   -7.1224   18.7807 C.ar    1  UNL1        0.0047
      9 C         -11.9284   -7.3000   18.6905 C.ar    1  UNL1        0.0371
     10 C         -12.7998   -6.1427   18.3020 C.ar    1  UNL1        0.1431
     11 C         -12.1845   -4.8076   18.0036 C.ar    1  UNL1        0.0831
     12 H         -10.9107   -0.0427   16.8535 H       1  UNL1        0.1452
     13 H          -9.3630   -0.6857   17.1677 H       1  UNL1        0.1452
     14 N         -14.5427   -3.8278   17.5248 N.pl3   1  UNL1       -0.3179
     15 H         -14.9173   -4.6439   17.1212 H       1  UNL1        0.1482
     16 C         -15.4586   -2.7621   18.0496 C.3     1  UNL1        0.0882
     17 C         -15.6374   -2.5885   19.5287 C.3     1  UNL1        0.0212
     18 C         -13.7139   -3.1772   21.1730 C.3     1  UNL1        0.0001
     19 C         -14.9908   -3.5509   20.4804 C.3     1  UNL1        0.0017
     20 O         -14.2865   -6.3203   18.2117 O.3     1  UNL1       -0.4704
     21 C         -14.9365   -7.5250   18.8250 C.3     1  UNL1        0.2350
     22 C         -16.3731   -7.4662   19.2524 C.ar    1  UNL1        0.0551
     23 C         -17.0961   -6.1521   19.2736 C.ar    1  UNL1        0.0023
     24 C         -18.5327   -6.0933   19.7010 C.ar    1  UNL1       -0.0000
     25 C         -19.2463   -7.3486   20.1072 C.ar    1  UNL1        0.0031
     26 C         -18.5233   -8.6627   20.0860 C.ar    1  UNL1        0.0367
     27 C         -17.0867   -8.7215   19.6586 C.ar    1  UNL1        0.1382
     28 O         -16.3637  -10.0355   19.6374 O.3     1  UNL1       -0.4716
     29 C         -16.7141  -11.0678   18.6069 C.3     1  UNL1        0.2525
@<TRIPOS>BOND
     1    18    19    1
     2    19    17    1
     3    17    16    1
     4    16    14    1
     5    14     1    1
     6     1     2   ar
     7     2     3   ar
     8     3     4    1
     9     3     5   ar
    10     5     6   ar
    11     6     7   ar
    12     7     8   ar
    13     8     9   ar
    14     9    10   ar
    15    10    20    1
    16    20    21    1
    17    21    22    1
    18    22    23   ar
    19    23    24   ar
    20    24    25   ar
    21    25    26   ar
    22    26    27   ar
    23    27    28    1
    24    28    29    1
    25    10    11   ar
    26    11     1   ar
    27    11     6   ar
    28    27    22   ar
    29    14    15    1
    30     4    12    1
    31     4    13    1
@<TRIPOS>MOLECULE
*****
 29 31 0 0 0
SMALL
GASTEIGER

@<TRIPOS>ATOM
      1 C          -8.4858  -19.1914   21.2569 C.ar    1  UNL1        0.1357
      2 N          -8.1987  -19.8465   19.9385 N.ar    1  UNL1       -0.1992
      3 C          -9.2957  -20.0132   18.9291 C.ar    1  UNL1        0.2148
      4 N          -9.0085  -20.6683   17.6106 N.pl3   1  UNL1       -0.3274
      5 N         -10.6798  -19.5248   19.2382 N.ar    1  UNL1       -0.2138
      6 C         -10.9670  -18.8697   20.5567 C.ar    1  UNL1        0.0898
      7 C         -12.3511  -18.3812   20.8658 C.ar    1  UNL1        0.0195
      8 C         -12.6383  -17.7262   22.1843 C.ar    1  UNL1        0.0047
      9 C         -11.5413  -17.5595   23.1936 C.ar    1  UNL1        0.0371
     10 C         -10.1572  -18.0479   22.8845 C.ar    1  UNL1        0.1431
     11 C          -9.8700  -18.7030   21.5661 C.ar    1  UNL1        0.0831
     12 H          -8.1000  -20.9889   17.4078 H       1  UNL1        0.1452
     13 H          -9.7285  -20.7777   16.9481 H       1  UNL1        0.1452
     14 N          -7.3888  -19.0248   22.2663 N.pl3   1  UNL1       -0.3179
     15 H          -7.3752  -18.2338   22.8524 H       1  UNL1        0.1482
     16 C          -6.3127  -20.0631   22.3827 C.3     1  UNL1        0.0882
     17 C          -4.8711  -19.6657   22.2652 C.3     1  UNL1        0.0212
     18 C          -4.4550  -19.1491   19.7532 C.3     1  UNL1        0.0001
     19 C          -4.4409  -18.7138   21.1885 C.3     1  UNL1        0.0017
     20 O          -9.0602  -17.8812   23.8939 O.3     1  UNL1       -0.4704
     21 C          -8.8920  -16.5739   24.6098 C.3     1  UNL1        0.2350
     22 C          -7.5171  -16.0534   24.9078 C.ar    1  UNL1        0.0551
     23 C          -6.5198  -15.8916   23.7990 C.ar    1  UNL1        0.0023
     24 C          -5.1449  -15.3711   24.0969 C.ar    1  UNL1       -0.0000
     25 C          -4.7673  -15.0124   25.5036 C.ar    1  UNL1        0.0031
     26 C          -5.7646  -15.1742   26.6123 C.ar    1  UNL1        0.0367
     27 C          -7.1394  -15.6947   26.3144 C.ar    1  UNL1        0.1382
     28 O          -8.1367  -15.8565   27.4231 O.3     1  UNL1       -0.4716
     29 C          -8.7907  -14.6486   28.0259 C.3     1  UNL1        0.2525
@<TRIPOS>BOND
     1    18    19    1
     2    19    17    1
     3    17    16    1
     4    16    14    1
     5    14     1    1
     6     1     2   ar
     7     2     3   ar
     8     3     4    1
     9     3     5   ar
    10     5     6   ar
    11     6     7   ar
    12     7     8   ar
    13     8     9   ar
    14     9    10   ar
    15    10    20    1
    16    20    21    1
    17    21    22    1
    18    22    23   ar
    19    23    24   ar
    20    24    25   ar
    21    25    26   ar
    22    26    27   ar
    23    27    28    1
    24    28    29    1
    25    10    11   ar
    26    11     1   ar
    27    11     6   ar
    28    27    22   ar
    29    14    15    1
    30     4    12    1
    31     4    13    1
