@<TRIPOS>MOLECULE
*****
 34 36 0 0 0
SMALL
GASTEIGER

@<TRIPOS>ATOM
      1 N1         -9.5901  -17.5597   20.9584 N.am    1  <1>        -0.2946
      2 C1         -9.2861  -18.9884   20.6171 C.2     1  <1>         0.2618
      3 O1        -10.3968  -19.9935   20.5388 O.2     1  <1>        -0.2686
      4 H1         -8.8611  -16.9000   21.0098 H       1  <1>         0.1501
      5 C2         -7.8714  -19.4120   20.3543 C.ar    1  <1>         0.1107
      6 C3         -7.4276  -20.7719   19.9028 C.ar    1  <1>         0.0231
      7 C4         -5.9340  -20.7504   19.7662 C.ar    1  <1>         0.0186
      8 C5         -5.4547  -19.3773   20.1332 C.ar    1  <1>         0.0568
      9 N2         -6.6520  -18.5501   20.4966 N.ar    1  <1>        -0.3496
     10 H2         -6.6397  -17.6071   20.7790 H       1  <1>         0.1661
     11 C6         -4.0283  -18.9128   20.1362 C.ar    1  <1>         0.0178
     12 C7         -3.2557  -18.8716   21.4213 C.ar    1  <1>         0.0015
     13 C8         -1.8295  -18.4072   21.4243 C.ar    1  <1>         0.0062
     14 C9         -1.1758  -17.9840   20.1422 C.ar    1  <1>         0.0988
     15 C10        -1.9484  -18.0252   18.8572 C.ar    1  <1>         0.1441
     16 F1         -1.2947  -17.6020   17.5752 F       1  <1>        -0.2042
     17 C11        -3.3747  -18.4897   18.8542 C.ar    1  <1>         0.0310
     18 C12         0.2505  -17.5195   20.1453 C.3     1  <1>         0.4207
     19 F2          1.6767  -17.0550   20.1483 F       1  <1>        -0.1658
     20 F3          0.7077  -18.9215   19.8708 F       1  <1>        -0.1658
     21 F4         -0.2067  -16.1175   20.4197 F       1  <1>        -0.1658
     22 C13       -11.0048  -17.1361   21.2213 C.3     1  <1>         0.1341
     23 C14       -11.7139  -17.6135   22.4539 C.ar    1  <1>         0.1071
     24 N3        -13.1960  -17.5889   22.6838 N.ar    1  <1>        -0.2428
     25 C15       -13.4634  -18.1595   24.0450 C.ar    1  <1>         0.0952
     26 C16       -12.1466  -18.5367   24.6564 C.ar    1  <1>         0.0538
     27 S1        -11.0654  -18.1992   23.6730 S.2     1  <1>        -0.0689
     28 C17       -14.8110  -18.3240   24.6829 C.3     1  <1>         0.1834
     29 O2        -14.9167  -18.8096   26.0981 O.3     1  <1>        -0.3760
     30 H3        -14.5995  -19.7248   26.1505 H       1  <1>         0.2110
     31 N4        -10.9173  -15.3462   19.3401 N.3     1  <1>        -0.3194
     32 C18       -11.7105  -16.2351   20.2515 C.3     1  <1>         0.0917
     33 H4        -11.5535  -14.8068   18.7530 H       1  <1>         0.1189
     34 H5        -10.3121  -15.9174   18.7502 H       1  <1>         0.1189
@<TRIPOS>BOND
     1    31    32    1
     2    22    32    1
     3    22     1    1
     4     1     2   am
     5     2     3    2
     6     2     5    1
     7     5     6   ar
     8     6     7   ar
     9     7     8   ar
    10     8    11    1
    11    11    12   ar
    12    12    13   ar
    13    13    14   ar
    14    14    18    1
    15    18    19    1
    16    18    20    1
    17    18    21    1
    18    14    15   ar
    19    15    16    1
    20    15    17   ar
    21     8     9   ar
    22    22    23    1
    23    23    24   ar
    24    24    25   ar
    25    25    28    1
    26    28    29    1
    27    25    26   ar
    28    26    27   ar
    29     9     5   ar
    30    27    23   ar
    31    17    11   ar
    32    31    33    1
    33    31    34    1
    34     1     4    1
    35     9    10    1
    36    29    30    1
@<TRIPOS>MOLECULE
*****
 34 36 0 0 0
SMALL
GASTEIGER

@<TRIPOS>ATOM
      1 N1         -9.0149  -18.9242   22.8068 N.am    1  <1>        -0.2946
      2 C1         -8.7617  -19.5623   21.4731 C.2     1  <1>         0.2618
      3 O1         -9.9124  -19.8942   20.5699 O.2     1  <1>        -0.2686
      4 H1         -8.2597  -18.7064   23.3996 H       1  <1>         0.1501
      5 C2         -7.3578  -19.8686   21.0426 C.ar    1  <1>         0.1107
      6 C3         -6.8747  -21.1683   20.4704 C.ar    1  <1>         0.0231
      7 C4         -5.4089  -21.0319   20.1829 C.ar    1  <1>         0.0186
      8 C5         -4.9860  -19.6479   20.5775 C.ar    1  <1>         0.0568
      9 N2         -6.1905  -18.9290   21.1088 N.ar    1  <1>        -0.3496
     10 H2         -6.2112  -18.0029   21.4424 H       1  <1>         0.1661
     11 C6         -3.6016  -19.0822   20.4611 C.ar    1  <1>         0.0178
     12 C7         -2.7370  -18.9585   21.6806 C.ar    1  <1>         0.0015
     13 C8         -1.3527  -18.3928   21.5642 C.ar    1  <1>         0.0062
     14 C9         -0.8330  -17.9507   20.2284 C.ar    1  <1>         0.0988
     15 C10        -1.6976  -18.0743   19.0089 C.ar    1  <1>         0.1441
     16 F1         -1.1779  -17.6323   17.6731 F       1  <1>        -0.2042
     17 C11        -3.0819  -18.6401   19.1253 C.ar    1  <1>         0.0310
     18 C12         0.5514  -17.3849   20.1121 C.3     1  <1>         0.4207
     19 F2          1.9357  -16.8191   19.9957 F       1  <1>        -0.1658
     20 F3          1.1111  -18.7734   20.0188 F       1  <1>        -0.1658
     21 F4         -0.0083  -15.9964   20.2053 F       1  <1>        -0.1658
     22 C13       -10.4188  -18.6179   23.2372 C.3     1  <1>         0.1341
     23 C14       -11.2795  -17.7168   22.4023 C.ar    1  <1>         0.1071
     24 N3        -10.9120  -17.1316   21.0710 N.ar    1  <1>        -0.2428
     25 C15       -12.0642  -16.2957   20.5981 C.ar    1  <1>         0.0952
     26 C16       -13.1439  -16.3643   21.6371 C.ar    1  <1>         0.0538
     27 S1        -12.6589  -17.2425   22.7522 S.2     1  <1>        -0.0689
     28 C17       -12.1260  -15.5264   19.3119 C.3     1  <1>         0.1834
     29 O2        -10.8741  -14.9448   18.7250 O.3     1  <1>        -0.3760
     30 H3        -10.5332  -14.2521   19.3123 H       1  <1>         0.2110
     31 N4        -10.0912  -20.0891   25.3534 N.3     1  <1>        -0.3194
     32 C18       -10.9619  -19.2128   24.5026 C.3     1  <1>         0.0917
     33 H4        -10.6183  -20.4038   26.1681 H       1  <1>         0.1189
     34 H5         -9.2741  -19.5613   25.6602 H       1  <1>         0.1189
@<TRIPOS>BOND
     1    31    32    1
     2    22    32    1
     3    22     1    1
     4     1     2   am
     5     2     3    2
     6     2     5    1
     7     5     6   ar
     8     6     7   ar
     9     7     8   ar
    10     8    11    1
    11    11    12   ar
    12    12    13   ar
    13    13    14   ar
    14    14    18    1
    15    18    19    1
    16    18    20    1
    17    18    21    1
    18    14    15   ar
    19    15    16    1
    20    15    17   ar
    21     8     9   ar
    22    22    23    1
    23    23    24   ar
    24    24    25   ar
    25    25    28    1
    26    28    29    1
    27    25    26   ar
    28    26    27   ar
    29     9     5   ar
    30    27    23   ar
    31    17    11   ar
    32    31    33    1
    33    31    34    1
    34     1     4    1
    35     9    10    1
    36    29    30    1
@<TRIPOS>MOLECULE
*****
 34 36 0 0 0
SMALL
GASTEIGER

@<TRIPOS>ATOM
      1 N1          1.3797    0.1786   27.5926 N.am    1  <1>        -0.2946
      2 C1          1.6250    1.3399   26.6754 C.2     1  <1>         0.2618
      3 O1          1.5440    2.7419   27.2024 O.2     1  <1>        -0.2686
      4 H1          1.4329   -0.7416   27.2467 H       1  <1>         0.1501
      5 C2          1.9514    1.0992   25.2313 C.ar    1  <1>         0.1107
      6 C3          1.9066    2.1219   24.1349 C.ar    1  <1>         0.0231
      7 C4          2.3075    1.4483   22.8560 C.ar    1  <1>         0.0186
      8 C5          2.6000    0.0093   23.1620 C.ar    1  <1>         0.0568
      9 N2          2.3800   -0.2064   24.6300 N.ar    1  <1>        -0.3496
     10 H2          2.4964   -1.0559   25.1139 H       1  <1>         0.1661
     11 C6          3.0361   -1.0313   22.1735 C.ar    1  <1>         0.0178
     12 C7          2.5142   -0.9958   20.7677 C.ar    1  <1>         0.0015
     13 C8          2.9503   -2.0363   19.7793 C.ar    1  <1>         0.0062
     14 C9          3.9082   -3.1125   20.1967 C.ar    1  <1>         0.0988
     15 C10         4.4301   -3.1480   21.6025 C.ar    1  <1>         0.1441
     16 F1          5.3881   -4.2241   22.0199 F       1  <1>        -0.2042
     17 C11         3.9941   -2.1074   22.5909 C.ar    1  <1>         0.0310
     18 C12         4.3443   -4.1531   19.2082 C.3     1  <1>         0.4207
     19 F2          4.7804   -5.1936   18.2198 F       1  <1>        -0.1658
     20 F3          2.9707   -4.7550   19.2358 F       1  <1>        -0.1658
     21 F4          5.7179   -3.5512   19.1806 F       1  <1>        -0.1658
     22 C13         1.0533    0.4193   29.0367 C.3     1  <1>         0.1341
     23 C14         2.1322    0.3280   30.0747 C.ar    1  <1>         0.1071
     24 N3          2.3822   -0.8364   30.9866 N.ar    1  <1>        -0.2428
     25 C15         3.5551   -0.4988   31.8586 C.ar    1  <1>         0.0952
     26 C16         4.0300    0.8743   31.4857 C.ar    1  <1>         0.0538
     27 S1          3.1506    1.3853   30.3832 S.2     1  <1>        -0.0689
     28 C17         4.1489   -1.3797   32.9176 C.3     1  <1>         0.1834
     29 O2          3.8866   -2.8564   32.8986 O.3     1  <1>        -0.3760
     30 H3          2.9444   -3.0196   33.0613 H       1  <1>         0.2110
     31 N4         -1.4363   -0.2755   29.3002 N.3     1  <1>        -0.3194
     32 C18        -0.3521    0.7512   29.4428 C.3     1  <1>         0.0917
     33 H4         -2.3211    0.1175   29.6212 H       1  <1>         0.1189
     34 H5         -1.2046   -1.0949   29.8617 H       1  <1>         0.1189
@<TRIPOS>BOND
     1    31    32    1
     2    22    32    1
     3    22     1    1
     4     1     2   am
     5     2     3    2
     6     2     5    1
     7     5     6   ar
     8     6     7   ar
     9     7     8   ar
    10     8    11    1
    11    11    12   ar
    12    12    13   ar
    13    13    14   ar
    14    14    18    1
    15    18    19    1
    16    18    20    1
    17    18    21    1
    18    14    15   ar
    19    15    16    1
    20    15    17   ar
    21     8     9   ar
    22    22    23    1
    23    23    24   ar
    24    24    25   ar
    25    25    28    1
    26    28    29    1
    27    25    26   ar
    28    26    27   ar
    29     9     5   ar
    30    27    23   ar
    31    17    11   ar
    32    31    33    1
    33    31    34    1
    34     1     4    1
    35     9    10    1
    36    29    30    1
@<TRIPOS>MOLECULE
*****
 34 36 0 0 0
SMALL
GASTEIGER

@<TRIPOS>ATOM
      1 N1         -3.0505    2.7686   20.4668 N.am    1  <1>        -0.2946
      2 C1         -1.8309    3.6387   20.5418 C.2     1  <1>         0.2618
      3 O1         -1.9758    5.1310   20.5872 O.2     1  <1>        -0.2686
      4 H1         -2.9553    1.7892   20.4369 H       1  <1>         0.1501
      5 C2         -0.4663    3.0165   20.5713 C.ar    1  <1>         0.1107
      6 C3          0.7739    3.6377   21.1424 C.ar    1  <1>         0.0231
      7 C4          1.9043    2.6689   20.9589 C.ar    1  <1>         0.0186
      8 C5          1.3628    1.4490   20.2745 C.ar    1  <1>         0.0568
      9 N2         -0.1023    1.6638   20.0349 N.ar    1  <1>        -0.3496
     10 H2         -0.7171    1.0285   19.6016 H       1  <1>         0.1661
     11 C6          2.1484    0.2285   19.8960 C.ar    1  <1>         0.0178
     12 C7          2.3814   -0.8563   20.9053 C.ar    1  <1>         0.0015
     13 C8          3.1670   -2.0768   20.5268 C.ar    1  <1>         0.0062
     14 C9          3.7197   -2.2124   19.1390 C.ar    1  <1>         0.0988
     15 C10         3.4868   -1.1275   18.1296 C.ar    1  <1>         0.1441
     16 F1          4.0395   -1.2631   16.7418 F       1  <1>        -0.2042
     17 C11         2.7011    0.0929   18.5081 C.ar    1  <1>         0.0310
     18 C12         4.5053   -3.4329   18.7605 C.3     1  <1>         0.4207
     19 F2          5.2910   -4.6533   18.3821 F       1  <1>        -0.1658
     20 F3          3.2417   -4.2408   18.7423 F       1  <1>        -0.1658
     21 F4          5.7690   -2.6250   18.7787 F       1  <1>        -0.1658
     22 C13        -4.4150    3.3908   20.4373 C.3     1  <1>         0.1341
     23 C14        -5.1367    3.6768   21.7207 C.ar    1  <1>         0.1071
     24 N3         -6.5846    4.0450   21.8549 N.ar    1  <1>        -0.2428
     25 C15        -6.8800    4.2405   23.3125 C.ar    1  <1>         0.0952
     26 C16        -5.6147    3.9931   24.0791 C.ar    1  <1>         0.0538
     27 S1         -4.5373    3.6447   23.0954 S.2     1  <1>        -0.0689
     28 C17        -8.2077    4.6173   23.9002 C.3     1  <1>         0.1834
     29 O2         -9.3407    3.6345   23.8848 O.3     1  <1>        -0.3760
     30 H3         -9.6107    3.4666   22.9684 H       1  <1>         0.2110
     31 N4         -6.3931    3.1421   18.7714 N.3     1  <1>        -0.3194
     32 C18        -5.0577    3.7271   19.1243 C.3     1  <1>         0.0917
     33 H4         -6.6773    3.4749   17.8500 H       1  <1>         0.1189
     34 H5         -7.0840    3.4291   19.4646 H       1  <1>         0.1189
@<TRIPOS>BOND
     1    31    32    1
     2    22    32    1
     3    22     1    1
     4     1     2   am
     5     2     3    2
     6     2     5    1
     7     5     6   ar
     8     6     7   ar
     9     7     8   ar
    10     8    11    1
    11    11    12   ar
    12    12    13   ar
    13    13    14   ar
    14    14    18    1
    15    18    19    1
    16    18    20    1
    17    18    21    1
    18    14    15   ar
    19    15    16    1
    20    15    17   ar
    21     8     9   ar
    22    22    23    1
    23    23    24   ar
    24    24    25   ar
    25    25    28    1
    26    28    29    1
    27    25    26   ar
    28    26    27   ar
    29     9     5   ar
    30    27    23   ar
    31    17    11   ar
    32    31    33    1
    33    31    34    1
    34     1     4    1
    35     9    10    1
    36    29    30    1
@<TRIPOS>MOLECULE
*****
 34 36 0 0 0
SMALL
GASTEIGER

@<TRIPOS>ATOM
      1 N1          2.9137    1.3068   28.8857 N.am    1  <1>        -0.2946
      2 C1          2.7272    0.0759   28.0490 C.2     1  <1>         0.2618
      3 O1          2.1633   -1.1707   28.6639 O.2     1  <1>        -0.2686
      4 H1          3.2838    2.1250   28.4821 H       1  <1>         0.1501
      5 C2          3.1047    0.0915   26.5973 C.ar    1  <1>         0.1107
      6 C3          3.4418    1.3080   25.7870 C.ar    1  <1>         0.0231
      7 C4          3.7568    0.8618   24.3900 C.ar    1  <1>         0.0186
      8 C5          3.6144   -0.6305   24.3369 C.ar    1  <1>         0.0568
      9 N2          3.2114   -1.1065   25.7011 N.ar    1  <1>        -0.3496
     10 H2          3.0459   -2.0412   25.9624 H       1  <1>         0.1661
     11 C6          3.8360   -1.4950   23.1312 C.ar    1  <1>         0.0178
     12 C7          4.6060   -2.7760   23.2582 C.ar    1  <1>         0.0015
     13 C8          4.8276   -3.6405   22.0526 C.ar    1  <1>         0.0062
     14 C9          4.2793   -3.2239   20.7200 C.ar    1  <1>         0.0988
     15 C10         3.5094   -1.9429   20.5930 C.ar    1  <1>         0.1441
     16 F1          2.9611   -1.5264   19.2604 F       1  <1>        -0.2042
     17 C11         3.2877   -1.0785   21.7986 C.ar    1  <1>         0.0310
     18 C12         4.5010   -4.0885   19.5144 C.3     1  <1>         0.4207
     19 F2          4.7227   -4.9529   18.3088 F       1  <1>        -0.1658
     20 F3          3.2797   -4.8868   19.8622 F       1  <1>        -0.1658
     21 F4          5.7223   -3.2901   19.1665 F       1  <1>        -0.1658
     22 C13         2.5362    1.2912   30.3373 C.3     1  <1>         0.1341
     23 C14         3.4432    0.6434   31.3412 C.ar    1  <1>         0.1071
     24 N3          3.2045   -0.6687   32.0277 N.ar    1  <1>        -0.2428
     25 C15         4.3620   -0.9290   32.9455 C.ar    1  <1>         0.0952
     26 C16         5.3161    0.2223   32.8263 C.ar    1  <1>         0.0538
     27 S1          4.7483    1.1940   31.8347 S.2     1  <1>        -0.0689
     28 C17         4.5350   -2.1297   33.8277 C.3     1  <1>         0.1834
     29 O2          3.5968   -3.2934   33.7030 O.3     1  <1>        -0.3760
     30 H3          2.7058   -3.0208   33.9728 H       1  <1>         0.2110
     31 N4          0.7939    1.7669   32.2050 N.3     1  <1>        -0.3194
     32 C18         1.2517    1.9233   30.7851 C.3     1  <1>         0.0917
     33 H4         -0.0913    2.2573   32.3327 H       1  <1>         0.1189
     34 H5          1.4943    2.1604   32.8334 H       1  <1>         0.1189
@<TRIPOS>BOND
     1    31    32    1
     2    22    32    1
     3    22     1    1
     4     1     2   am
     5     2     3    2
     6     2     5    1
     7     5     6   ar
     8     6     7   ar
     9     7     8   ar
    10     8    11    1
    11    11    12   ar
    12    12    13   ar
    13    13    14   ar
    14    14    18    1
    15    18    19    1
    16    18    20    1
    17    18    21    1
    18    14    15   ar
    19    15    16    1
    20    15    17   ar
    21     8     9   ar
    22    22    23    1
    23    23    24   ar
    24    24    25   ar
    25    25    28    1
    26    28    29    1
    27    25    26   ar
    28    26    27   ar
    29     9     5   ar
    30    27    23   ar
    31    17    11   ar
    32    31    33    1
    33    31    34    1
    34     1     4    1
    35     9    10    1
    36    29    30    1
@<TRIPOS>MOLECULE
*****
 34 36 0 0 0
SMALL
GASTEIGER

@<TRIPOS>ATOM
      1 N1         -3.3818    2.8422   20.6491 N.am    1  <1>        -0.2946
      2 C1         -2.3147    3.8115   20.2346 C.2     1  <1>         0.2618
      3 O1         -2.5851    5.2864   20.2735 O.2     1  <1>        -0.2686
      4 H1         -3.2044    1.8742   20.6236 H       1  <1>         0.1501
      5 C2         -0.9772    3.3059   19.7813 C.ar    1  <1>         0.1107
      6 C3          0.0914    4.1177   19.1112 C.ar    1  <1>         0.0231
      7 C4          1.2555    3.2133   18.8343 C.ar    1  <1>         0.0186
      8 C5          0.9064    1.8425   19.3333 C.ar    1  <1>         0.0568
      9 N2         -0.4735    1.8997   19.9186 N.ar    1  <1>        -0.3496
     10 H2         -0.9626    1.1466   20.3220 H       1  <1>         0.1661
     11 C6          1.7833    0.6276   19.2599 C.ar    1  <1>         0.0178
     12 C7          1.7904   -0.3614   20.3875 C.ar    1  <1>         0.0015
     13 C8          2.6673   -1.5762   20.3141 C.ar    1  <1>         0.0062
     14 C9          3.5370   -1.8019   19.1130 C.ar    1  <1>         0.0988
     15 C10         3.5299   -0.8129   17.9853 C.ar    1  <1>         0.1441
     16 F1          4.3996   -1.0386   16.7842 F       1  <1>        -0.2042
     17 C11         2.6530    0.4019   18.0588 C.ar    1  <1>         0.0310
     18 C12         4.4139   -3.0168   19.0396 C.3     1  <1>         0.4207
     19 F2          5.2906   -4.2316   18.9662 F       1  <1>        -0.1658
     20 F3          5.6263   -2.1527   19.2223 F       1  <1>        -0.1658
     21 F4          3.2014   -3.8808   18.8569 F       1  <1>        -0.1658
     22 C13        -4.7193    3.3478   21.1024 C.3     1  <1>         0.1341
     23 C14        -4.9575    3.6413   22.5540 C.ar    1  <1>         0.1071
     24 N3         -3.9651    3.4615   23.6643 N.ar    1  <1>        -0.2428
     25 C15        -4.6242    3.8752   24.9466 C.ar    1  <1>         0.0952
     26 C16        -6.0240    4.3105   24.6289 C.ar    1  <1>         0.0538
     27 S1         -6.2300    4.1660   23.1502 S.2     1  <1>        -0.0689
     28 C17        -3.9941    3.8567   26.3077 C.3     1  <1>         0.1834
     29 O2         -4.6620    4.5584   27.4530 O.3     1  <1>        -0.3760
     30 H3         -4.6655    5.5143   27.2887 H       1  <1>         0.2110
     31 N4         -5.7182    2.9507   18.7371 N.3     1  <1>        -0.3194
     32 C18        -5.8186    3.5600   20.1041 C.3     1  <1>         0.0917
     33 H4         -6.5464    3.1952   18.1942 H       1  <1>         0.1189
     34 H5         -5.6539    1.9362   18.8210 H       1  <1>         0.1189
@<TRIPOS>BOND
     1    31    32    1
     2    22    32    1
     3    22     1    1
     4     1     2   am
     5     2     3    2
     6     2     5    1
     7     5     6   ar
     8     6     7   ar
     9     7     8   ar
    10     8    11    1
    11    11    12   ar
    12    12    13   ar
    13    13    14   ar
    14    14    18    1
    15    18    19    1
    16    18    20    1
    17    18    21    1
    18    14    15   ar
    19    15    16    1
    20    15    17   ar
    21     8     9   ar
    22    22    23    1
    23    23    24   ar
    24    24    25   ar
    25    25    28    1
    26    28    29    1
    27    25    26   ar
    28    26    27   ar
    29     9     5   ar
    30    27    23   ar
    31    17    11   ar
    32    31    33    1
    33    31    34    1
    34     1     4    1
    35     9    10    1
    36    29    30    1
@<TRIPOS>MOLECULE
*****
 34 36 0 0 0
SMALL
GASTEIGER

@<TRIPOS>ATOM
      1 N1         -4.8455  -18.5312   20.8493 N.am    1  <1>        -0.2946
      2 C1         -5.0037  -18.3405   22.3287 C.2     1  <1>         0.2618
      3 O1         -3.8985  -18.7436   23.2593 O.2     1  <1>        -0.2686
      4 H1         -5.5709  -18.2667   20.2385 H       1  <1>         0.1501
      5 C2         -6.2671  -17.7466   22.8774 C.ar    1  <1>         0.1107
      6 C3         -6.3979  -16.4036   23.5328 C.ar    1  <1>         0.0231
      7 C4         -7.8331  -16.2184   23.9276 C.ar    1  <1>         0.0186
      8 C5         -8.5893  -17.4468   23.5163 C.ar    1  <1>         0.0568
      9 N2         -7.6214  -18.3912   22.8672 N.ar    1  <1>        -0.3496
     10 H2         -7.8372  -19.2785   22.4992 H       1  <1>         0.1661
     11 C6        -10.0559  -17.6884   23.7184 C.ar    1  <1>         0.0178
     12 C7        -10.5191  -18.8911   24.4857 C.ar    1  <1>         0.0015
     13 C8        -11.9856  -19.1327   24.6879 C.ar    1  <1>         0.0062
     14 C9        -12.9889  -18.1715   24.1227 C.ar    1  <1>         0.0988
     15 C10       -12.5258  -16.9687   23.3554 C.ar    1  <1>         0.1441
     16 F1        -13.5291  -16.0075   22.7902 F       1  <1>        -0.2042
     17 C11       -11.0592  -16.7272   23.1533 C.ar    1  <1>         0.0310
     18 C12       -14.4555  -18.4131   24.3249 C.3     1  <1>         0.4207
     19 F2        -15.9221  -18.6546   24.5271 F       1  <1>        -0.1658
     20 F3        -14.6406  -18.5319   22.8411 F       1  <1>        -0.1658
     21 F4        -14.2705  -18.2942   25.8087 F       1  <1>        -0.1658
     22 C13        -3.5821  -19.1252   20.3005 C.3     1  <1>         0.1341
     23 C14        -2.3099  -18.3308   20.3197 C.ar    1  <1>         0.1071
     24 N3         -0.9302  -18.8699   20.0839 N.ar    1  <1>        -0.2428
     25 C15         0.0384  -17.7300   20.1966 C.ar    1  <1>         0.0952
     26 C16        -0.7428  -16.4864   20.5020 C.ar    1  <1>         0.0538
     27 S1         -2.1941  -16.8577   20.5781 S.2     1  <1>        -0.0689
     28 C17         1.5268  -17.8183   20.0326 C.3     1  <1>         0.1834
     29 O2          2.4123  -17.8780   21.2419 O.3     1  <1>        -0.3760
     30 H3          2.3520  -17.0410   21.7284 H       1  <1>         0.2110
     31 N4         -4.8141  -21.3713   19.8676 N.3     1  <1>        -0.3194
     32 C18        -3.5910  -20.5135   19.7325 C.3     1  <1>         0.0917
     33 H4         -4.6451  -22.2759   19.4278 H       1  <1>         0.1189
     34 H5         -5.6028  -20.9132   19.4110 H       1  <1>         0.1189
@<TRIPOS>BOND
     1    31    32    1
     2    22    32    1
     3    22     1    1
     4     1     2   am
     5     2     3    2
     6     2     5    1
     7     5     6   ar
     8     6     7   ar
     9     7     8   ar
    10     8    11    1
    11    11    12   ar
    12    12    13   ar
    13    13    14   ar
    14    14    18    1
    15    18    19    1
    16    18    20    1
    17    18    21    1
    18    14    15   ar
    19    15    16    1
    20    15    17   ar
    21     8     9   ar
    22    22    23    1
    23    23    24   ar
    24    24    25   ar
    25    25    28    1
    26    28    29    1
    27    25    26   ar
    28    26    27   ar
    29     9     5   ar
    30    27    23   ar
    31    17    11   ar
    32    31    33    1
    33    31    34    1
    34     1     4    1
    35     9    10    1
    36    29    30    1
@<TRIPOS>MOLECULE
*****
 34 36 0 0 0
SMALL
GASTEIGER

@<TRIPOS>ATOM
      1 N1          6.6728   -5.3291   25.7190 N.am    1  <1>        -0.2946
      2 C1          7.6632   -4.8989   24.6778 C.2     1  <1>         0.2618
      3 O1          9.1340   -5.0157   24.9481 O.2     1  <1>        -0.2686
      4 H1          5.7074   -5.2524   25.5416 H       1  <1>         0.1501
      5 C2          7.1828   -4.3518   23.3663 C.ar    1  <1>         0.1107
      6 C3          7.8321   -4.5652   22.0310 C.ar    1  <1>         0.0231
      7 C4          7.0193   -3.8406   20.9993 C.ar    1  <1>         0.0186
      8 C5          5.8678   -3.1795   21.6970 C.ar    1  <1>         0.0568
      9 N2          5.9688   -3.4954   23.1598 N.ar    1  <1>        -0.3496
     10 H2          5.3474   -3.1936   23.8613 H       1  <1>         0.1661
     11 C6          4.8022   -2.3482   21.0460 C.ar    1  <1>         0.0178
     12 C7          3.8314   -1.5777   21.8908 C.ar    1  <1>         0.0015
     13 C8          2.7659   -0.7465   21.2399 C.ar    1  <1>         0.0062
     14 C9          2.6711   -0.6859   19.7441 C.ar    1  <1>         0.0988
     15 C10         3.6419   -1.4565   18.8993 C.ar    1  <1>         0.1441
     16 F1          3.5472   -1.3959   17.4035 F       1  <1>        -0.2042
     17 C11         4.7074   -2.2876   19.5502 C.ar    1  <1>         0.0310
     18 C12         1.6055    0.1453   19.0931 C.3     1  <1>         0.4207
     19 F2          0.5400    0.9765   18.4422 F       1  <1>        -0.1658
     20 F3          2.6560    0.8882   18.3221 F       1  <1>        -0.1658
     21 F4          0.5551   -0.5976   19.8642 F       1  <1>        -0.1658
     22 C13         7.1532   -5.8761   27.0304 C.3     1  <1>         0.1341
     23 C14         7.2079   -4.9885   28.2384 C.ar    1  <1>         0.1071
     24 N3          6.7002   -5.3308   29.6078 N.ar    1  <1>        -0.2428
     25 C15         6.9584   -4.1566   30.5047 C.ar    1  <1>         0.0952
     26 C16         7.6257   -3.0886   29.6898 C.ar    1  <1>         0.0538
     27 S1          7.7798   -3.6028   28.2891 S.2     1  <1>        -0.0689
     28 C17         6.6104   -4.0663   31.9610 C.3     1  <1>         0.1834
     29 O2          6.3002   -5.3121   32.7367 O.3     1  <1>        -0.3760
     30 H3          5.4819   -5.7082   32.3985 H       1  <1>         0.2110
     31 N4          6.7620   -8.3846   26.4787 N.3     1  <1>        -0.3194
     32 C18         7.5789   -7.3107   27.1339 C.3     1  <1>         0.0917
     33 H4          7.1943   -9.2925   26.6493 H       1  <1>         0.1189
     34 H5          6.7173   -8.2127   25.4743 H       1  <1>         0.1189
@<TRIPOS>BOND
     1    31    32    1
     2    22    32    1
     3    22     1    1
     4     1     2   am
     5     2     3    2
     6     2     5    1
     7     5     6   ar
     8     6     7   ar
     9     7     8   ar
    10     8    11    1
    11    11    12   ar
    12    12    13   ar
    13    13    14   ar
    14    14    18    1
    15    18    19    1
    16    18    20    1
    17    18    21    1
    18    14    15   ar
    19    15    16    1
    20    15    17   ar
    21     8     9   ar
    22    22    23    1
    23    23    24   ar
    24    24    25   ar
    25    25    28    1
    26    28    29    1
    27    25    26   ar
    28    26    27   ar
    29     9     5   ar
    30    27    23   ar
    31    17    11   ar
    32    31    33    1
    33    31    34    1
    34     1     4    1
    35     9    10    1
    36    29    30    1
@<TRIPOS>MOLECULE
*****
 34 36 0 0 0
SMALL
GASTEIGER

@<TRIPOS>ATOM
      1 N1          7.9150   -3.8848   28.4065 N.am    1  <1>        -0.2946
      2 C1          7.0001   -4.7726   27.6160 C.2     1  <1>         0.2618
      3 O1          6.0431   -5.6846   28.3248 O.2     1  <1>        -0.2686
      4 H1          8.5431   -3.2862   27.9413 H       1  <1>         0.1501
      5 C2          7.0423   -4.7485   26.1168 C.ar    1  <1>         0.1107
      6 C3          7.9618   -5.5541   25.2475 C.ar    1  <1>         0.0231
      7 C4          7.6602   -5.2180   23.8171 C.ar    1  <1>         0.0186
      8 C5          6.5543   -4.2047   23.8023 C.ar    1  <1>         0.0568
      9 N2          6.1724   -3.9146   25.2236 N.ar    1  <1>        -0.3496
     10 H2          5.4735   -3.2870   25.5184 H       1  <1>         0.1661
     11 C6          5.9383   -3.5896   22.5807 C.ar    1  <1>         0.0178
     12 C7          6.6223   -3.7152   21.2517 C.ar    1  <1>         0.0015
     13 C8          6.0064   -3.1000   20.0302 C.ar    1  <1>         0.0062
     14 C9          4.7065   -2.3593   20.1377 C.ar    1  <1>         0.0988
     15 C10         4.0225   -2.2337   21.4667 C.ar    1  <1>         0.1441
     16 F1          2.7226   -1.4929   21.5742 F       1  <1>        -0.2042
     17 C11         4.6385   -2.8488   22.6882 C.ar    1  <1>         0.0310
     18 C12         4.0905   -1.7441   18.9161 C.3     1  <1>         0.4207
     19 F2          3.4746   -1.1290   17.6945 F       1  <1>        -0.1658
     20 F3          3.1383   -2.8987   18.8147 F       1  <1>        -0.1658
     21 F4          5.0427   -0.5896   19.0174 F       1  <1>        -0.1658
     22 C13         7.8728   -3.9089   29.9057 C.3     1  <1>         0.1341
     23 C14         6.8363   -3.1109   30.6397 C.ar    1  <1>         0.1071
     24 N3          6.1827   -3.4935   31.9345 N.ar    1  <1>        -0.2428
     25 C15         5.2139   -2.4092   32.3028 C.ar    1  <1>         0.0952
     26 C16         5.2686   -1.3565   31.2357 C.ar    1  <1>         0.0538
     27 S1          6.2713   -1.7902   30.2078 S.2     1  <1>        -0.0689
     28 C17         4.3431   -2.3824   33.5239 C.3     1  <1>         0.1834
     29 O2          3.4892   -3.5682   33.8624 O.3     1  <1>        -0.3760
     30 H3          2.8088   -3.6819   33.1804 H       1  <1>         0.2110
     31 N4          8.3921   -5.7440   31.6700 N.3     1  <1>        -0.3194
     32 C18         8.8671   -4.7311   30.6708 C.3     1  <1>         0.0917
     33 H4          9.1963   -6.2072   32.0931 H       1  <1>         0.1189
     34 H5          7.8086   -6.4367   31.2009 H       1  <1>         0.1189
@<TRIPOS>BOND
     1    31    32    1
     2    22    32    1
     3    22     1    1
     4     1     2   am
     5     2     3    2
     6     2     5    1
     7     5     6   ar
     8     6     7   ar
     9     7     8   ar
    10     8    11    1
    11    11    12   ar
    12    12    13   ar
    13    13    14   ar
    14    14    18    1
    15    18    19    1
    16    18    20    1
    17    18    21    1
    18    14    15   ar
    19    15    16    1
    20    15    17   ar
    21     8     9   ar
    22    22    23    1
    23    23    24   ar
    24    24    25   ar
    25    25    28    1
    26    28    29    1
    27    25    26   ar
    28    26    27   ar
    29     9     5   ar
    30    27    23   ar
    31    17    11   ar
    32    31    33    1
    33    31    34    1
    34     1     4    1
    35     9    10    1
    36    29    30    1
