@<TRIPOS>MOLECULE
*****
 24 27 0 0 0
SMALL
GASTEIGER

@<TRIPOS>ATOM
      1 O          -8.5246  -19.5104   20.6767 O.2     1  UNL1       -0.2448
      2 C          -8.9256  -18.1664   21.2087 C.2     1  UNL1        0.3428
      3 C         -10.3778  -17.8162   21.3440 C.2     1  UNL1        0.0963
      4 C         -11.2164  -17.1191   20.3140 C.2     1  UNL1        0.1049
      5 N         -12.6033  -16.9736   20.8665 N.2     1  UNL1       -0.2475
      6 C         -12.6219  -17.5808   22.2380 C.2     1  UNL1        0.0673
      7 C         -13.7136  -17.7268   23.2563 C.3     1  UNL1        0.1093
      8 C         -13.4299  -18.3936   24.5697 C.2     1  UNL1        0.1176
      9 O         -14.5216  -18.5396   25.5879 O.2     1  UNL1       -0.5094
     10 C         -12.0545  -18.9143   24.8648 C.2     1  UNL1        0.0392
     11 C         -10.9628  -18.7683   23.8465 C.2     1  UNL1        0.0386
     12 BR         -9.5873  -19.2890   24.1416 Br      1  UNL1       -0.0489
     13 C         -11.2465  -18.1015   22.5331 C.2     1  UNL1        0.0281
     14 H         -15.3807  -18.2143   25.4036 H       1  UNL1        0.2917
     15 O          -7.8743  -17.1727   21.6053 O.3     1  UNL1       -0.4454
     16 C          -8.2572  -15.9411   22.3713 C.3     1  UNL1        0.2087
     17 C          -7.8194  -15.7781   23.7967 C.3     1  UNL1        0.0445
     18 C          -8.8394  -15.7501   24.8961 C.3     1  UNL1        0.0210
     19 C          -8.4014  -15.5870   26.3215 C.3     1  UNL1        0.0722
     20 N          -6.9435  -15.4520   26.6474 N.3     1  UNL1       -0.2727
     21 C          -5.9235  -15.4800   25.5479 C.3     1  UNL1        0.0722
     22 C          -6.3614  -15.6430   24.1226 C.3     1  UNL1        0.0210
     23 C          -7.1354  -15.5392   25.8515 C.3     1  UNL1        0.0722
     24 C          -7.5312  -15.6867   24.5626 C.3     1  UNL1        0.0210
@<TRIPOS>BOND
     1     1     2    2
     2     2    15    1
     3    15    16    1
     4    16    17    1
     5    17    18    1
     6    18    19    1
     7    19    20    1
     8    20    21    1
     9    21    22    1
    10    20    23    1
    11    23    24    1
    12     2     3    1
    13     3     4    2
    14     4     5    1
    15     5     6    2
    16     6     7    1
    17     7     8    1
    18     8     9    1
    19     8    10    2
    20    10    11    1
    21    11    12    1
    22    11    13    2
    23    22    17    1
    24    13     3    1
    25    24    17    1
    26    13     6    1
    27     9    14    1
@<TRIPOS>MOLECULE
*****
 24 27 0 0 0
SMALL
GASTEIGER

@<TRIPOS>ATOM
      1 O          -8.6530  -18.8334   20.0423 O.2     1  UNL1       -0.2448
      2 C          -8.5084  -18.1575   21.3736 C.2     1  UNL1        0.3428
      3 C          -9.2414  -18.6905   22.5688 C.2     1  UNL1        0.0963
      4 C          -8.6827  -19.6236   23.6019 C.2     1  UNL1        0.1049
      5 N          -9.7579  -19.8936   24.6124 N.2     1  UNL1       -0.2475
      6 C         -10.9810  -19.1275   24.2038 C.2     1  UNL1        0.0673
      7 C         -12.3442  -19.0109   24.8187 C.3     1  UNL1        0.1093
      8 C         -13.3883  -18.1507   24.1706 C.2     1  UNL1        0.1176
      9 O         -14.7515  -18.0341   24.7855 O.2     1  UNL1       -0.5094
     10 C         -13.0691  -17.4071   22.9076 C.2     1  UNL1        0.0392
     11 C         -11.7058  -17.5237   22.2927 C.2     1  UNL1        0.0386
     12 BR        -11.3867  -16.7801   21.0297 Br      1  UNL1       -0.0489
     13 C         -10.6619  -18.3839   22.9408 C.2     1  UNL1        0.0281
     14 H         -14.9508  -18.4986   25.5744 H       1  UNL1        0.2917
     15 O          -7.6308  -16.9487   21.5096 O.3     1  UNL1       -0.4454
     16 C          -8.0812  -15.7845   22.3413 C.3     1  UNL1        0.2087
     17 C          -7.6548  -15.6778   23.7754 C.3     1  UNL1        0.0445
     18 C          -6.2182  -15.4086   24.1128 C.3     1  UNL1        0.0210
     19 C          -5.7919  -15.3019   25.5469 C.3     1  UNL1        0.0722
     20 N          -6.8021  -15.4645   26.6438 N.3     1  UNL1       -0.2727
     21 C          -8.2387  -15.7337   26.3064 C.3     1  UNL1        0.0722
     22 C          -8.6650  -15.8404   24.8723 C.3     1  UNL1        0.0210
     23 C          -7.0831  -15.5313   25.8728 C.3     1  UNL1        0.0722
     24 C          -7.4688  -15.6278   24.5760 C.3     1  UNL1        0.0210
@<TRIPOS>BOND
     1     1     2    2
     2     2    15    1
     3    15    16    1
     4    16    17    1
     5    17    18    1
     6    18    19    1
     7    19    20    1
     8    20    21    1
     9    21    22    1
    10    20    23    1
    11    23    24    1
    12     2     3    1
    13     3     4    2
    14     4     5    1
    15     5     6    2
    16     6     7    1
    17     7     8    1
    18     8     9    1
    19     8    10    2
    20    10    11    1
    21    11    12    1
    22    11    13    2
    23    22    17    1
    24    13     3    1
    25    24    17    1
    26    13     6    1
    27     9    14    1
@<TRIPOS>MOLECULE
*****
 24 27 0 0 0
SMALL
GASTEIGER

@<TRIPOS>ATOM
      1 O          -7.8243  -17.0115   21.6166 O.2     1  UNL1       -0.2448
      2 C          -8.7944  -18.1351   21.4011 C.2     1  UNL1        0.3428
      3 C         -10.2694  -17.8625   21.3989 C.2     1  UNL1        0.0963
      4 C         -11.0602  -17.2997   20.2552 C.2     1  UNL1        0.1049
      5 N         -12.4921  -17.1942   20.6894 N.2     1  UNL1       -0.2475
      6 C         -12.5863  -17.6918   22.1014 C.2     1  UNL1        0.0673
      7 C         -13.7454  -17.8221   23.0444 C.3     1  UNL1        0.1093
      8 C         -13.5308  -18.3655   24.4260 C.2     1  UNL1        0.1176
      9 O         -14.6899  -18.4959   25.3691 O.2     1  UNL1       -0.5094
     10 C         -12.1571  -18.7786   24.8645 C.2     1  UNL1        0.0392
     11 C         -10.9979  -18.6482   23.9213 C.2     1  UNL1        0.0386
     12 BR         -9.6242  -19.0612   24.3598 Br      1  UNL1       -0.0489
     13 C         -11.2125  -18.1048   22.5398 C.2     1  UNL1        0.0281
     14 H         -15.5480  -18.2379   25.0952 H       1  UNL1        0.2917
     15 O          -8.2894  -19.5313   21.1879 O.3     1  UNL1       -0.4454
     16 C          -7.1769  -20.0651   22.0409 C.3     1  UNL1        0.2087
     17 C          -5.7542  -19.9406   21.5822 C.3     1  UNL1        0.0445
     18 C          -4.7866  -19.0980   22.3591 C.3     1  UNL1        0.0210
     19 C          -3.3639  -18.9736   21.9003 C.3     1  UNL1        0.0722
     20 N          -2.9089  -19.6918   20.6645 N.3     1  UNL1       -0.2727
     21 C          -3.8765  -20.5344   19.8876 C.3     1  UNL1        0.0722
     22 C          -5.2992  -20.6588   20.3464 C.3     1  UNL1        0.0210
     23 C          -3.6983  -19.7902   20.8769 C.3     1  UNL1        0.0722
     24 C          -4.9847  -19.9028   21.2916 C.3     1  UNL1        0.0210
@<TRIPOS>BOND
     1     1     2    2
     2     2    15    1
     3    15    16    1
     4    16    17    1
     5    17    18    1
     6    18    19    1
     7    19    20    1
     8    20    21    1
     9    21    22    1
    10    20    23    1
    11    23    24    1
    12     2     3    1
    13     3     4    2
    14     4     5    1
    15     5     6    2
    16     6     7    1
    17     7     8    1
    18     8     9    1
    19     8    10    2
    20    10    11    1
    21    11    12    1
    22    11    13    2
    23    22    17    1
    24    13     3    1
    25    24    17    1
    26    13     6    1
    27     9    14    1
@<TRIPOS>MOLECULE
*****
 24 27 0 0 0
SMALL
GASTEIGER

@<TRIPOS>ATOM
      1 O          -9.1911  -20.7295   23.7091 O.2     1  UNL1       -0.2448
      2 C          -8.3785  -19.7538   22.9105 C.2     1  UNL1        0.3428
      3 C          -8.8412  -18.3344   22.7653 C.2     1  UNL1        0.0963
      4 C          -8.4810  -17.1928   23.6691 C.2     1  UNL1        0.1049
      5 N          -9.1625  -15.9602   23.1531 N.2     1  UNL1       -0.2475
      6 C          -9.9439  -16.3400   21.9303 C.2     1  UNL1        0.0673
      7 C         -10.8106  -15.5394   21.0042 C.3     1  UNL1        0.1093
      8 C         -11.4788  -16.2060   19.8384 C.2     1  UNL1        0.1176
      9 O         -12.3455  -15.4054   18.9123 O.2     1  UNL1       -0.5094
     10 C         -11.2802  -17.6734   19.5987 C.2     1  UNL1        0.0392
     11 C         -10.4135  -18.4741   20.5248 C.2     1  UNL1        0.0386
     12 BR        -10.2149  -19.9414   20.2852 Br      1  UNL1       -0.0489
     13 C          -9.7454  -17.8074   21.6906 C.2     1  UNL1        0.0281
     14 H         -12.4695  -14.4888   19.0620 H       1  UNL1        0.2917
     15 O          -7.1033  -20.1976   22.2572 O.3     1  UNL1       -0.4454
     16 C          -6.3060  -19.2297   21.4340 C.3     1  UNL1        0.2087
     17 C          -4.8212  -19.1305   21.6222 C.3     1  UNL1        0.0445
     18 C          -4.2577  -18.2269   22.6786 C.3     1  UNL1        0.0210
     19 C          -2.7729  -18.1278   22.8667 C.3     1  UNL1        0.0722
     20 N          -1.8515  -18.9323   21.9984 N.3     1  UNL1       -0.2727
     21 C          -2.4149  -19.8359   20.9421 C.3     1  UNL1        0.0722
     22 C          -3.8998  -19.9350   20.7539 C.3     1  UNL1        0.0210
     23 C          -2.6580  -19.0197   21.8581 C.3     1  UNL1        0.0722
     24 C          -4.0006  -19.1094   21.6878 C.3     1  UNL1        0.0210
@<TRIPOS>BOND
     1     1     2    2
     2     2    15    1
     3    15    16    1
     4    16    17    1
     5    17    18    1
     6    18    19    1
     7    19    20    1
     8    20    21    1
     9    21    22    1
    10    20    23    1
    11    23    24    1
    12     2     3    1
    13     3     4    2
    14     4     5    1
    15     5     6    2
    16     6     7    1
    17     7     8    1
    18     8     9    1
    19     8    10    2
    20    10    11    1
    21    11    12    1
    22    11    13    2
    23    22    17    1
    24    13     3    1
    25    24    17    1
    26    13     6    1
    27     9    14    1
@<TRIPOS>MOLECULE
*****
 24 27 0 0 0
SMALL
GASTEIGER

@<TRIPOS>ATOM
      1 O          -7.8845  -15.6221   22.2695 O.2     1  UNL1       -0.2448
      2 C          -7.8151  -17.0235   22.7997 C.2     1  UNL1        0.3428
      3 C          -7.2032  -18.1110   21.9672 C.2     1  UNL1        0.0963
      4 C          -7.9292  -18.9881   20.9907 C.2     1  UNL1        0.1049
      5 N          -6.9325  -19.9314   20.3851 N.2     1  UNL1       -0.2475
      6 C          -5.5906  -19.6373   20.9874 C.2     1  UNL1        0.0673
      7 C          -4.2379  -20.2487   20.7717 C.3     1  UNL1        0.1093
      8 C          -3.0525  -19.7349   21.5339 C.2     1  UNL1        0.1176
      9 O          -1.6999  -20.3462   21.3183 O.2     1  UNL1       -0.5094
     10 C          -3.2198  -18.6098   22.5118 C.2     1  UNL1        0.0392
     11 C          -4.5725  -17.9984   22.7274 C.2     1  UNL1        0.0386
     12 BR         -4.7398  -16.8733   23.7052 Br      1  UNL1       -0.0489
     13 C          -5.7579  -18.5122   21.9652 C.2     1  UNL1        0.0281
     14 H          -1.5954  -21.0491   20.7074 H       1  UNL1        0.2917
     15 O          -8.3577  -17.3375   24.1624 O.3     1  UNL1       -0.4454
     16 C          -9.8311  -17.5444   24.3538 C.3     1  UNL1        0.2087
     17 C         -10.7526  -17.5141   23.1707 C.3     1  UNL1        0.0445
     18 C         -11.0613  -18.7801   22.4278 C.3     1  UNL1        0.0210
     19 C         -11.9829  -18.7496   21.2447 C.3     1  UNL1        0.0722
     20 N         -12.5957  -17.4532   20.8044 N.3     1  UNL1       -0.2727
     21 C         -12.2869  -16.1872   21.5473 C.3     1  UNL1        0.0722
     22 C         -11.3654  -16.2176   22.7304 C.3     1  UNL1        0.0210
     23 C         -12.0967  -17.4202   21.4585 C.3     1  UNL1        0.0722
     24 C         -11.2634  -17.4476   22.5283 C.3     1  UNL1        0.0210
@<TRIPOS>BOND
     1     1     2    2
     2     2    15    1
     3    15    16    1
     4    16    17    1
     5    17    18    1
     6    18    19    1
     7    19    20    1
     8    20    21    1
     9    21    22    1
    10    20    23    1
    11    23    24    1
    12     2     3    1
    13     3     4    2
    14     4     5    1
    15     5     6    2
    16     6     7    1
    17     7     8    1
    18     8     9    1
    19     8    10    2
    20    10    11    1
    21    11    12    1
    22    11    13    2
    23    22    17    1
    24    13     3    1
    25    24    17    1
    26    13     6    1
    27     9    14    1
@<TRIPOS>MOLECULE
*****
 24 27 0 0 0
SMALL
GASTEIGER

@<TRIPOS>ATOM
      1 O          -8.7038  -20.1051   22.5488 O.2     1  UNL1       -0.2448
      2 C          -7.9527  -19.1478   21.6716 C.2     1  UNL1        0.3428
      3 C          -6.8270  -18.3353   22.2396 C.2     1  UNL1        0.0963
      4 C          -6.9674  -17.1134   23.0982 C.2     1  UNL1        0.1049
      5 N          -5.5904  -16.6250   23.4379 N.2     1  UNL1       -0.2475
      6 C          -4.5991  -17.5451   22.7894 C.2     1  UNL1        0.0673
      7 C          -3.0992  -17.5570   22.7775 C.3     1  UNL1        0.1093
      8 C          -2.3635  -18.6259   22.0250 C.2     1  UNL1        0.1176
      9 O          -0.8636  -18.6378   22.0132 O.2     1  UNL1       -0.5094
     10 C          -3.1278  -19.6830   21.2844 C.2     1  UNL1        0.0392
     11 C          -4.6277  -19.6711   21.2963 C.2     1  UNL1        0.0386
     12 BR         -5.3920  -20.7281   20.5556 Br      1  UNL1       -0.0489
     13 C          -5.3633  -18.6021   22.0487 C.2     1  UNL1        0.0281
     14 H          -0.3862  -17.9775   22.4758 H       1  UNL1        0.2917
     15 O          -8.3273  -19.0030   20.2263 O.3     1  UNL1       -0.4454
     16 C          -9.7508  -19.2014   19.7969 C.3     1  UNL1        0.2087
     17 C         -10.8255  -18.2955   20.3208 C.3     1  UNL1        0.0445
     18 C         -11.6501  -18.7147   21.5016 C.3     1  UNL1        0.0210
     19 C         -12.7247  -17.8087   22.0255 C.3     1  UNL1        0.0722
     20 N         -12.9747  -16.4836   21.3685 N.3     1  UNL1       -0.2727
     21 C         -12.1500  -16.0645   20.1877 C.3     1  UNL1        0.0722
     22 C         -11.0754  -16.9704   19.6639 C.3     1  UNL1        0.0210
     23 C         -12.3748  -16.9461   21.0459 C.3     1  UNL1        0.0722
     24 C         -11.4031  -17.7652   20.5721 C.3     1  UNL1        0.0210
@<TRIPOS>BOND
     1     1     2    2
     2     2    15    1
     3    15    16    1
     4    16    17    1
     5    17    18    1
     6    18    19    1
     7    19    20    1
     8    20    21    1
     9    21    22    1
    10    20    23    1
    11    23    24    1
    12     2     3    1
    13     3     4    2
    14     4     5    1
    15     5     6    2
    16     6     7    1
    17     7     8    1
    18     8     9    1
    19     8    10    2
    20    10    11    1
    21    11    12    1
    22    11    13    2
    23    22    17    1
    24    13     3    1
    25    24    17    1
    26    13     6    1
    27     9    14    1
@<TRIPOS>MOLECULE
*****
 24 27 0 0 0
SMALL
GASTEIGER

@<TRIPOS>ATOM
      1 O          -5.9339  -18.4725   19.7584 O.2     1  UNL1       -0.2448
      2 C          -6.2596  -18.8071   21.1838 C.2     1  UNL1        0.3428
      3 C          -7.3600  -18.0752   21.8935 C.2     1  UNL1        0.0963
      4 C          -7.1942  -17.1602   23.0704 C.2     1  UNL1        0.1049
      5 N          -8.5510  -16.6493   23.4550 N.2     1  UNL1       -0.2475
      6 C          -9.5554  -17.2486   22.5158 C.2     1  UNL1        0.0673
      7 C         -11.0451  -17.1057   22.4147 C.3     1  UNL1        0.1093
      8 C         -11.7988  -17.8441   21.3484 C.2     1  UNL1        0.1176
      9 O         -13.2885  -17.7012   21.2473 O.2     1  UNL1       -0.5094
     10 C         -11.0626  -18.7254   20.3833 C.2     1  UNL1        0.0392
     11 C          -9.5728  -18.8683   20.4845 C.2     1  UNL1        0.0386
     12 BR         -8.8367  -19.7496   19.5194 Br      1  UNL1       -0.0489
     13 C          -8.8192  -18.1299   21.5507 C.2     1  UNL1        0.0281
     14 H         -13.7483  -17.1507   21.8502 H       1  UNL1        0.2917
     15 O          -5.4850  -19.8737   21.8997 O.3     1  UNL1       -0.4454
     16 C          -4.1990  -19.5304   22.5914 C.3     1  UNL1        0.2087
     17 C          -3.2147  -18.6108   21.9315 C.3     1  UNL1        0.0445
     18 C          -2.3994  -19.0942   20.7690 C.3     1  UNL1        0.0210
     19 C          -1.4151  -18.1746   20.1091 C.3     1  UNL1        0.0722
     20 N          -1.2462  -16.7714   20.6119 N.3     1  UNL1       -0.2727
     21 C          -2.0615  -16.2880   21.7744 C.3     1  UNL1        0.0722
     22 C          -3.0458  -17.2076   22.4342 C.3     1  UNL1        0.0210
     23 C          -1.7980  -17.2387   21.0056 C.3     1  UNL1        0.0722
     24 C          -2.6880  -18.0702   21.6024 C.3     1  UNL1        0.0210
@<TRIPOS>BOND
     1     1     2    2
     2     2    15    1
     3    15    16    1
     4    16    17    1
     5    17    18    1
     6    18    19    1
     7    19    20    1
     8    20    21    1
     9    21    22    1
    10    20    23    1
    11    23    24    1
    12     2     3    1
    13     3     4    2
    14     4     5    1
    15     5     6    2
    16     6     7    1
    17     7     8    1
    18     8     9    1
    19     8    10    2
    20    10    11    1
    21    11    12    1
    22    11    13    2
    23    22    17    1
    24    13     3    1
    25    24    17    1
    26    13     6    1
    27     9    14    1
@<TRIPOS>MOLECULE
*****
 24 27 0 0 0
SMALL
GASTEIGER

@<TRIPOS>ATOM
      1 O          -8.0789  -16.2525   21.6326 O.2     1  UNL1       -0.2448
      2 C          -8.5106  -17.6862   21.5416 C.2     1  UNL1        0.3428
      3 C          -9.2556  -18.3188   22.6795 C.2     1  UNL1        0.0963
      4 C          -8.6797  -19.2605   23.6952 C.2     1  UNL1        0.1049
      5 N          -9.7754  -19.6445   24.6449 N.2     1  UNL1       -0.2475
      6 C         -11.0284  -18.9402   24.2161 C.2     1  UNL1        0.0673
      7 C         -12.4205  -18.9391   24.7749 C.3     1  UNL1        0.1093
      8 C         -13.4913  -18.1187   24.1189 C.2     1  UNL1        0.1176
      9 O         -14.8833  -18.1176   24.6776 O.2     1  UNL1       -0.5094
     10 C         -13.1700  -17.2994   22.9042 C.2     1  UNL1        0.0392
     11 C         -11.7779  -17.3005   22.3454 C.2     1  UNL1        0.0386
     12 BR        -11.4567  -16.4812   21.1307 Br      1  UNL1       -0.0489
     13 C         -10.7072  -18.1209   23.0014 C.2     1  UNL1        0.0281
     14 H         -15.0840  -18.6294   25.4364 H       1  UNL1        0.2917
     15 O          -8.1974  -18.4872   20.3126 O.3     1  UNL1       -0.4454
     16 C          -7.2484  -19.6460   20.3942 C.3     1  UNL1        0.2087
     17 C          -5.8075  -19.4125   20.7392 C.3     1  UNL1        0.0445
     18 C          -4.8141  -19.1209   19.6538 C.3     1  UNL1        0.0210
     19 C          -3.3731  -18.8874   19.9989 C.3     1  UNL1        0.0722
     20 N          -2.9256  -18.9454   21.4294 N.3     1  UNL1       -0.2727
     21 C          -3.9190  -19.2370   22.5148 C.3     1  UNL1        0.0722
     22 C          -5.3599  -19.4705   22.1697 C.3     1  UNL1        0.0210
     23 C          -3.7256  -19.0801   21.2892 C.3     1  UNL1        0.0722
     24 C          -5.0285  -19.2913   20.9772 C.3     1  UNL1        0.0210
@<TRIPOS>BOND
     1     1     2    2
     2     2    15    1
     3    15    16    1
     4    16    17    1
     5    17    18    1
     6    18    19    1
     7    19    20    1
     8    20    21    1
     9    21    22    1
    10    20    23    1
    11    23    24    1
    12     2     3    1
    13     3     4    2
    14     4     5    1
    15     5     6    2
    16     6     7    1
    17     7     8    1
    18     8     9    1
    19     8    10    2
    20    10    11    1
    21    11    12    1
    22    11    13    2
    23    22    17    1
    24    13     3    1
    25    24    17    1
    26    13     6    1
    27     9    14    1
@<TRIPOS>MOLECULE
*****
 24 27 0 0 0
SMALL
GASTEIGER

@<TRIPOS>ATOM
      1 O         -10.3507  -17.4016   20.3356 O.2     1  UNL1       -0.2448
      2 C          -9.3746  -18.2250   21.1225 C.2     1  UNL1        0.3428
      3 C          -9.6307  -18.5086   22.5730 C.2     1  UNL1        0.0963
      4 C         -10.3714  -19.6916   23.1226 C.2     1  UNL1        0.1049
      5 N         -10.3896  -19.5732   24.6178 N.2     1  UNL1       -0.2475
      6 C          -9.6602  -18.3171   24.9923 C.2     1  UNL1        0.0673
      7 C          -9.3625  -17.6874   26.3208 C.3     1  UNL1        0.1093
      8 C          -8.5958  -16.3997   26.3855 C.2     1  UNL1        0.1176
      9 O          -8.2981  -15.7701   27.7140 O.2     1  UNL1       -0.5094
     10 C          -8.1268  -15.7418   25.1217 C.2     1  UNL1        0.0392
     11 C          -8.4245  -16.3715   23.7932 C.2     1  UNL1        0.0386
     12 BR         -7.9555  -15.7136   22.5294 Br      1  UNL1       -0.0489
     13 C          -9.1912  -17.6591   23.7285 C.2     1  UNL1        0.0281
     14 H          -8.5911  -16.1811   28.5034 H       1  UNL1        0.2917
     15 O          -8.1423  -18.7646   20.4590 O.3     1  UNL1       -0.4454
     16 C          -7.3184  -19.8130   21.1461 C.3     1  UNL1        0.2087
     17 C          -5.8423  -19.6118   21.3204 C.3     1  UNL1        0.0445
     18 C          -4.8803  -20.2443   20.3589 C.3     1  UNL1        0.0210
     19 C          -3.4042  -20.0431   20.5333 C.3     1  UNL1        0.0722
     20 N          -2.8900  -19.2093   21.6693 N.3     1  UNL1       -0.2727
     21 C          -3.8519  -18.5768   22.6308 C.3     1  UNL1        0.0722
     22 C          -5.3281  -18.7781   22.4564 C.3     1  UNL1        0.0210
     23 C          -3.7074  -19.2912   21.6144 C.3     1  UNL1        0.0722
     24 C          -5.0422  -19.4731   21.4568 C.3     1  UNL1        0.0210
@<TRIPOS>BOND
     1     1     2    2
     2     2    15    1
     3    15    16    1
     4    16    17    1
     5    17    18    1
     6    18    19    1
     7    19    20    1
     8    20    21    1
     9    21    22    1
    10    20    23    1
    11    23    24    1
    12     2     3    1
    13     3     4    2
    14     4     5    1
    15     5     6    2
    16     6     7    1
    17     7     8    1
    18     8     9    1
    19     8    10    2
    20    10    11    1
    21    11    12    1
    22    11    13    2
    23    22    17    1
    24    13     3    1
    25    24    17    1
    26    13     6    1
    27     9    14    1
