@<TRIPOS>MOLECULE
*****
 22 24 0 0 0
SMALL
GASTEIGER

@<TRIPOS>ATOM
      1 C         -12.7063  -17.0546   23.1200 C.2     1  UNL1        0.4049
      2 O         -12.7983  -15.6393   22.6318 O.2     1  UNL1       -0.2262
      3 N         -11.4224  -17.8164   22.9740 N.am    1  UNL1       -0.2459
      4 C         -10.9636  -19.1997   23.3290 C.3     1  UNL1        0.0989
      5 C          -9.6066  -18.8937   22.7674 C.3     1  UNL1        0.0443
      6 C          -8.2498  -18.5877   22.2059 C.3     1  UNL1        0.0263
      7 C          -7.7910  -19.9710   22.5609 C.2     1  UNL1       -0.0358
      8 C          -6.5071  -20.7328   22.4149 C.2     1  UNL1        0.0411
      9 C          -9.1479  -20.2770   23.1224 C.3     1  UNL1        0.0263
     10 C         -10.0655  -17.5104   22.4125 C.3     1  UNL1        0.0989
     11 C          -5.3152  -20.0793   21.7807 C.1     1  UNL1       -0.0583
     12 C          -4.1233  -19.4257   21.1465 C.1     1  UNL1       -0.0405
     13 C          -2.9314  -18.7721   20.5122 C.ar    1  UNL1        0.1224
     14 C          -1.7533  -18.3816   21.3547 C.ar    1  UNL1        0.0276
     15 C          -0.5614  -17.7281   20.7205 C.ar    1  UNL1        0.0034
     16 C          -0.5476  -17.4650   19.2438 C.ar    1  UNL1        0.0148
     17 C          -1.7256  -17.8555   18.4013 C.ar    1  UNL1        0.0600
     18 C          -1.7117  -17.5924   16.9247 C.3     1  UNL1        0.0521
     19 N          -2.9175  -18.5090   19.0356 N.ar    1  UNL1       -0.2414
     20 O         -13.8982  -17.7081   23.7542 O.3     1  UNL1       -0.4345
     21 C         -14.7741  -18.4802   26.0752 C.3     1  UNL1        0.0513
     22 C         -13.7301  -18.5280   24.9991 C.3     1  UNL1        0.2102
@<TRIPOS>BOND
     1    21    22    1
     2    22    20    1
     3    20     1    1
     4     1     2    2
     5     1     3   am
     6     3     4    1
     7     4     5    1
     8     5     6    1
     9     6     7    1
    10     7     8    2
    11     8    11    1
    12    11    12    3
    13    12    13    1
    14    13    14   ar
    15    14    15   ar
    16    15    16   ar
    17    16    17   ar
    18    17    18    1
    19    17    19   ar
    20     7     9    1
    21     5    10    1
    22    10     3    1
    23     9     5    1
    24    19    13   ar
@<TRIPOS>MOLECULE
*****
 22 24 0 0 0
SMALL
GASTEIGER

@<TRIPOS>ATOM
      1 C           0.8988    0.3520   19.4769 C.2     1  UNL1        0.4049
      2 O          -0.1962    0.3297   20.5018 O.2     1  UNL1       -0.2262
      3 N           2.1662   -0.4137   19.7167 N.am    1  UNL1       -0.2459
      4 C           3.4391   -0.6243   18.9515 C.3     1  UNL1        0.0989
      5 C           3.9587   -1.4964   20.0559 C.3     1  UNL1        0.0443
      6 C           4.4781   -2.3685   21.1603 C.3     1  UNL1        0.0263
      7 C           5.7511   -2.5792   20.3951 C.2     1  UNL1       -0.0358
      8 C           7.0185   -3.3448   20.6349 C.2     1  UNL1        0.0411
      9 C           5.2315   -1.7071   19.2907 C.3     1  UNL1        0.0263
     10 C           2.6858   -1.2858   20.8211 C.3     1  UNL1        0.0989
     11 C           7.1908   -4.1327   21.8996 C.1     1  UNL1       -0.0583
     12 C           7.3632   -4.9205   23.1644 C.1     1  UNL1       -0.0405
     13 C           7.5356   -5.7084   24.4291 C.ar    1  UNL1        0.1224
     14 C           8.2405   -7.0321   24.3979 C.ar    1  UNL1        0.0276
     15 C           8.4129   -7.8200   25.6626 C.ar    1  UNL1        0.0034
     16 C           7.8804   -7.2842   26.9585 C.ar    1  UNL1        0.0148
     17 C           7.1756   -5.9605   26.9897 C.ar    1  UNL1        0.0600
     18 C           6.6431   -5.4247   28.2857 C.3     1  UNL1        0.0521
     19 N           7.0031   -5.1726   25.7250 N.ar    1  UNL1       -0.2414
     20 O           0.7264    1.1398   18.2122 O.3     1  UNL1       -0.4345
     21 C           1.2440    3.6848   18.2844 C.3     1  UNL1        0.0513
     22 C           0.2505    2.5610   18.2729 C.3     1  UNL1        0.2102
@<TRIPOS>BOND
     1    21    22    1
     2    22    20    1
     3    20     1    1
     4     1     2    2
     5     1     3   am
     6     3     4    1
     7     4     5    1
     8     5     6    1
     9     6     7    1
    10     7     8    2
    11     8    11    1
    12    11    12    3
    13    12    13    1
    14    13    14   ar
    15    14    15   ar
    16    15    16   ar
    17    16    17   ar
    18    17    18    1
    19    17    19   ar
    20     7     9    1
    21     5    10    1
    22    10     3    1
    23     9     5    1
    24    19    13   ar
@<TRIPOS>MOLECULE
*****
 22 24 0 0 0
SMALL
GASTEIGER

@<TRIPOS>ATOM
      1 C           3.9121   -2.6666   19.3307 C.2     1  UNL1        0.4049
      2 O           3.8187   -3.6789   20.4335 O.2     1  UNL1       -0.2262
      3 N           3.0054   -1.4716   19.3307 N.am    1  UNL1       -0.2459
      4 C           2.8107   -0.2879   18.4301 C.3     1  UNL1        0.0989
      5 C           1.7231    0.2183   19.3307 C.3     1  UNL1        0.0443
      6 C           0.6355    0.7245   20.2313 C.3     1  UNL1        0.0263
      7 C           0.4408    1.9082   19.3307 C.2     1  UNL1       -0.0358
      8 C          -0.4659    3.1032   19.3307 C.2     1  UNL1        0.0411
      9 C           1.5284    1.4020   18.4302 C.3     1  UNL1        0.0263
     10 C           1.9178   -0.9654   20.2312 C.3     1  UNL1        0.0989
     11 C          -1.4660    3.2857   20.4336 C.1     1  UNL1       -0.0583
     12 C          -2.4662    3.4684   21.5365 C.1     1  UNL1       -0.0405
     13 C          -3.4663    3.6510   22.6394 C.ar    1  UNL1        0.1224
     14 C          -3.0230    3.5918   24.0713 C.ar    1  UNL1        0.0276
     15 C          -4.0231    3.7744   25.1741 C.ar    1  UNL1        0.0034
     16 C          -5.4665    4.0161   24.8453 C.ar    1  UNL1        0.0148
     17 C          -5.9098    4.0753   23.4135 C.ar    1  UNL1        0.0600
     18 C          -7.3532    4.3171   23.0847 C.3     1  UNL1        0.0521
     19 N          -4.9097    3.8927   22.3105 N.ar    1  UNL1       -0.2414
     20 O           4.9122   -2.8492   18.2278 O.3     1  UNL1       -0.4345
     21 C           6.4978   -0.8276   17.8415 C.3     1  UNL1        0.0513
     22 C           6.2719   -2.2252   18.3374 C.3     1  UNL1        0.2102
@<TRIPOS>BOND
     1    21    22    1
     2    22    20    1
     3    20     1    1
     4     1     2    2
     5     1     3   am
     6     3     4    1
     7     4     5    1
     8     5     6    1
     9     6     7    1
    10     7     8    2
    11     8    11    1
    12    11    12    3
    13    12    13    1
    14    13    14   ar
    15    14    15   ar
    16    15    16   ar
    17    16    17   ar
    18    17    18    1
    19    17    19   ar
    20     7     9    1
    21     5    10    1
    22    10     3    1
    23     9     5    1
    24    19    13   ar
@<TRIPOS>MOLECULE
*****
 22 24 0 0 0
SMALL
GASTEIGER

@<TRIPOS>ATOM
      1 C          -1.1285    3.2060   21.7001 C.2     1  UNL1        0.4049
      2 O          -1.1530    3.7528   23.0967 O.2     1  UNL1       -0.2262
      3 N          -0.1957    2.0847   21.3499 N.am    1  UNL1       -0.2459
      4 C           0.1031    1.3031   20.1049 C.3     1  UNL1        0.0989
      5 C           1.1236    0.4990   20.8546 C.3     1  UNL1        0.0443
      6 C           2.1441   -0.3051   21.6043 C.3     1  UNL1        0.0263
      7 C           2.4428   -1.0867   20.3593 C.2     1  UNL1       -0.0358
      8 C           3.3756   -2.2079   20.0091 C.2     1  UNL1        0.0411
      9 C           1.4223   -0.2825   19.6096 C.3     1  UNL1        0.0263
     10 C           0.8248    1.2806   22.0996 C.3     1  UNL1        0.0989
     11 C           4.2840   -2.7824   21.0554 C.1     1  UNL1       -0.0583
     12 C           5.1924   -3.3568   22.1019 C.1     1  UNL1       -0.0405
     13 C           6.1007   -3.9313   23.1482 C.ar    1  UNL1        0.1224
     14 C           6.0951   -3.3671   24.5381 C.ar    1  UNL1        0.0276
     15 C           7.0035   -3.9415   25.5844 C.ar    1  UNL1        0.0034
     16 C           7.9175   -5.0802   25.2409 C.ar    1  UNL1        0.0148
     17 C           7.9231   -5.6444   23.8512 C.ar    1  UNL1        0.0600
     18 C           8.8371   -6.7831   23.5077 C.3     1  UNL1        0.0521
     19 N           7.0147   -5.0700   22.8047 N.ar    1  UNL1       -0.2414
     20 O          -2.0368    3.7804   20.6538 O.3     1  UNL1       -0.4345
     21 C          -4.4027    3.2614   21.5937 C.3     1  UNL1        0.0513
     22 C          -3.4146    3.2179   20.4659 C.3     1  UNL1        0.2102
@<TRIPOS>BOND
     1    21    22    1
     2    22    20    1
     3    20     1    1
     4     1     2    2
     5     1     3   am
     6     3     4    1
     7     4     5    1
     8     5     6    1
     9     6     7    1
    10     7     8    2
    11     8    11    1
    12    11    12    3
    13    12    13    1
    14    13    14   ar
    15    14    15   ar
    16    15    16   ar
    17    16    17   ar
    18    17    18    1
    19    17    19   ar
    20     7     9    1
    21     5    10    1
    22    10     3    1
    23     9     5    1
    24    19    13   ar
@<TRIPOS>MOLECULE
*****
 22 24 0 0 0
SMALL
GASTEIGER

@<TRIPOS>ATOM
      1 C           2.2591   -0.3830   20.5272 C.2     1  UNL1        0.4049
      2 O           1.3229    0.5422   21.2466 O.2     1  UNL1       -0.2262
      3 N           3.1970   -1.2562   21.3068 N.am    1  UNL1       -0.2459
      4 C           4.2417   -2.2726   20.9523 C.3     1  UNL1        0.0989
      5 C           4.5234   -2.4912   22.4094 C.3     1  UNL1        0.0443
      6 C           4.8051   -2.7097   23.8664 C.3     1  UNL1        0.0263
      7 C           5.8498   -3.7261   23.5119 C.2     1  UNL1       -0.0358
      8 C           6.7877   -4.5994   24.2915 C.2     1  UNL1        0.0411
      9 C           5.5681   -3.5075   22.0549 C.3     1  UNL1        0.0263
     10 C           3.4787   -1.4748   22.7639 C.3     1  UNL1        0.0989
     11 C           6.7894   -4.5475   25.7906 C.1     1  UNL1       -0.0583
     12 C           6.7911   -4.4955   27.2898 C.1     1  UNL1       -0.0405
     13 C           6.7928   -4.4437   28.7888 C.ar    1  UNL1        0.1224
     14 C           7.1208   -5.6742   29.5815 C.ar    1  UNL1        0.0276
     15 C           7.1225   -5.6223   31.0806 C.ar    1  UNL1        0.0034
     16 C           6.7963   -4.3399   31.7871 C.ar    1  UNL1        0.0148
     17 C           6.4683   -3.1094   30.9944 C.ar    1  UNL1        0.0600
     18 C           6.1421   -1.8270   31.7009 C.3     1  UNL1        0.0521
     19 N           6.4666   -3.1613   29.4953 N.ar    1  UNL1       -0.2414
     20 O           2.2574   -0.4349   19.0281 O.3     1  UNL1       -0.4345
     21 C           3.9922   -0.7048   17.1130 C.3     1  UNL1        0.0513
     22 C           3.4341    0.0871   18.2582 C.3     1  UNL1        0.2102
@<TRIPOS>BOND
     1    21    22    1
     2    22    20    1
     3    20     1    1
     4     1     2    2
     5     1     3   am
     6     3     4    1
     7     4     5    1
     8     5     6    1
     9     6     7    1
    10     7     8    2
    11     8    11    1
    12    11    12    3
    13    12    13    1
    14    13    14   ar
    15    14    15   ar
    16    15    16   ar
    17    16    17   ar
    18    17    18    1
    19    17    19   ar
    20     7     9    1
    21     5    10    1
    22    10     3    1
    23     9     5    1
    24    19    13   ar
@<TRIPOS>MOLECULE
*****
 22 24 0 0 0
SMALL
GASTEIGER

@<TRIPOS>ATOM
      1 C           4.0485   -2.7082   19.0823 C.2     1  UNL1        0.4049
      2 O           3.8941   -3.7775   20.1228 O.2     1  UNL1       -0.2262
      3 N           3.1598   -1.5001   19.1107 N.am    1  UNL1       -0.2459
      4 C           3.0203   -0.2660   18.2696 C.3     1  UNL1        0.0989
      5 C           1.9030    0.2084   19.1510 C.3     1  UNL1        0.0443
      6 C           0.7858    0.6827   20.0323 C.3     1  UNL1        0.0263
      7 C           0.6462    1.9169   19.1912 C.2     1  UNL1       -0.0358
      8 C          -0.2424    3.1249   19.2196 C.2     1  UNL1        0.0411
      9 C           1.7635    1.4425   18.3098 C.3     1  UNL1        0.0263
     10 C           2.0425   -1.0258   19.9921 C.3     1  UNL1        0.0989
     11 C          -1.2855    3.2637   20.2886 C.1     1  UNL1       -0.0583
     12 C          -2.3286    3.4026   21.3576 C.1     1  UNL1       -0.0405
     13 C          -3.3716    3.5414   22.4266 C.ar    1  UNL1        0.1224
     14 C          -4.8247    3.5807   22.0561 C.ar    1  UNL1        0.0276
     15 C          -5.8677    3.7195   23.1251 C.ar    1  UNL1        0.0034
     16 C          -5.4578    3.8189   24.5645 C.ar    1  UNL1        0.0148
     17 C          -4.0049    3.7796   24.9351 C.ar    1  UNL1        0.0600
     18 C          -3.5950    3.8790   26.3745 C.3     1  UNL1        0.0521
     19 N          -2.9617    3.6408   23.8661 N.ar    1  UNL1       -0.2414
     20 O           5.0915   -2.8470   18.0133 O.3     1  UNL1       -0.4345
     21 C           7.1271   -2.4093   19.5674 C.3     1  UNL1        0.0513
     22 C           6.4647   -2.2826   18.2275 C.3     1  UNL1        0.2102
@<TRIPOS>BOND
     1    21    22    1
     2    22    20    1
     3    20     1    1
     4     1     2    2
     5     1     3   am
     6     3     4    1
     7     4     5    1
     8     5     6    1
     9     6     7    1
    10     7     8    2
    11     8    11    1
    12    11    12    3
    13    12    13    1
    14    13    14   ar
    15    14    15   ar
    16    15    16   ar
    17    16    17   ar
    18    17    18    1
    19    17    19   ar
    20     7     9    1
    21     5    10    1
    22    10     3    1
    23     9     5    1
    24    19    13   ar
@<TRIPOS>MOLECULE
*****
 22 24 0 0 0
SMALL
GASTEIGER

@<TRIPOS>ATOM
      1 C           6.4206   -4.2034   23.6929 C.2     1  UNL1        0.4049
      2 O           6.5148   -3.8874   25.1561 O.2     1  UNL1       -0.2262
      3 N           5.4557   -3.4523   22.8240 N.am    1  UNL1       -0.2459
      4 C           5.0903   -3.4859   21.3695 C.3     1  UNL1        0.0989
      5 C           4.0910   -2.3902   21.5952 C.3     1  UNL1        0.0443
      6 C           3.0918   -1.2945   21.8210 C.3     1  UNL1        0.0263
      7 C           2.7264   -1.3280   20.3665 C.2     1  UNL1       -0.0358
      8 C           1.7615   -0.5770   19.4977 C.2     1  UNL1        0.0411
      9 C           3.7257   -2.4238   20.1408 C.3     1  UNL1        0.0263
     10 C           4.4564   -2.3566   23.0497 C.3     1  UNL1        0.0989
     11 C           0.8909    0.4900   20.0921 C.1     1  UNL1       -0.0583
     12 C           0.0202    1.5571   20.6866 C.1     1  UNL1       -0.0405
     13 C          -0.8505    2.6241   21.2811 C.ar    1  UNL1        0.1224
     14 C          -0.2785    3.5919   22.2742 C.ar    1  UNL1        0.0276
     15 C          -1.1492    4.6589   22.8687 C.ar    1  UNL1        0.0034
     16 C          -2.5918    4.7581   22.4700 C.ar    1  UNL1        0.0148
     17 C          -3.1638    3.7904   21.4769 C.ar    1  UNL1        0.0600
     18 C          -4.6064    3.8897   21.0783 C.3     1  UNL1        0.0521
     19 N          -2.2931    2.7233   20.8824 N.ar    1  UNL1       -0.2414
     20 O           7.2912   -5.2704   23.0984 O.3     1  UNL1       -0.4345
     21 C           8.8399   -7.3217   23.4775 C.3     1  UNL1        0.0513
     22 C           8.2356   -6.0411   23.9725 C.3     1  UNL1        0.2102
@<TRIPOS>BOND
     1    21    22    1
     2    22    20    1
     3    20     1    1
     4     1     2    2
     5     1     3   am
     6     3     4    1
     7     4     5    1
     8     5     6    1
     9     6     7    1
    10     7     8    2
    11     8    11    1
    12    11    12    3
    13    12    13    1
    14    13    14   ar
    15    14    15   ar
    16    15    16   ar
    17    16    17   ar
    18    17    18    1
    19    17    19   ar
    20     7     9    1
    21     5    10    1
    22    10     3    1
    23     9     5    1
    24    19    13   ar
@<TRIPOS>MOLECULE
*****
 22 24 0 0 0
SMALL
GASTEIGER

@<TRIPOS>ATOM
      1 C           1.0113    0.9674   30.0746 C.2     1  UNL1        0.4049
      2 O           2.0170   -0.0509   30.5236 O.2     1  UNL1       -0.2262
      3 N           0.8040    1.2222   28.6110 N.am    1  UNL1       -0.2459
      4 C          -0.0792    2.1298   27.8070 C.3     1  UNL1        0.0989
      5 C           0.5108    1.5825   26.5411 C.3     1  UNL1        0.0443
      6 C           1.1007    1.0351   25.2753 C.3     1  UNL1        0.0263
      7 C           0.2176    1.9428   24.4713 C.2     1  UNL1       -0.0358
      8 C           0.0103    2.1975   23.0077 C.2     1  UNL1        0.0411
      9 C          -0.3724    2.4901   25.7372 C.3     1  UNL1        0.0263
     10 C           1.3939    0.6748   27.3451 C.3     1  UNL1        0.0989
     11 C           0.8086    1.4340   21.9930 C.1     1  UNL1       -0.0583
     12 C           1.6070    0.6704   20.9783 C.1     1  UNL1       -0.0405
     13 C           2.4054   -0.0931   19.9637 C.ar    1  UNL1        0.1224
     14 C           2.9352    0.6051   18.7463 C.ar    1  UNL1        0.0276
     15 C           3.7336   -0.1584   17.7317 C.ar    1  UNL1        0.0034
     16 C           4.0022   -1.6202   17.9343 C.ar    1  UNL1        0.0148
     17 C           3.4724   -2.3185   19.1515 C.ar    1  UNL1        0.0600
     18 C           3.7410   -3.7803   19.3541 C.3     1  UNL1        0.0521
     19 N           2.6740   -1.5549   20.1663 N.ar    1  UNL1       -0.2414
     20 O           0.2129    1.7310   31.0893 O.3     1  UNL1       -0.4345
     21 C           0.1458    4.0213   32.3140 C.3     1  UNL1        0.0513
     22 C           0.8808    2.7672   31.9438 C.3     1  UNL1        0.2102
@<TRIPOS>BOND
     1    21    22    1
     2    22    20    1
     3    20     1    1
     4     1     2    2
     5     1     3   am
     6     3     4    1
     7     4     5    1
     8     5     6    1
     9     6     7    1
    10     7     8    2
    11     8    11    1
    12    11    12    3
    13    12    13    1
    14    13    14   ar
    15    14    15   ar
    16    15    16   ar
    17    16    17   ar
    18    17    18    1
    19    17    19   ar
    20     7     9    1
    21     5    10    1
    22    10     3    1
    23     9     5    1
    24    19    13   ar
@<TRIPOS>MOLECULE
*****
 22 24 0 0 0
SMALL
GASTEIGER

@<TRIPOS>ATOM
      1 C         -12.4827  -17.3680   22.5378 C.2     1  UNL1        0.4049
      2 O         -12.8707  -17.9172   21.1970 O.2     1  UNL1       -0.2262
      3 N         -11.0368  -17.1386   22.8644 N.am    1  UNL1       -0.2459
      4 C         -10.2878  -16.6216   24.0569 C.3     1  UNL1        0.0989
      5 C          -8.9919  -16.8141   23.3264 C.3     1  UNL1        0.0443
      6 C          -7.6960  -17.0067   22.5959 C.3     1  UNL1        0.0263
      7 C          -6.9470  -16.4897   23.7883 C.2     1  UNL1       -0.0358
      8 C          -5.5011  -16.2602   24.1150 C.2     1  UNL1        0.0411
      9 C          -8.2430  -16.2971   24.5188 C.3     1  UNL1        0.0263
     10 C          -9.7408  -17.3311   22.1339 C.3     1  UNL1        0.0989
     11 C          -4.4432  -16.5800   23.1008 C.1     1  UNL1       -0.0583
     12 C          -3.3853  -16.8998   22.0866 C.1     1  UNL1       -0.0405
     13 C          -2.3274  -17.2195   21.0724 C.ar    1  UNL1        0.1224
     14 C          -0.9219  -17.4972   21.5168 C.ar    1  UNL1        0.0276
     15 C           0.1360  -17.8170   20.5027 C.ar    1  UNL1        0.0034
     16 C          -0.2115  -17.8591   19.0441 C.ar    1  UNL1        0.0148
     17 C          -1.6170  -17.5814   18.5997 C.ar    1  UNL1        0.0600
     18 C          -1.9645  -17.6235   17.1411 C.3     1  UNL1        0.0521
     19 N          -2.6750  -17.2616   19.6138 N.ar    1  UNL1       -0.2414
     20 O         -13.5406  -17.0483   23.5519 O.3     1  UNL1       -0.4345
     21 C         -14.0961  -18.4566   25.6633 C.3     1  UNL1        0.0513
     22 C         -14.3089  -18.1563   24.2091 C.3     1  UNL1        0.2102
@<TRIPOS>BOND
     1    21    22    1
     2    22    20    1
     3    20     1    1
     4     1     2    2
     5     1     3   am
     6     3     4    1
     7     4     5    1
     8     5     6    1
     9     6     7    1
    10     7     8    2
    11     8    11    1
    12    11    12    3
    13    12    13    1
    14    13    14   ar
    15    14    15   ar
    16    15    16   ar
    17    16    17   ar
    18    17    18    1
    19    17    19   ar
    20     7     9    1
    21     5    10    1
    22    10     3    1
    23     9     5    1
    24    19    13   ar
