@<TRIPOS>MOLECULE
*****
 36 39 0 0 0
SMALL
GASTEIGER

@<TRIPOS>ATOM
      1 C         -11.0020  -17.6980   20.1066 C.3     1  UNL1        0.1016
      2 C         -10.7974  -16.5601   19.1509 C.3     1  UNL1        0.0247
      3 C         -11.8267  -15.4740   19.0467 C.3     1  UNL1        0.0338
      4 C         -13.0605  -15.5258   19.8982 C.3     1  UNL1        0.1422
      5 O         -13.2650  -16.6636   20.8539 O.3     1  UNL1       -0.3531
      6 C         -12.2358  -17.7497   20.9581 C.3     1  UNL1        0.1489
      7 N          -7.5642  -19.5516   20.8114 N.am    1  UNL1       -0.2485
      8 C          -8.5935  -18.4654   20.7072 C.2     1  UNL1        0.3059
      9 O          -8.2436  -17.0605   21.0993 O.2     1  UNL1       -0.2524
     10 N          -9.9726  -18.7842   20.2108 N.am    1  UNL1       -0.2878
     11 H          -7.7939  -20.4737   20.5540 H       1  UNL1        0.1583
     12 H         -10.2023  -19.7063   19.9535 H       1  UNL1        0.1510
     13 C          -3.7691  -19.0570   21.4573 C.ar    1  UNL1        0.0803
     14 S          -4.8992  -19.5546   20.6057 S.2     1  UNL1       -0.0488
     15 C          -6.1851  -19.2328   21.3077 C.ar    1  UNL1        0.1664
     16 N          -5.8497  -18.5364   22.5932 N.ar    1  UNL1       -0.2282
     17 C          -4.3566  -18.4277   22.6857 C.ar    1  UNL1        0.0701
     18 C          -3.5861  -17.7999   23.8092 C.3     1  UNL1        0.0528
     19 C          -1.5944  -18.0248   20.4798 C.3     1  UNL1        0.0779
     20 C          -2.3080  -19.1689   21.1368 C.2     1  UNL1        0.1807
     21 O          -1.5605  -20.4251   21.4733 O.2     1  UNL1       -0.2908
     22 C         -12.4403  -18.8877   21.9138 C.3     1  UNL1        0.1037
     23 N         -11.4167  -19.1705   22.9733 N.3     1  UNL1       -0.2706
     24 C         -10.7057  -20.4911   22.9957 C.3     1  UNL1        0.0722
     25 C          -9.6822  -20.7739   24.0552 C.3     1  UNL1        0.0174
     26 C          -9.3697  -19.7360   25.0922 C.3     1  UNL1        0.0031
     27 C         -10.0807  -18.4155   25.0697 C.3     1  UNL1        0.0204
     28 C         -11.1042  -18.1327   24.0102 C.3     1  UNL1        0.0725
     29 C          -9.7682  -17.3776   26.1066 C.3     1  UNL1        0.0277
     30 C          -8.4741  -16.6217   26.0450 C.ar    1  UNL1       -0.0220
     31 C          -7.7672  -16.2402   27.3119 C.ar    1  UNL1       -0.0020
     32 C          -6.4731  -15.4843   27.2502 C.ar    1  UNL1        0.0293
     33 C          -5.8858  -15.1098   25.9216 C.ar    1  UNL1        0.1401
     34 F          -4.5917  -14.3539   25.8600 F       1  UNL1       -0.2042
     35 C          -6.5926  -15.4913   24.6549 C.ar    1  UNL1        0.0293
     36 C          -7.8868  -16.2472   24.7165 C.ar    1  UNL1       -0.0020
@<TRIPOS>BOND
     1    19    20    1
     2    20    21    2
     3    20    13    1
     4    13    14   ar
     5    14    15   ar
     6    15     7    1
     7     7     8   am
     8     8     9    2
     9     8    10   am
    10     1    10    1
    11     1     2    1
    12     2     3    1
    13     3     4    1
    14     4     5    1
    15     5     6    1
    16     6    22    1
    17    22    23    1
    18    23    24    1
    19    24    25    1
    20    25    26    1
    21    26    27    1
    22    27    29    1
    23    29    30    1
    24    30    31   ar
    25    31    32   ar
    26    32    33   ar
    27    33    34    1
    28    33    35   ar
    29    35    36   ar
    30    27    28    1
    31    15    16   ar
    32    16    17   ar
    33    17    18    1
    34    17    13   ar
    35     6     1    1
    36    28    23    1
    37    36    30   ar
    38     7    11    1
    39    10    12    1
@<TRIPOS>MOLECULE
*****
 36 39 0 0 0
SMALL
GASTEIGER

@<TRIPOS>ATOM
      1 C           8.6567   -5.5119   26.7871 C.3     1  UNL1        0.1016
      2 C           8.8208   -6.9524   27.1714 C.3     1  UNL1        0.0247
      3 C           8.6322   -8.0289   26.1440 C.3     1  UNL1        0.0338
      4 C           8.2794   -7.6648   24.7323 C.3     1  UNL1        0.1422
      5 O           8.1153   -6.2242   24.3480 O.3     1  UNL1       -0.3531
      6 C           8.3039   -5.1477   25.3754 C.3     1  UNL1        0.1489
      7 N           7.8608   -2.8666   29.6367 N.am    1  UNL1       -0.2485
      8 C           7.6722   -3.9432   28.6093 C.2     1  UNL1        0.3059
      9 O           6.3104   -4.5276   28.3766 O.2     1  UNL1       -0.2524
     10 N           8.8453   -4.4353   27.8145 N.am    1  UNL1       -0.2878
     11 H           8.7546   -2.4831   29.7894 H       1  UNL1        0.1583
     12 H           9.7390   -4.0518   27.9673 H       1  UNL1        0.1510
     13 C           5.1448   -1.9716   32.2611 C.ar    1  UNL1        0.0803
     14 S           6.4226   -2.6587   31.8802 S.2     1  UNL1       -0.0488
     15 C           6.6877   -2.3745   30.4314 C.ar    1  UNL1        0.1664
     16 N           5.5736   -1.5118   29.9169 N.ar    1  UNL1       -0.2282
     17 C           4.6201   -1.2628   31.0476 C.ar    1  UNL1        0.0701
     18 C           3.3626   -0.4481   30.9774 C.3     1  UNL1        0.0528
     19 C           4.7843   -0.8869   34.5942 C.3     1  UNL1        0.0779
     20 C           4.5041   -1.9901   33.6173 C.2     1  UNL1        0.1807
     21 O           3.5834   -3.1118   33.9965 O.2     1  UNL1       -0.2908
     22 C           8.1397   -3.7071   24.9911 C.3     1  UNL1        0.1037
     23 N           6.8106   -3.2063   24.5087 N.3     1  UNL1       -0.2706
     24 C           6.0836   -2.1455   25.2810 C.3     1  UNL1        0.0722
     25 C           4.7545   -1.6447   24.7986 C.3     1  UNL1        0.0174
     26 C           4.1523   -2.2048   23.5440 C.3     1  UNL1        0.0031
     27 C           4.8793   -3.2655   22.7719 C.3     1  UNL1        0.0204
     28 C           6.2085   -3.7663   23.2543 C.3     1  UNL1        0.0725
     29 C           4.2772   -3.8256   21.5173 C.3     1  UNL1        0.0277
     30 C           4.2669   -3.0073   20.2602 C.ar    1  UNL1       -0.0220
     31 C           3.2155   -1.9567   20.0578 C.ar    1  UNL1       -0.0020
     32 C           3.2052   -1.1384   18.8007 C.ar    1  UNL1        0.0293
     33 C           4.2463   -1.3706   17.7461 C.ar    1  UNL1        0.1401
     34 F           4.2361   -0.5523   16.4890 F       1  UNL1       -0.2042
     35 C           5.2977   -2.4212   17.9486 C.ar    1  UNL1        0.0293
     36 C           5.3080   -3.2395   19.2056 C.ar    1  UNL1       -0.0020
@<TRIPOS>BOND
     1    19    20    1
     2    20    21    2
     3    20    13    1
     4    13    14   ar
     5    14    15   ar
     6    15     7    1
     7     7     8   am
     8     8     9    2
     9     8    10   am
    10     1    10    1
    11     1     2    1
    12     2     3    1
    13     3     4    1
    14     4     5    1
    15     5     6    1
    16     6    22    1
    17    22    23    1
    18    23    24    1
    19    24    25    1
    20    25    26    1
    21    26    27    1
    22    27    29    1
    23    29    30    1
    24    30    31   ar
    25    31    32   ar
    26    32    33   ar
    27    33    34    1
    28    33    35   ar
    29    35    36   ar
    30    27    28    1
    31    15    16   ar
    32    16    17   ar
    33    17    18    1
    34    17    13   ar
    35     6     1    1
    36    28    23    1
    37    36    30   ar
    38     7    11    1
    39    10    12    1
@<TRIPOS>MOLECULE
*****
 36 39 0 0 0
SMALL
GASTEIGER

@<TRIPOS>ATOM
      1 C           8.2629   -5.1105   26.3779 C.3     1  UNL1        0.1016
      2 C           8.8988   -6.3455   26.9439 C.3     1  UNL1        0.0247
      3 C           8.8541   -7.6321   26.1741 C.3     1  UNL1        0.0338
      4 C           8.1735   -7.6837   24.8384 C.3     1  UNL1        0.1422
      5 O           7.5376   -6.4487   24.2724 O.3     1  UNL1       -0.3531
      6 C           7.5823   -5.1621   25.0422 C.3     1  UNL1        0.1489
      7 N           7.2792   -2.2239   28.9178 N.am    1  UNL1       -0.2485
      8 C           7.2346   -3.5106   28.1480 C.2     1  UNL1        0.3059
      9 O           6.1170   -4.4842   28.3787 O.2     1  UNL1       -0.2524
     10 N           8.3075   -3.8238   27.1477 N.am    1  UNL1       -0.2878
     11 H           8.0127   -1.5850   28.7664 H       1  UNL1        0.1583
     12 H           9.0410   -3.1848   26.9963 H       1  UNL1        0.1510
     13 C           4.9301   -1.8146   31.9803 C.ar    1  UNL1        0.0803
     14 S           6.1822   -2.3507   31.3519 S.2     1  UNL1       -0.0488
     15 C           6.2063   -1.9108   29.9181 C.ar    1  UNL1        0.1664
     16 N           4.9691   -1.1027   29.6603 N.ar    1  UNL1       -0.2282
     17 C           4.1803   -1.0433   30.9348 C.ar    1  UNL1        0.0701
     18 C           2.8717   -0.3366   31.1295 C.3     1  UNL1        0.0528
     19 C           4.9324   -1.0399   34.4602 C.3     1  UNL1        0.0779
     20 C           4.5027   -2.0146   33.4041 C.2     1  UNL1        0.1807
     21 O           3.6456   -3.1894   33.7720 O.2     1  UNL1       -0.2908
     22 C           6.9464   -3.9270   24.4762 C.3     1  UNL1        0.1037
     23 N           6.8645   -3.7392   22.9903 N.3     1  UNL1       -0.2706
     24 C           8.1201   -3.5953   22.1822 C.3     1  UNL1        0.0722
     25 C           8.0382   -3.4075   20.6962 C.3     1  UNL1        0.0174
     26 C           6.7008   -3.3636   20.0184 C.3     1  UNL1        0.0031
     27 C           5.4453   -3.5075   20.8265 C.3     1  UNL1        0.0204
     28 C           5.5272   -3.6953   22.3124 C.3     1  UNL1        0.0725
     29 C           4.1078   -3.4635   20.1486 C.3     1  UNL1        0.0277
     30 C           3.5811   -2.1654   19.6125 C.ar    1  UNL1       -0.0220
     31 C           3.9649   -1.7119   18.2351 C.ar    1  UNL1       -0.0020
     32 C           3.4382   -0.4138   17.6990 C.ar    1  UNL1        0.0293
     33 C           2.5275    0.4308   18.5402 C.ar    1  UNL1        0.1401
     34 F           2.0008    1.7289   18.0040 F       1  UNL1       -0.2042
     35 C           2.1437   -0.0228   19.9175 C.ar    1  UNL1        0.0293
     36 C           2.6705   -1.3209   20.4536 C.ar    1  UNL1       -0.0020
@<TRIPOS>BOND
     1    19    20    1
     2    20    21    2
     3    20    13    1
     4    13    14   ar
     5    14    15   ar
     6    15     7    1
     7     7     8   am
     8     8     9    2
     9     8    10   am
    10     1    10    1
    11     1     2    1
    12     2     3    1
    13     3     4    1
    14     4     5    1
    15     5     6    1
    16     6    22    1
    17    22    23    1
    18    23    24    1
    19    24    25    1
    20    25    26    1
    21    26    27    1
    22    27    29    1
    23    29    30    1
    24    30    31   ar
    25    31    32   ar
    26    32    33   ar
    27    33    34    1
    28    33    35   ar
    29    35    36   ar
    30    27    28    1
    31    15    16   ar
    32    16    17   ar
    33    17    18    1
    34    17    13   ar
    35     6     1    1
    36    28    23    1
    37    36    30   ar
    38     7    11    1
    39    10    12    1
@<TRIPOS>MOLECULE
*****
 36 39 0 0 0
SMALL
GASTEIGER

@<TRIPOS>ATOM
      1 C          -1.5853  -16.6163   20.7185 C.3     1  UNL1        0.1016
      2 C          -0.1248  -16.6729   21.0557 C.3     1  UNL1        0.0247
      3 C           0.7432  -17.7378   20.4535 C.3     1  UNL1        0.0338
      4 C           0.1506  -18.7459   19.5140 C.3     1  UNL1        0.1422
      5 O          -1.3098  -18.6893   19.1768 O.3     1  UNL1       -0.3531
      6 C          -2.1778  -17.6244   19.7790 C.3     1  UNL1        0.1489
      7 N          -4.3748  -14.8554   22.9250 N.am    1  UNL1       -0.2485
      8 C          -3.5067  -15.9203   22.3228 C.2     1  UNL1        0.3059
      9 O          -3.6922  -17.3540   22.7227 O.2     1  UNL1       -0.2524
     10 N          -2.4533  -15.5514   21.3207 N.am    1  UNL1       -0.2878
     11 H          -4.2531  -13.9144   22.6625 H       1  UNL1        0.1583
     12 H          -2.3316  -14.6103   21.0583 H       1  UNL1        0.1510
     13 C          -7.4969  -16.0230   24.9134 C.ar    1  UNL1        0.0803
     14 S          -6.7717  -15.8148   23.6170 S.2     1  UNL1       -0.0488
     15 C          -5.4282  -15.2243   23.9271 C.ar    1  UNL1        0.1664
     16 N          -5.3230  -15.0675   25.4152 N.ar    1  UNL1       -0.2282
     17 C          -6.6016  -15.5610   26.0248 C.ar    1  UNL1        0.0701
     18 C          -6.9275  -15.5880   27.4887 C.3     1  UNL1        0.0528
     19 C          -9.9440  -16.2581   24.0729 C.3     1  UNL1        0.0779
     20 C          -8.8755  -16.5929   25.0709 C.2     1  UNL1        0.1807
     21 O          -9.1855  -17.4977   26.2265 O.2     1  UNL1       -0.2908
     22 C          -3.6384  -17.5677   19.4418 C.3     1  UNL1        0.1037
     23 N          -4.5144  -18.7577   19.6998 N.3     1  UNL1       -0.2706
     24 C          -3.8979  -20.0919   19.9996 C.3     1  UNL1        0.0722
     25 C          -4.7739  -21.2819   20.2576 C.3     1  UNL1        0.0174
     26 C          -6.2664  -21.1376   20.2157 C.3     1  UNL1        0.0031
     27 C          -6.8828  -19.8035   19.9158 C.3     1  UNL1        0.0204
     28 C          -6.0068  -18.6135   19.6579 C.3     1  UNL1        0.0725
     29 C          -8.3753  -19.6592   19.8739 C.3     1  UNL1        0.0277
     30 C          -9.1641  -19.6512   21.1497 C.ar    1  UNL1       -0.0220
     31 C         -10.6380  -19.3739   21.1185 C.ar    1  UNL1       -0.0020
     32 C         -11.4268  -19.3659   22.3943 C.ar    1  UNL1        0.0293
     33 C         -10.7418  -19.6352   23.7014 C.ar    1  UNL1        0.1401
     34 F         -11.5306  -19.6271   24.9772 F       1  UNL1       -0.2042
     35 C          -9.2680  -19.9124   23.7325 C.ar    1  UNL1        0.0293
     36 C          -8.4792  -19.9205   22.4567 C.ar    1  UNL1       -0.0020
@<TRIPOS>BOND
     1    19    20    1
     2    20    21    2
     3    20    13    1
     4    13    14   ar
     5    14    15   ar
     6    15     7    1
     7     7     8   am
     8     8     9    2
     9     8    10   am
    10     1    10    1
    11     1     2    1
    12     2     3    1
    13     3     4    1
    14     4     5    1
    15     5     6    1
    16     6    22    1
    17    22    23    1
    18    23    24    1
    19    24    25    1
    20    25    26    1
    21    26    27    1
    22    27    29    1
    23    29    30    1
    24    30    31   ar
    25    31    32   ar
    26    32    33   ar
    27    33    34    1
    28    33    35   ar
    29    35    36   ar
    30    27    28    1
    31    15    16   ar
    32    16    17   ar
    33    17    18    1
    34    17    13   ar
    35     6     1    1
    36    28    23    1
    37    36    30   ar
    38     7    11    1
    39    10    12    1
@<TRIPOS>MOLECULE
*****
 36 39 0 0 0
SMALL
GASTEIGER

@<TRIPOS>ATOM
      1 C           7.2978   -5.1357   26.5285 C.3     1  UNL1        0.1016
      2 C           7.1434   -6.6226   26.4043 C.3     1  UNL1        0.0247
      3 C           8.0875   -7.5375   27.1265 C.3     1  UNL1        0.0338
      4 C           9.1859   -6.9657   27.9729 C.3     1  UNL1        0.1422
      5 O           9.3403   -5.4788   28.0972 O.3     1  UNL1       -0.3531
      6 C           8.3962   -4.5639   27.3750 C.3     1  UNL1        0.1489
      7 N           5.3448   -3.3258   23.5857 N.am    1  UNL1       -0.2485
      8 C           6.2888   -4.2409   24.3079 C.2     1  UNL1        0.3059
      9 O           7.1679   -5.1761   23.5316 O.2     1  UNL1       -0.2524
     10 N           6.3538   -4.2207   25.8063 N.am    1  UNL1       -0.2878
     11 H           4.7678   -2.7120   24.0952 H       1  UNL1        0.1583
     12 H           5.7768   -3.6069   26.3158 H       1  UNL1        0.1510
     13 C           5.4695   -2.6856   19.7595 C.ar    1  UNL1        0.0803
     14 S           5.7103   -2.2391   21.1711 S.2     1  UNL1       -0.0488
     15 C           5.2798   -3.3460   22.0873 C.ar    1  UNL1        0.1664
     16 N           4.7729   -4.4767   21.2419 N.ar    1  UNL1       -0.2282
     17 C           4.8901   -4.0686   19.8032 C.ar    1  UNL1        0.0701
     18 C           4.4971   -4.8977   18.6167 C.3     1  UNL1        0.0528
     19 C           4.9656   -0.6500   18.2258 C.3     1  UNL1        0.0779
     20 C           5.7576   -1.8891   18.5215 C.2     1  UNL1        0.1807
     21 O           6.8375   -2.3316   17.5793 O.2     1  UNL1       -0.2908
     22 C           8.5506   -3.0770   27.4992 C.3     1  UNL1        0.1037
     23 N           7.5732   -2.2873   28.3184 N.3     1  UNL1       -0.2706
     24 C           7.0689   -0.9666   27.8169 C.3     1  UNL1        0.0722
     25 C           6.0915   -0.1769   28.6361 C.3     1  UNL1        0.0174
     26 C           5.6183   -0.7081   29.9568 C.3     1  UNL1        0.0031
     27 C           6.1225   -2.0288   30.4582 C.3     1  UNL1        0.0204
     28 C           7.1000   -2.8184   29.6390 C.3     1  UNL1        0.0725
     29 C           5.6494   -2.5599   31.7789 C.3     1  UNL1        0.0277
     30 C           5.7924   -1.7258   33.0174 C.ar    1  UNL1       -0.0220
     31 C           4.6177   -1.5301   33.9296 C.ar    1  UNL1       -0.0020
     32 C           4.7607   -0.6961   35.1681 C.ar    1  UNL1        0.0293
     33 C           6.0783   -0.0577   35.4944 C.ar    1  UNL1        0.1401
     34 F           6.2213    0.7764   36.7329 F       1  UNL1       -0.2042
     35 C           7.2529   -0.2534   34.5822 C.ar    1  UNL1        0.0293
     36 C           7.1099   -1.0875   33.3437 C.ar    1  UNL1       -0.0020
@<TRIPOS>BOND
     1    19    20    1
     2    20    21    2
     3    20    13    1
     4    13    14   ar
     5    14    15   ar
     6    15     7    1
     7     7     8   am
     8     8     9    2
     9     8    10   am
    10     1    10    1
    11     1     2    1
    12     2     3    1
    13     3     4    1
    14     4     5    1
    15     5     6    1
    16     6    22    1
    17    22    23    1
    18    23    24    1
    19    24    25    1
    20    25    26    1
    21    26    27    1
    22    27    29    1
    23    29    30    1
    24    30    31   ar
    25    31    32   ar
    26    32    33   ar
    27    33    34    1
    28    33    35   ar
    29    35    36   ar
    30    27    28    1
    31    15    16   ar
    32    16    17   ar
    33    17    18    1
    34    17    13   ar
    35     6     1    1
    36    28    23    1
    37    36    30   ar
    38     7    11    1
    39    10    12    1
@<TRIPOS>MOLECULE
*****
 36 39 0 0 0
SMALL
GASTEIGER

@<TRIPOS>ATOM
      1 C           7.3172   -3.4768   23.5769 C.3     1  UNL1        0.1016
      2 C           7.3127   -4.0926   24.9446 C.3     1  UNL1        0.0247
      3 C           7.6708   -5.5390   25.1170 C.3     1  UNL1        0.0338
      4 C           8.0333   -6.3695   23.9217 C.3     1  UNL1        0.1422
      5 O           8.0378   -5.7537   22.5540 O.3     1  UNL1       -0.3531
      6 C           7.6798   -4.3073   22.3816 C.3     1  UNL1        0.1489
      7 N           5.1610   -0.1649   23.2127 N.am    1  UNL1       -0.2485
      8 C           5.5190   -1.6113   23.3852 C.2     1  UNL1        0.3059
      9 O           4.4369   -2.6387   23.5384 O.2     1  UNL1       -0.2524
     10 N           6.9592   -2.0303   23.4044 N.am    1  UNL1       -0.2878
     11 H           5.8712    0.5094   23.1121 H       1  UNL1        0.1583
     12 H           7.6694   -1.3560   23.3038 H       1  UNL1        0.1510
     13 C           1.5214    0.9218   22.4144 C.ar    1  UNL1        0.0803
     14 S           2.9013    0.5374   21.9696 S.2     1  UNL1       -0.0488
     15 C           3.7208    0.2541   23.1935 C.ar    1  UNL1        0.1664
     16 N           2.8474    0.4634   24.3949 N.ar    1  UNL1       -0.2282
     17 C           1.4880    0.8760   23.9134 C.ar    1  UNL1        0.0701
     18 C           0.3033    1.1881   24.7789 C.3     1  UNL1        0.0528
     19 C          -0.0720    2.7158   21.4179 C.3     1  UNL1        0.0779
     20 C           0.3758    1.2877   21.5178 C.2     1  UNL1        0.1807
     21 O          -0.3219    0.2255   20.7211 O.2     1  UNL1       -0.2908
     22 C           7.6842   -3.6914   21.0138 C.3     1  UNL1        0.1037
     23 N           6.3882   -3.4216   20.3086 N.3     1  UNL1       -0.2706
     24 C           5.1866   -4.2724   20.5959 C.3     1  UNL1        0.0722
     25 C           3.8905   -4.0025   19.8907 C.3     1  UNL1        0.0174
     26 C           3.7960   -2.8818   18.8981 C.3     1  UNL1        0.0031
     27 C           4.9975   -2.0310   18.6108 C.3     1  UNL1        0.0204
     28 C           6.2936   -2.3009   19.3160 C.3     1  UNL1        0.0725
     29 C           4.9029   -0.9103   17.6182 C.3     1  UNL1        0.0277
     30 C           4.1523    0.3403   17.9683 C.ar    1  UNL1       -0.0220
     31 C           4.9010    1.6043   18.2715 C.ar    1  UNL1       -0.0020
     32 C           4.1504    2.8549   18.6216 C.ar    1  UNL1        0.0293
     33 C           2.6511    2.8415   18.6685 C.ar    1  UNL1        0.1401
     34 F           1.9005    4.0921   19.0186 F       1  UNL1       -0.2042
     35 C           1.9026    1.5775   18.3654 C.ar    1  UNL1        0.0293
     36 C           2.6532    0.3269   18.0153 C.ar    1  UNL1       -0.0020
@<TRIPOS>BOND
     1    19    20    1
     2    20    21    2
     3    20    13    1
     4    13    14   ar
     5    14    15   ar
     6    15     7    1
     7     7     8   am
     8     8     9    2
     9     8    10   am
    10     1    10    1
    11     1     2    1
    12     2     3    1
    13     3     4    1
    14     4     5    1
    15     5     6    1
    16     6    22    1
    17    22    23    1
    18    23    24    1
    19    24    25    1
    20    25    26    1
    21    26    27    1
    22    27    29    1
    23    29    30    1
    24    30    31   ar
    25    31    32   ar
    26    32    33   ar
    27    33    34    1
    28    33    35   ar
    29    35    36   ar
    30    27    28    1
    31    15    16   ar
    32    16    17   ar
    33    17    18    1
    34    17    13   ar
    35     6     1    1
    36    28    23    1
    37    36    30   ar
    38     7    11    1
    39    10    12    1
@<TRIPOS>MOLECULE
*****
 36 39 0 0 0
SMALL
GASTEIGER

@<TRIPOS>ATOM
      1 C          -2.3228    3.7099   21.2153 C.3     1  UNL1        0.1016
      2 C          -3.5132    3.2811   20.4097 C.3     1  UNL1        0.0247
      3 C          -4.8085    2.9638   21.0963 C.3     1  UNL1        0.0338
      4 C          -4.9135    3.0753   22.5884 C.3     1  UNL1        0.1422
      5 O          -3.7231    3.5040   23.3941 O.3     1  UNL1       -0.3531
      6 C          -2.4277    3.8213   22.7075 C.3     1  UNL1        0.1489
      7 N           1.2916    3.2674   19.6371 N.am    1  UNL1       -0.2485
      8 C          -0.0038    2.9501   20.3236 C.2     1  UNL1        0.3059
      9 O          -0.2756    1.5557   20.8049 O.2     1  UNL1       -0.2524
     10 N          -1.0274    4.0272   20.5288 N.am    1  UNL1       -0.2878
     11 H           1.4700    4.1826   19.3211 H       1  UNL1        0.1583
     12 H          -0.8490    4.9424   20.2129 H       1  UNL1        0.1510
     13 C           3.4479    0.2102   18.6035 C.ar    1  UNL1        0.0803
     14 S           2.2011    1.0351   18.4819 S.2     1  UNL1       -0.0488
     15 C           2.3152    2.1903   19.4319 C.ar    1  UNL1        0.1664
     16 N           3.6325    2.0793   20.1406 N.ar    1  UNL1       -0.2282
     17 C           4.3326    0.8555   19.6287 C.ar    1  UNL1        0.0701
     18 C           5.6807    0.3635   20.0652 C.3     1  UNL1        0.0528
     19 C           3.9056   -2.3469   18.5569 C.3     1  UNL1        0.0779
     20 C           3.7560   -1.0406   17.8349 C.2     1  UNL1        0.1807
     21 O           3.9146   -0.9851   16.3444 O.2     1  UNL1       -0.2908
     22 C          -1.2372    4.2501   23.5131 C.3     1  UNL1        0.1037
     23 N          -0.4253    3.2289   24.2532 N.3     1  UNL1       -0.2706
     24 C          -1.0346    2.4700   25.3947 C.3     1  UNL1        0.0722
     25 C          -0.2226    1.4487   26.1348 C.3     1  UNL1        0.0174
     26 C           1.1987    1.1864   25.7334 C.3     1  UNL1        0.0031
     27 C           1.8080    1.9453   24.5920 C.3     1  UNL1        0.0204
     28 C           0.9960    2.9665   23.8519 C.3     1  UNL1        0.0725
     29 C           3.2294    1.6830   24.1907 C.3     1  UNL1        0.0277
     30 C           3.6312    0.3240   23.6991 C.ar    1  UNL1       -0.0220
     31 C           2.8404   -0.3453   22.6143 C.ar    1  UNL1       -0.0020
     32 C           3.2422   -1.7043   22.1227 C.ar    1  UNL1        0.0293
     33 C           4.4350   -2.3940   22.7159 C.ar    1  UNL1        0.1401
     34 F           4.8368   -3.7530   22.2243 F       1  UNL1       -0.2042
     35 C           5.2258   -1.7247   23.8006 C.ar    1  UNL1        0.0293
     36 C           4.8239   -0.3657   24.2922 C.ar    1  UNL1       -0.0020
@<TRIPOS>BOND
     1    19    20    1
     2    20    21    2
     3    20    13    1
     4    13    14   ar
     5    14    15   ar
     6    15     7    1
     7     7     8   am
     8     8     9    2
     9     8    10   am
    10     1    10    1
    11     1     2    1
    12     2     3    1
    13     3     4    1
    14     4     5    1
    15     5     6    1
    16     6    22    1
    17    22    23    1
    18    23    24    1
    19    24    25    1
    20    25    26    1
    21    26    27    1
    22    27    29    1
    23    29    30    1
    24    30    31   ar
    25    31    32   ar
    26    32    33   ar
    27    33    34    1
    28    33    35   ar
    29    35    36   ar
    30    27    28    1
    31    15    16   ar
    32    16    17   ar
    33    17    18    1
    34    17    13   ar
    35     6     1    1
    36    28    23    1
    37    36    30   ar
    38     7    11    1
    39    10    12    1
@<TRIPOS>MOLECULE
*****
 36 39 0 0 0
SMALL
GASTEIGER

@<TRIPOS>ATOM
      1 C           3.7487   -0.3200   21.1169 C.3     1  UNL1        0.1016
      2 C           5.2091   -0.6395   20.9952 C.3     1  UNL1        0.0247
      3 C           5.6715   -1.6709   20.0091 C.3     1  UNL1        0.0338
      4 C           4.6734   -2.3826   19.1446 C.3     1  UNL1        0.1422
      5 O           3.2129   -2.0631   19.2664 O.3     1  UNL1       -0.3531
      6 C           2.7506   -1.0317   20.2525 C.3     1  UNL1        0.1489
      7 N           2.5035    1.3422   24.4989 N.am    1  UNL1       -0.2485
      8 C           2.9660    0.3108   23.5127 C.2     1  UNL1        0.3059
      9 O           3.1081   -1.1211   23.9362 O.2     1  UNL1       -0.2524
     10 N           3.2862    0.7114   22.1031 N.am    1  UNL1       -0.2878
     11 H           2.4102    2.2820   24.2210 H       1  UNL1        0.1583
     12 H           3.1929    1.6512   21.8252 H       1  UNL1        0.1510
     13 C           0.9866    0.5677   27.9866 C.ar    1  UNL1        0.0803
     14 S           0.8562    1.0987   26.5898 S.2     1  UNL1       -0.0488
     15 C           2.1833    0.9416   25.9084 C.ar    1  UNL1        0.1664
     16 N           3.1338    0.3136   26.8842 N.ar    1  UNL1       -0.2282
     17 C           2.3943    0.0825   28.1686 C.ar    1  UNL1        0.0701
     18 C           2.9625   -0.5268   29.4159 C.3     1  UNL1        0.0528
     19 C          -1.3364   -0.2852   28.7781 C.3     1  UNL1        0.0779
     20 C          -0.0999    0.5289   29.0200 C.2     1  UNL1        0.1807
     21 O           0.0499    1.3040   30.2954 O.2     1  UNL1       -0.2908
     22 C           1.2900   -0.7121   20.3743 C.3     1  UNL1        0.1037
     23 N           0.7875    0.6522   20.0052 N.3     1  UNL1       -0.2706
     24 C           0.9027    1.1364   18.5902 C.3     1  UNL1        0.0722
     25 C           0.4002    2.5007   18.2211 C.3     1  UNL1        0.0174
     26 C          -0.2174    3.3807   19.2671 C.3     1  UNL1        0.0031
     27 C          -0.3326    2.8965   20.6820 C.3     1  UNL1        0.0204
     28 C           0.1699    1.5322   21.0511 C.3     1  UNL1        0.0725
     29 C          -0.9502    3.7766   21.7280 C.3     1  UNL1        0.0277
     30 C          -2.4265    3.7122   21.9861 C.ar    1  UNL1       -0.0220
     31 C          -2.9459    3.7812   23.3916 C.ar    1  UNL1       -0.0020
     32 C          -4.4221    3.7167   23.6496 C.ar    1  UNL1        0.0293
     33 C          -5.3790    3.5833   22.5021 C.ar    1  UNL1        0.1401
     34 F          -6.8552    3.5189   22.7601 F       1  UNL1       -0.2042
     35 C          -4.8595    3.5144   21.0966 C.ar    1  UNL1        0.0293
     36 C          -3.3833    3.5788   20.8386 C.ar    1  UNL1       -0.0020
@<TRIPOS>BOND
     1    19    20    1
     2    20    21    2
     3    20    13    1
     4    13    14   ar
     5    14    15   ar
     6    15     7    1
     7     7     8   am
     8     8     9    2
     9     8    10   am
    10     1    10    1
    11     1     2    1
    12     2     3    1
    13     3     4    1
    14     4     5    1
    15     5     6    1
    16     6    22    1
    17    22    23    1
    18    23    24    1
    19    24    25    1
    20    25    26    1
    21    26    27    1
    22    27    29    1
    23    29    30    1
    24    30    31   ar
    25    31    32   ar
    26    32    33   ar
    27    33    34    1
    28    33    35   ar
    29    35    36   ar
    30    27    28    1
    31    15    16   ar
    32    16    17   ar
    33    17    18    1
    34    17    13   ar
    35     6     1    1
    36    28    23    1
    37    36    30   ar
    38     7    11    1
    39    10    12    1
@<TRIPOS>MOLECULE
*****
 36 39 0 0 0
SMALL
GASTEIGER

@<TRIPOS>ATOM
      1 C          -2.6418    3.9794   23.5805 C.3     1  UNL1        0.1016
      2 C          -4.0681    3.7976   24.0078 C.3     1  UNL1        0.0247
      3 C          -5.0786    3.2598   23.0385 C.3     1  UNL1        0.0338
      4 C          -4.6628    2.9037   21.6419 C.3     1  UNL1        0.1422
      5 O          -3.2365    3.0854   21.2147 O.3     1  UNL1       -0.3531
      6 C          -2.2260    3.6233   22.1840 C.3     1  UNL1        0.1489
      7 N           0.1771    4.1129   26.3710 N.am    1  UNL1       -0.2485
      8 C          -0.8335    3.5750   25.4016 C.2     1  UNL1        0.3059
      9 O          -1.0462    2.0948   25.2842 O.2     1  UNL1       -0.2524
     10 N          -1.6313    4.5173   24.5499 N.am    1  UNL1       -0.2878
     11 H           0.3167    5.0844   26.4481 H       1  UNL1        0.1583
     12 H          -1.4916    5.4888   24.6270 H       1  UNL1        0.1510
     13 C           1.6693    1.7453   29.0604 C.ar    1  UNL1        0.0803
     14 S           0.5810    2.6568   28.5758 S.2     1  UNL1       -0.0488
     15 C           0.9749    3.1706   27.2227 C.ar    1  UNL1        0.1664
     16 N           2.3066    2.5766   26.8710 N.ar    1  UNL1       -0.2282
     17 C           2.7359    1.6957   28.0067 C.ar    1  UNL1        0.0701
     18 C           4.0081    0.9043   28.0765 C.3     1  UNL1        0.0528
     19 C           1.6577    1.7779   31.6582 C.3     1  UNL1        0.0779
     20 C           1.6879    1.0120   30.3688 C.2     1  UNL1        0.1807
     21 O           1.7367   -0.4870   30.3879 O.2     1  UNL1       -0.2908
     22 C          -0.7996    3.8051   21.7568 C.3     1  UNL1        0.1037
     23 N          -0.2210    2.9314   20.6836 N.3     1  UNL1       -0.2706
     24 C          -0.0027    3.4815   19.3052 C.3     1  UNL1        0.0722
     25 C           0.5759    2.6078   18.2320 C.3     1  UNL1        0.0174
     26 C           0.9362    1.1840   18.5371 C.3     1  UNL1        0.0031
     27 C           0.7179    0.6339   19.9154 C.3     1  UNL1        0.0204
     28 C           0.1393    1.5076   20.9886 C.3     1  UNL1        0.0725
     29 C           1.0783   -0.7899   20.2205 C.3     1  UNL1        0.0277
     30 C           2.5096   -1.1650   20.4668 C.ar    1  UNL1       -0.0220
     31 C           3.3974   -1.5328   19.3150 C.ar    1  UNL1       -0.0020
     32 C           4.8287   -1.9079   19.5613 C.ar    1  UNL1        0.0293
     33 C           5.3722   -1.9153   20.9594 C.ar    1  UNL1        0.1401
     34 F           6.8035   -2.2904   21.2057 F       1  UNL1       -0.2042
     35 C           4.4844   -1.5475   22.1111 C.ar    1  UNL1        0.0293
     36 C           3.0531   -1.1724   21.8648 C.ar    1  UNL1       -0.0020
@<TRIPOS>BOND
     1    19    20    1
     2    20    21    2
     3    20    13    1
     4    13    14   ar
     5    14    15   ar
     6    15     7    1
     7     7     8   am
     8     8     9    2
     9     8    10   am
    10     1    10    1
    11     1     2    1
    12     2     3    1
    13     3     4    1
    14     4     5    1
    15     5     6    1
    16     6    22    1
    17    22    23    1
    18    23    24    1
    19    24    25    1
    20    25    26    1
    21    26    27    1
    22    27    29    1
    23    29    30    1
    24    30    31   ar
    25    31    32   ar
    26    32    33   ar
    27    33    34    1
    28    33    35   ar
    29    35    36   ar
    30    27    28    1
    31    15    16   ar
    32    16    17   ar
    33    17    18    1
    34    17    13   ar
    35     6     1    1
    36    28    23    1
    37    36    30   ar
    38     7    11    1
    39    10    12    1
