@<TRIPOS>MOLECULE
*****
 24 27 0 0 0
SMALL
GASTEIGER

@<TRIPOS>ATOM
      1 C          -2.4846  -18.6304   21.4305 C.2     1  UNL1        0.1352
      2 C          -2.4508  -17.7045   22.6100 C.2     1  UNL1        0.0355
      3 C          -3.7319  -17.2576   23.2497 C.2     1  UNL1        0.0216
      4 C          -5.0468  -17.7367   22.7097 C.2     1  UNL1        0.0793
      5 N          -6.4617  -17.4683   23.1289 N.2     1  UNL1       -0.2439
      6 C          -7.3700  -18.2283   22.2084 C.2     1  UNL1        0.1050
      7 C          -6.5164  -18.9665   21.2203 C.2     1  UNL1        0.0938
      8 C          -5.0805  -18.6627   21.5301 C.2     1  UNL1        0.0251
      9 C          -3.7994  -19.1095   20.8905 C.3     1  UNL1        0.1600
     10 CL         -3.8332  -20.0355   19.7109 Cl      1  UNL1       -0.1019
     11 C          -0.4595  -18.1511   19.8751 C.3     1  UNL1        0.2520
     12 O          -1.2035  -19.0773   20.7908 O.2     1  UNL1       -0.4741
     13 C          -7.0117  -19.8529   20.1162 C.2     1  UNL1        0.3425
     14 O          -6.5330  -21.2713   20.0213 O.2     1  UNL1       -0.2448
     15 O          -7.9857  -19.3210   19.1071 O.3     1  UNL1       -0.4454
     16 C          -9.4194  -19.7603   19.1446 C.3     1  UNL1        0.2087
     17 C         -10.3627  -19.1574   20.1430 C.3     1  UNL1        0.0445
     18 C         -11.0972  -17.8921   19.8116 C.3     1  UNL1        0.0210
     19 C         -12.0406  -17.2892   20.8099 C.3     1  UNL1        0.0722
     20 N         -12.2494  -17.9515   22.1396 N.3     1  UNL1       -0.2727
     21 C         -11.5149  -19.2167   22.4709 C.3     1  UNL1        0.0722
     22 C         -10.5715  -19.8197   21.4725 C.3     1  UNL1        0.0210
     23 C         -11.7223  -18.3193   21.6249 C.3     1  UNL1        0.0722
     24 C         -10.8693  -18.8644   20.7221 C.3     1  UNL1        0.0210
@<TRIPOS>BOND
     1    11    12    1
     2    12     1    1
     3     1     2    2
     4     2     3    1
     5     3     4    2
     6     4     5    1
     7     5     6    2
     8     6     7    1
     9     7    13    1
    10    13    14    2
    11    13    15    1
    12    15    16    1
    13    16    17    1
    14    17    18    1
    15    18    19    1
    16    19    20    1
    17    20    21    1
    18    21    22    1
    19    20    23    1
    20    23    24    1
    21     7     8    2
    22     8     9    1
    23     9    10    1
    24     9     1    1
    25     8     4    1
    26    22    17    1
    27    24    17    1
@<TRIPOS>MOLECULE
*****
 24 27 0 0 0
SMALL
GASTEIGER

@<TRIPOS>ATOM
      1 C         -11.1017  -18.4487   22.4881 C.2     1  UNL1        0.1352
      2 C         -11.7934  -18.7637   21.1950 C.2     1  UNL1        0.0355
      3 C         -10.9869  -19.0899   19.9730 C.2     1  UNL1        0.0216
      4 C          -9.4887  -19.1012   20.0443 C.2     1  UNL1        0.0793
      5 N          -8.4370  -19.3839   19.0128 N.2     1  UNL1       -0.2439
      6 C          -7.0952  -19.2436   19.6685 C.2     1  UNL1        0.1050
      7 C          -7.3176  -18.8743   21.1052 C.2     1  UNL1        0.0938
      8 C          -8.7969  -18.7863   21.3374 C.2     1  UNL1        0.0251
      9 C          -9.6034  -18.4600   22.5593 C.3     1  UNL1        0.1600
     10 CL         -8.9117  -18.1451   23.8525 Cl      1  UNL1       -0.1019
     11 C         -13.3880  -17.9055   23.5961 C.3     1  UNL1        0.2520
     12 O         -11.9081  -18.1225   23.7101 O.2     1  UNL1       -0.4741
     13 C          -6.2485  -18.6350   22.1297 C.2     1  UNL1        0.3425
     14 O          -6.1098  -17.2844   22.7675 O.2     1  UNL1       -0.2448
     15 O          -5.3181  -19.7462   22.5164 O.3     1  UNL1       -0.4454
     16 C          -3.8510  -19.4758   22.6723 C.3     1  UNL1        0.2087
     17 C          -3.1105  -18.7199   21.6092 C.3     1  UNL1        0.0445
     18 C          -3.0622  -19.2511   20.2071 C.3     1  UNL1        0.0210
     19 C          -2.3217  -18.4952   19.1439 C.3     1  UNL1        0.0722
     20 N          -1.6295  -17.2083   19.4828 N.3     1  UNL1       -0.2727
     21 C          -1.6778  -16.6772   20.8847 C.3     1  UNL1        0.0722
     22 C          -2.4183  -17.4330   21.9480 C.3     1  UNL1        0.0210
     23 C          -2.0227  -17.5871   20.0991 C.3     1  UNL1        0.0722
     24 C          -2.6923  -18.2706   21.0604 C.3     1  UNL1        0.0210
@<TRIPOS>BOND
     1    11    12    1
     2    12     1    1
     3     1     2    2
     4     2     3    1
     5     3     4    2
     6     4     5    1
     7     5     6    2
     8     6     7    1
     9     7    13    1
    10    13    14    2
    11    13    15    1
    12    15    16    1
    13    16    17    1
    14    17    18    1
    15    18    19    1
    16    19    20    1
    17    20    21    1
    18    21    22    1
    19    20    23    1
    20    23    24    1
    21     7     8    2
    22     8     9    1
    23     9    10    1
    24     9     1    1
    25     8     4    1
    26    22    17    1
    27    24    17    1
@<TRIPOS>MOLECULE
*****
 24 27 0 0 0
SMALL
GASTEIGER

@<TRIPOS>ATOM
      1 C          -6.8104  -17.7157   22.3838 C.2     1  UNL1        0.1352
      2 C          -6.2219  -19.0180   21.9283 C.2     1  UNL1        0.0355
      3 C          -6.9730  -19.8825   20.9595 C.2     1  UNL1        0.0216
      4 C          -8.3127  -19.4446   20.4463 C.2     1  UNL1        0.0793
      5 N          -9.2789  -20.0813   19.4917 N.2     1  UNL1       -0.2439
      6 C         -10.4645  -19.1724   19.3573 C.2     1  UNL1        0.1050
      7 C         -10.2312  -17.9740   20.2288 C.2     1  UNL1        0.0938
      8 C          -8.9012  -18.1422   20.9018 C.2     1  UNL1        0.0251
      9 C          -8.1501  -17.2778   21.8705 C.3     1  UNL1        0.1600
     10 CL         -8.7386  -15.9754   22.3261 Cl      1  UNL1       -0.1019
     11 C          -4.5838  -17.0441   23.5419 C.3     1  UNL1        0.2520
     12 O          -6.0592  -16.8512   23.3526 O.2     1  UNL1       -0.4741
     13 C         -11.1640  -16.8115   20.3976 C.2     1  UNL1        0.3425
     14 O         -11.1555  -15.6921   19.3992 O.2     1  UNL1       -0.2448
     15 O         -12.1052  -16.7684   21.5647 O.3     1  UNL1       -0.4454
     16 C         -12.4687  -18.0345   22.2821 C.3     1  UNL1        0.2087
     17 C         -11.4828  -18.6806   23.2097 C.3     1  UNL1        0.0445
     18 C         -11.0360  -20.0915   22.9648 C.3     1  UNL1        0.0210
     19 C         -10.0500  -20.7377   23.8923 C.3     1  UNL1        0.0722
     20 N          -9.5108  -19.9730   25.0648 N.3     1  UNL1       -0.2727
     21 C          -9.9575  -18.5621   25.3096 C.3     1  UNL1        0.0722
     22 C         -10.9435  -17.9160   24.3821 C.3     1  UNL1        0.0210
     23 C         -10.0492  -19.5767   24.5841 C.3     1  UNL1        0.0722
     24 C         -10.9408  -18.9925   23.7453 C.3     1  UNL1        0.0210
@<TRIPOS>BOND
     1    11    12    1
     2    12     1    1
     3     1     2    2
     4     2     3    1
     5     3     4    2
     6     4     5    1
     7     5     6    2
     8     6     7    1
     9     7    13    1
    10    13    14    2
    11    13    15    1
    12    15    16    1
    13    16    17    1
    14    17    18    1
    15    18    19    1
    16    19    20    1
    17    20    21    1
    18    21    22    1
    19    20    23    1
    20    23    24    1
    21     7     8    2
    22     8     9    1
    23     9    10    1
    24     9     1    1
    25     8     4    1
    26    22    17    1
    27    24    17    1
@<TRIPOS>MOLECULE
*****
 24 27 0 0 0
SMALL
GASTEIGER

@<TRIPOS>ATOM
      1 C          -3.3716  -19.3656   21.4769 C.2     1  UNL1        0.1352
      2 C          -3.6385  -20.4114   20.4354 C.2     1  UNL1        0.0355
      3 C          -5.0428  -20.6724   19.9771 C.2     1  UNL1        0.0216
      4 C          -6.1801  -19.8875   20.5606 C.2     1  UNL1        0.0793
      5 N          -7.6582  -19.9231   20.3075 N.2     1  UNL1       -0.2439
      6 C          -8.3048  -18.8992   21.1926 C.2     1  UNL1        0.1050
      7 C          -7.2263  -18.2308   21.9928 C.2     1  UNL1        0.0938
      8 C          -5.9132  -18.8417   21.6022 C.2     1  UNL1        0.0251
      9 C          -4.5089  -18.5807   22.0603 C.3     1  UNL1        0.1600
     10 CL         -4.2420  -17.5348   23.1019 Cl      1  UNL1       -0.1019
     11 C          -1.0703  -18.2104   21.1315 C.3     1  UNL1        0.2520
     12 O          -1.9673  -19.1045   21.9351 O.2     1  UNL1       -0.4741
     13 C          -7.4260  -17.1427   23.0058 C.2     1  UNL1        0.3425
     14 O          -6.5871  -15.9005   22.9473 O.2     1  UNL1       -0.2448
     15 O          -8.4644  -17.2967   24.0772 O.3     1  UNL1       -0.4454
     16 C          -9.7193  -16.4764   24.0287 C.3     1  UNL1        0.2087
     17 C         -10.7334  -16.7200   22.9506 C.3     1  UNL1        0.0445
     18 C         -10.6175  -16.0054   21.6368 C.3     1  UNL1        0.0210
     19 C         -11.6315  -16.2489   20.5586 C.3     1  UNL1        0.0722
     20 N         -12.7615  -17.2070   20.7943 N.3     1  UNL1       -0.2727
     21 C         -12.8773  -17.9215   22.1080 C.3     1  UNL1        0.0722
     22 C         -11.8633  -17.6780   23.1862 C.3     1  UNL1        0.0210
     23 C         -12.2301  -17.1061   21.4151 C.3     1  UNL1        0.0722
     24 C         -11.3131  -16.8858   22.3900 C.3     1  UNL1        0.0210
@<TRIPOS>BOND
     1    11    12    1
     2    12     1    1
     3     1     2    2
     4     2     3    1
     5     3     4    2
     6     4     5    1
     7     5     6    2
     8     6     7    1
     9     7    13    1
    10    13    14    2
    11    13    15    1
    12    15    16    1
    13    16    17    1
    14    17    18    1
    15    18    19    1
    16    19    20    1
    17    20    21    1
    18    21    22    1
    19    20    23    1
    20    23    24    1
    21     7     8    2
    22     8     9    1
    23     9    10    1
    24     9     1    1
    25     8     4    1
    26    22    17    1
    27    24    17    1
@<TRIPOS>MOLECULE
*****
 24 27 0 0 0
SMALL
GASTEIGER

@<TRIPOS>ATOM
      1 C         -12.0173  -17.4304   20.8526 C.2     1  UNL1        0.1352
      2 C         -13.1878  -17.4981   21.7881 C.2     1  UNL1        0.0355
      3 C         -13.0085  -18.0379   23.1761 C.2     1  UNL1        0.0216
      4 C         -11.6585  -18.5099   23.6286 C.2     1  UNL1        0.0793
      5 N         -11.1806  -19.0864   24.9282 N.2     1  UNL1       -0.2439
      6 C          -9.7145  -19.3749   24.7960 C.2     1  UNL1        0.1050
      7 C          -9.2865  -18.9768   23.4146 C.2     1  UNL1        0.0938
      8 C         -10.4879  -18.4422   22.6931 C.2     1  UNL1        0.0251
      9 C         -10.6673  -17.9024   21.3051 C.3     1  UNL1        0.1600
     10 CL         -9.4967  -17.8346   20.3696 Cl      1  UNL1       -0.1019
     11 C         -11.7043  -15.5149   19.1255 C.3     1  UNL1        0.2520
     12 O         -12.1966  -16.8906   19.4646 O.2     1  UNL1       -0.4741
     13 C          -7.9003  -19.0929   22.8533 C.2     1  UNL1        0.3425
     14 O          -7.3607  -20.4359   22.4596 O.2     1  UNL1       -0.2448
     15 O          -7.0538  -17.8659   22.6857 O.3     1  UNL1       -0.4454
     16 C          -7.5634  -16.5340   23.1505 C.3     1  UNL1        0.2087
     17 C          -7.2659  -16.0612   24.5426 C.3     1  UNL1        0.0445
     18 C          -5.8832  -15.6014   24.8989 C.3     1  UNL1        0.0210
     19 C          -5.5856  -15.1286   26.2910 C.3     1  UNL1        0.0722
     20 N          -6.6706  -15.1157   27.3268 N.3     1  UNL1       -0.2727
     21 C          -8.0532  -15.5755   26.9704 C.3     1  UNL1        0.0722
     22 C          -8.3508  -16.0483   25.5783 C.3     1  UNL1        0.0210
     23 C          -6.8816  -15.3834   26.5772 C.3     1  UNL1        0.0722
     24 C          -7.1507  -15.8109   25.3185 C.3     1  UNL1        0.0210
@<TRIPOS>BOND
     1    11    12    1
     2    12     1    1
     3     1     2    2
     4     2     3    1
     5     3     4    2
     6     4     5    1
     7     5     6    2
     8     6     7    1
     9     7    13    1
    10    13    14    2
    11    13    15    1
    12    15    16    1
    13    16    17    1
    14    17    18    1
    15    18    19    1
    16    19    20    1
    17    20    21    1
    18    21    22    1
    19    20    23    1
    20    23    24    1
    21     7     8    2
    22     8     9    1
    23     9    10    1
    24     9     1    1
    25     8     4    1
    26    22    17    1
    27    24    17    1
@<TRIPOS>MOLECULE
*****
 24 27 0 0 0
SMALL
GASTEIGER

@<TRIPOS>ATOM
      1 C          -8.2002  -16.2937   24.7272 C.2     1  UNL1        0.1352
      2 C          -8.7887  -16.9597   25.9354 C.2     1  UNL1        0.0355
      3 C          -9.6468  -18.1797   25.7761 C.2     1  UNL1        0.0216
      4 C          -9.9163  -18.7337   24.4085 C.2     1  UNL1        0.0793
      5 N         -10.7172  -19.9136   23.9434 N.2     1  UNL1       -0.2439
      6 C         -10.6237  -19.9767   22.4477 C.2     1  UNL1        0.1050
      7 C          -9.7649  -18.8359   21.9883 C.2     1  UNL1        0.0938
      8 C          -9.3277  -18.0676   23.2002 C.2     1  UNL1        0.0251
      9 C          -8.4697  -16.8476   23.3595 C.3     1  UNL1        0.1600
     10 CL         -7.8811  -16.1816   22.1512 Cl      1  UNL1       -0.1019
     11 C          -5.9494  -15.2019   25.4283 C.3     1  UNL1        0.2520
     12 O          -7.3422  -15.0736   24.8865 O.2     1  UNL1       -0.4741
     13 C          -9.4064  -18.5190   20.5667 C.2     1  UNL1        0.3425
     14 O         -10.4037  -17.8405   19.6751 O.2     1  UNL1       -0.2448
     15 O          -8.0505  -18.8806   20.0367 O.3     1  UNL1       -0.4454
     16 C          -7.2621  -19.9813   20.6822 C.3     1  UNL1        0.2087
     17 C          -5.8340  -19.7485   21.0775 C.3     1  UNL1        0.0445
     18 C          -4.7227  -20.2840   20.2238 C.3     1  UNL1        0.0210
     19 C          -3.2946  -20.0513   20.6191 C.3     1  UNL1        0.0722
     20 N          -2.9776  -19.2832   21.8680 N.3     1  UNL1       -0.2727
     21 C          -4.0888  -18.7478   22.7215 C.3     1  UNL1        0.0722
     22 C          -5.5169  -18.9805   22.3263 C.3     1  UNL1        0.0210
     23 C          -3.7755  -19.3853   21.6923 C.3     1  UNL1        0.0722
     24 C          -5.0669  -19.5958   21.3348 C.3     1  UNL1        0.0210
@<TRIPOS>BOND
     1    11    12    1
     2    12     1    1
     3     1     2    2
     4     2     3    1
     5     3     4    2
     6     4     5    1
     7     5     6    2
     8     6     7    1
     9     7    13    1
    10    13    14    2
    11    13    15    1
    12    15    16    1
    13    16    17    1
    14    17    18    1
    15    18    19    1
    16    19    20    1
    17    20    21    1
    18    21    22    1
    19    20    23    1
    20    23    24    1
    21     7     8    2
    22     8     9    1
    23     9    10    1
    24     9     1    1
    25     8     4    1
    26    22    17    1
    27    24    17    1
@<TRIPOS>MOLECULE
*****
 24 27 0 0 0
SMALL
GASTEIGER

@<TRIPOS>ATOM
      1 C          -7.1171  -15.5623   24.4568 C.2     1  UNL1        0.1352
      2 C          -8.5146  -15.2110   24.8730 C.2     1  UNL1        0.0355
      3 C          -9.6781  -15.9755   24.3147 C.2     1  UNL1        0.0216
      4 C          -9.4440  -17.0915   23.3401 C.2     1  UNL1        0.0793
      5 N         -10.3862  -18.0155   22.6271 N.2     1  UNL1       -0.2439
      6 C          -9.5709  -18.9379   21.7701 C.2     1  UNL1        0.1050
      7 C          -8.1248  -18.5841   21.9536 C.2     1  UNL1        0.0938
      8 C          -8.0464  -17.4429   22.9239 C.2     1  UNL1        0.0251
      9 C          -6.8829  -16.6783   23.4823 C.3     1  UNL1        0.1600
     10 CL         -5.4853  -17.0297   23.0660 Cl      1  UNL1       -0.1019
     11 C          -5.1899  -15.3431   26.1854 C.3     1  UNL1        0.2520
     12 O          -5.9535  -14.7978   25.0151 O.2     1  UNL1       -0.4741
     13 C          -6.9615  -19.2538   21.2842 C.2     1  UNL1        0.3425
     14 O          -6.4840  -20.5900   21.7705 O.2     1  UNL1       -0.2448
     15 O          -6.2756  -18.5873   20.1286 O.3     1  UNL1       -0.4454
     16 C          -5.0943  -19.2436   19.4778 C.3     1  UNL1        0.2087
     17 C          -3.7057  -18.9203   19.9436 C.3     1  UNL1        0.0445
     18 C          -2.8118  -18.0621   19.0982 C.3     1  UNL1        0.0210
     19 C          -1.4231  -17.7387   19.5640 C.3     1  UNL1        0.0722
     20 N          -0.9283  -18.2735   20.8752 N.3     1  UNL1       -0.2727
     21 C          -1.8221  -19.1317   21.7206 C.3     1  UNL1        0.0722
     22 C          -3.2108  -19.4551   21.2548 C.3     1  UNL1        0.0210
     23 C          -1.6969  -18.4778   20.6619 C.3     1  UNL1        0.0722
     24 C          -2.9526  -18.7701   20.2407 C.3     1  UNL1        0.0210
@<TRIPOS>BOND
     1    11    12    1
     2    12     1    1
     3     1     2    2
     4     2     3    1
     5     3     4    2
     6     4     5    1
     7     5     6    2
     8     6     7    1
     9     7    13    1
    10    13    14    2
    11    13    15    1
    12    15    16    1
    13    16    17    1
    14    17    18    1
    15    18    19    1
    16    19    20    1
    17    20    21    1
    18    21    22    1
    19    20    23    1
    20    23    24    1
    21     7     8    2
    22     8     9    1
    23     9    10    1
    24     9     1    1
    25     8     4    1
    26    22    17    1
    27    24    17    1
@<TRIPOS>MOLECULE
*****
 24 27 0 0 0
SMALL
GASTEIGER

@<TRIPOS>ATOM
      1 C          -6.6608  -20.0684   20.6611 C.2     1  UNL1        0.1352
      2 C          -5.8575  -21.0152   19.8196 C.2     1  UNL1        0.0355
      3 C          -4.3624  -21.0404   19.9382 C.2     1  UNL1        0.0216
      4 C          -3.6706  -20.1186   20.8983 C.2     1  UNL1        0.0793
      5 N          -2.2216  -19.9189   21.2306 N.2     1  UNL1       -0.2439
      6 C          -2.1294  -18.8486   22.2774 C.2     1  UNL1        0.1050
      7 C          -3.5214  -18.3869   22.5922 C.2     1  UNL1        0.0938
      8 C          -4.4740  -19.1718   21.7398 C.2     1  UNL1        0.0251
      9 C          -5.9690  -19.1467   21.6212 C.3     1  UNL1        0.1600
     10 CL         -6.7724  -18.1998   22.4627 Cl      1  UNL1       -0.1019
     11 C          -8.8001  -19.5404   19.2847 C.3     1  UNL1        0.2520
     12 O          -8.1559  -20.0433   20.5425 O.2     1  UNL1       -0.4741
     13 C          -3.8952  -17.3264   23.5850 C.2     1  UNL1        0.3425
     14 O          -3.6618  -17.5540   25.0491 O.2     1  UNL1       -0.2448
     15 O          -4.5023  -16.0383   23.1137 O.3     1  UNL1       -0.4454
     16 C          -4.9344  -15.0039   24.1103 C.3     1  UNL1        0.2087
     17 C          -6.1382  -15.2485   24.9711 C.3     1  UNL1        0.0445
     18 C          -5.9704  -15.5078   26.4390 C.3     1  UNL1        0.0210
     19 C          -7.1742  -15.7524   27.2999 C.3     1  UNL1        0.0722
     20 N          -8.5459  -15.7377   26.6928 N.3     1  UNL1       -0.2727
     21 C          -8.7137  -15.4784   25.2249 C.3     1  UNL1        0.0722
     22 C          -7.5099  -15.2338   24.3641 C.3     1  UNL1        0.0210
     23 C          -7.9162  -15.5984   26.1808 C.3     1  UNL1        0.0722
     24 C          -6.8276  -15.3772   25.4025 C.3     1  UNL1        0.0210
@<TRIPOS>BOND
     1    11    12    1
     2    12     1    1
     3     1     2    2
     4     2     3    1
     5     3     4    2
     6     4     5    1
     7     5     6    2
     8     6     7    1
     9     7    13    1
    10    13    14    2
    11    13    15    1
    12    15    16    1
    13    16    17    1
    14    17    18    1
    15    18    19    1
    16    19    20    1
    17    20    21    1
    18    21    22    1
    19    20    23    1
    20    23    24    1
    21     7     8    2
    22     8     9    1
    23     9    10    1
    24     9     1    1
    25     8     4    1
    26    22    17    1
    27    24    17    1
@<TRIPOS>MOLECULE
*****
 24 27 0 0 0
SMALL
GASTEIGER

@<TRIPOS>ATOM
      1 C          -3.8265  -18.7641   22.3550 C.2     1  UNL1        0.1352
      2 C          -3.5916  -17.6457   23.3264 C.2     1  UNL1        0.0355
      3 C          -4.7333  -16.7718   23.7545 C.2     1  UNL1        0.0216
      4 C          -6.1097  -17.0165   23.2110 C.2     1  UNL1        0.0793
      5 N          -7.4198  -16.3254   23.4478 N.2     1  UNL1       -0.2439
      6 C          -8.4644  -17.0168   22.6227 C.2     1  UNL1        0.1050
      7 C          -7.7999  -18.1352   21.8760 C.2     1  UNL1        0.0938
      8 C          -6.3446  -18.1350   22.2395 C.2     1  UNL1        0.0251
      9 C          -5.2030  -19.0089   21.8116 C.3     1  UNL1        0.1600
     10 CL         -5.4379  -20.1274   20.8401 Cl      1  UNL1       -0.1019
     11 C          -1.7851  -19.2021   20.8088 C.3     1  UNL1        0.2520
     12 O          -2.6849  -19.6380   21.9270 O.2     1  UNL1       -0.4741
     13 C          -8.4726  -19.0867   20.9315 C.2     1  UNL1        0.3425
     14 O          -8.2149  -18.9877   19.4571 O.2     1  UNL1       -0.2448
     15 O          -9.4030  -20.1373   21.4613 O.3     1  UNL1       -0.4454
     16 C         -10.8843  -19.9883   21.2788 C.3     1  UNL1        0.2087
     17 C         -11.5476  -18.6749   21.5706 C.3     1  UNL1        0.0445
     18 C         -11.6536  -17.6333   20.4964 C.3     1  UNL1        0.0210
     19 C         -12.3169  -16.3199   20.7881 C.3     1  UNL1        0.0722
     20 N         -12.8741  -16.0481   22.1540 N.3     1  UNL1       -0.2727
     21 C         -12.7681  -17.0897   23.2282 C.3     1  UNL1        0.0722
     22 C         -12.1048  -18.4031   22.9365 C.3     1  UNL1        0.0210
     23 C         -12.5195  -16.7827   22.0416 C.3     1  UNL1        0.0722
     24 C         -11.9197  -17.9702   21.7778 C.3     1  UNL1        0.0210
@<TRIPOS>BOND
     1    11    12    1
     2    12     1    1
     3     1     2    2
     4     2     3    1
     5     3     4    2
     6     4     5    1
     7     5     6    2
     8     6     7    1
     9     7    13    1
    10    13    14    2
    11    13    15    1
    12    15    16    1
    13    16    17    1
    14    17    18    1
    15    18    19    1
    16    19    20    1
    17    20    21    1
    18    21    22    1
    19    20    23    1
    20    23    24    1
    21     7     8    2
    22     8     9    1
    23     9    10    1
    24     9     1    1
    25     8     4    1
    26    22    17    1
    27    24    17    1
