@<TRIPOS>MOLECULE
*****
 22 24 0 0 0
SMALL
GASTEIGER

@<TRIPOS>ATOM
      1 C          -7.6241  -17.1402   22.7817 C.ar    1  UNL1        0.0525
      2 C          -7.0367  -16.0550   23.6345 C.ar    1  UNL1        0.0046
      3 C          -5.5719  -16.0653   23.9578 C.ar    1  UNL1       -0.0002
      4 C          -4.6946  -17.1606   23.4281 C.ar    1  UNL1       -0.0039
      5 C          -5.2821  -18.2458   22.5753 C.ar    1  UNL1       -0.0161
      6 C          -6.7468  -18.2356   22.2521 C.ar    1  UNL1        0.0007
      7 C         -11.5231  -15.8242   19.6091 C.3     1  UNL1        0.0473
      8 C         -11.0383  -16.4720   20.8721 C.3     1  UNL1        0.1695
      9 C         -12.0182  -17.1095   21.8120 C.3     1  UNL1        0.0661
     10 C         -11.5334  -17.7573   23.0751 C.3     1  UNL1        0.0912
     11 C         -13.0076  -18.0015   23.2063 C.3     1  UNL1        0.0246
     12 C         -11.5607  -18.4898   24.3837 C.3     1  UNL1        0.0246
     13 N         -10.0687  -17.7675   23.3983 N.2     1  UNL1       -0.2416
     14 C          -9.0889  -17.1300   22.4585 C.2     1  UNL1        0.2200
     15 O          -9.5737  -16.4822   21.1954 O.2     1  UNL1       -0.4642
     16 C          -4.4048  -19.3412   22.0456 C.3     1  UNL1        0.0715
     17 C          -3.3168  -19.0220   21.0636 C.ar    1  UNL1        0.0586
     18 C          -1.8873  -19.4672   21.1560 C.ar    1  UNL1        0.1134
     19 N          -1.1542  -18.9219   19.9663 N.ar    1  UNL1       -0.2229
     20 C          -2.1306  -18.1397   19.1387 C.ar    1  UNL1        0.1748
     21 N          -3.4671  -18.2016   19.8169 N.ar    1  UNL1       -0.3379
     22 H          -4.2972  -17.7781   19.4995 H       1  UNL1        0.1672
@<TRIPOS>BOND
     1     7     8    1
     2     8     9    1
     3     9    10    1
     4    10    11    1
     5    10    12    1
     6    10    13    1
     7    13    14    2
     8    14     1    1
     9     1     2   ar
    10     2     3   ar
    11     3     4   ar
    12     4     5   ar
    13     5    16    1
    14    16    17    1
    15    17    18   ar
    16    18    19   ar
    17    19    20   ar
    18    20    21   ar
    19     5     6   ar
    20    14    15    1
    21    15     8    1
    22     6     1   ar
    23    21    17   ar
    24    21    22    1
@<TRIPOS>MOLECULE
*****
 22 24 0 0 0
SMALL
GASTEIGER

@<TRIPOS>ATOM
      1 C          -8.1937  -19.0199   21.0192 C.ar    1  UNL1        0.0525
      2 C          -8.0110  -20.0587   19.9528 C.ar    1  UNL1        0.0046
      3 C          -6.6627  -20.6780   19.7320 C.ar    1  UNL1       -0.0002
      4 C          -5.4971  -20.2583   20.5778 C.ar    1  UNL1       -0.0039
      5 C          -5.6798  -19.2194   21.6443 C.ar    1  UNL1       -0.0161
      6 C          -7.0281  -18.6002   21.8650 C.ar    1  UNL1        0.0007
      7 C         -12.0366  -15.9136   19.4120 C.3     1  UNL1        0.0473
      8 C         -11.4634  -16.8475   20.4363 C.3     1  UNL1        0.1695
      9 C         -12.2384  -17.1621   21.6814 C.3     1  UNL1        0.0661
     10 C         -11.6652  -18.0960   22.7058 C.3     1  UNL1        0.0912
     11 C         -12.9721  -17.7606   23.3614 C.3     1  UNL1        0.0246
     12 C         -11.5460  -18.9133   23.9579 C.3     1  UNL1        0.0246
     13 N         -10.3170  -18.7152   22.4851 N.2     1  UNL1       -0.2416
     14 C          -9.5420  -18.4006   21.2400 C.2     1  UNL1        0.2200
     15 O         -10.1152  -17.4667   20.2156 O.2     1  UNL1       -0.4642
     16 C          -4.5142  -18.7998   22.4900 C.3     1  UNL1        0.0715
     17 C          -3.2222  -18.3999   21.8412 C.ar    1  UNL1        0.0586
     18 C          -2.0889  -19.3190   21.4935 C.ar    1  UNL1        0.1134
     19 N          -1.0029  -18.4979   20.8636 N.ar    1  UNL1       -0.2229
     20 C          -1.4652  -17.0715   20.8220 C.ar    1  UNL1        0.1748
     21 N          -2.8368  -17.0110   21.4262 N.ar    1  UNL1       -0.3379
     22 H          -3.3874  -16.2017   21.5318 H       1  UNL1        0.1672
@<TRIPOS>BOND
     1     7     8    1
     2     8     9    1
     3     9    10    1
     4    10    11    1
     5    10    12    1
     6    10    13    1
     7    13    14    2
     8    14     1    1
     9     1     2   ar
    10     2     3   ar
    11     3     4   ar
    12     4     5   ar
    13     5    16    1
    14    16    17    1
    15    17    18   ar
    16    18    19   ar
    17    19    20   ar
    18    20    21   ar
    19     5     6   ar
    20    14    15    1
    21    15     8    1
    22     6     1   ar
    23    21    17   ar
    24    21    22    1
@<TRIPOS>MOLECULE
*****
 22 24 0 0 0
SMALL
GASTEIGER

@<TRIPOS>ATOM
      1 C          -7.0355  -18.8736   21.4645 C.ar    1  UNL1        0.0525
      2 C          -7.3767  -19.9622   20.4907 C.ar    1  UNL1        0.0046
      3 C          -6.2954  -20.8487   19.9475 C.ar    1  UNL1       -0.0002
      4 C          -4.8729  -20.6464   20.3782 C.ar    1  UNL1       -0.0039
      5 C          -4.5317  -19.5577   21.3521 C.ar    1  UNL1       -0.0161
      6 C          -5.6130  -18.6713   21.8952 C.ar    1  UNL1        0.0007
      7 C          -8.8021  -15.6801   25.1633 C.3     1  UNL1        0.0473
      8 C          -9.0001  -16.3904   23.8571 C.3     1  UNL1        0.1695
      9 C         -10.2794  -16.2143   23.0940 C.3     1  UNL1        0.0661
     10 C         -10.4775  -16.9246   21.7878 C.3     1  UNL1        0.0912
     11 C         -11.7853  -16.1971   21.8896 C.3     1  UNL1        0.0246
     12 C         -11.1298  -17.3822   20.5169 C.3     1  UNL1        0.0246
     13 N          -9.3962  -17.8110   21.2446 N.2     1  UNL1       -0.2416
     14 C          -8.1169  -17.9871   22.0077 C.2     1  UNL1        0.2200
     15 O          -7.9188  -17.2768   23.3139 O.2     1  UNL1       -0.4642
     16 C          -3.1092  -19.3555   21.7829 C.3     1  UNL1        0.0715
     17 C          -2.1267  -18.7137   20.8485 C.ar    1  UNL1        0.0586
     18 C          -2.2161  -18.6961   19.3513 C.ar    1  UNL1        0.1134
     19 N          -1.0269  -17.9484   18.8248 N.ar    1  UNL1       -0.2229
     20 C          -0.2027  -17.5042   19.9967 C.ar    1  UNL1        0.1748
     21 N          -0.8824  -17.9771   21.2474 N.ar    1  UNL1       -0.3379
     22 H          -0.5671  -17.8300   22.1684 H       1  UNL1        0.1672
@<TRIPOS>BOND
     1     7     8    1
     2     8     9    1
     3     9    10    1
     4    10    11    1
     5    10    12    1
     6    10    13    1
     7    13    14    2
     8    14     1    1
     9     1     2   ar
    10     2     3   ar
    11     3     4   ar
    12     4     5   ar
    13     5    16    1
    14    16    17    1
    15    17    18   ar
    16    18    19   ar
    17    19    20   ar
    18    20    21   ar
    19     5     6   ar
    20    14    15    1
    21    15     8    1
    22     6     1   ar
    23    21    17   ar
    24    21    22    1
@<TRIPOS>MOLECULE
*****
 22 24 0 0 0
SMALL
GASTEIGER

@<TRIPOS>ATOM
      1 C          -7.4831  -16.9501   22.8240 C.ar    1  UNL1        0.0525
      2 C          -7.7294  -15.6767   23.5774 C.ar    1  UNL1        0.0046
      3 C          -6.6286  -15.0604   24.3888 C.ar    1  UNL1       -0.0002
      4 C          -5.2814  -15.7175   24.4467 C.ar    1  UNL1       -0.0039
      5 C          -5.0351  -16.9910   23.6931 C.ar    1  UNL1       -0.0161
      6 C          -6.1360  -17.6072   22.8818 C.ar    1  UNL1        0.0007
      7 C         -12.5489  -17.5603   21.8414 C.3     1  UNL1        0.0473
      8 C         -11.1169  -17.8715   21.5213 C.3     1  UNL1        0.1695
      9 C         -10.7857  -18.7990   20.3900 C.3     1  UNL1        0.0661
     10 C          -9.3537  -19.1102   20.0699 C.3     1  UNL1        0.0912
     11 C         -10.0401  -19.9339   19.0209 C.3     1  UNL1        0.0246
     12 C          -8.1601  -19.7075   19.3855 C.3     1  UNL1        0.0246
     13 N          -8.2529  -18.4939   20.8812 N.2     1  UNL1       -0.2416
     14 C          -8.5840  -17.5664   22.0126 C.2     1  UNL1        0.2200
     15 O         -10.0161  -17.2552   22.3326 O.2     1  UNL1       -0.4642
     16 C          -3.6880  -17.6481   23.7510 C.3     1  UNL1        0.0715
     17 C          -2.7930  -17.6313   22.5473 C.ar    1  UNL1        0.0586
     18 C          -2.0346  -18.8023   21.9962 C.ar    1  UNL1        0.1134
     19 N          -1.2722  -18.3354   20.7916 N.ar    1  UNL1       -0.2229
     20 C          -1.5595  -16.8758   20.5984 C.ar    1  UNL1        0.1748
     21 N          -2.4994  -16.4407   21.6834 N.ar    1  UNL1       -0.3379
     22 H          -2.8602  -15.5331   21.8069 H       1  UNL1        0.1672
@<TRIPOS>BOND
     1     7     8    1
     2     8     9    1
     3     9    10    1
     4    10    11    1
     5    10    12    1
     6    10    13    1
     7    13    14    2
     8    14     1    1
     9     1     2   ar
    10     2     3   ar
    11     3     4   ar
    12     4     5   ar
    13     5    16    1
    14    16    17    1
    15    17    18   ar
    16    18    19   ar
    17    19    20   ar
    18    20    21   ar
    19     5     6   ar
    20    14    15    1
    21    15     8    1
    22     6     1   ar
    23    21    17   ar
    24    21    22    1
@<TRIPOS>MOLECULE
*****
 22 24 0 0 0
SMALL
GASTEIGER

@<TRIPOS>ATOM
      1 C          -6.6706  -17.1023   23.2205 C.ar    1  UNL1        0.0525
      2 C          -6.1595  -16.0746   24.1862 C.ar    1  UNL1        0.0046
      3 C          -7.1226  -15.1806   24.9096 C.ar    1  UNL1       -0.0002
      4 C          -8.5969  -15.3143   24.6673 C.ar    1  UNL1       -0.0039
      5 C          -9.1080  -16.3420   23.7015 C.ar    1  UNL1       -0.0161
      6 C          -8.1449  -17.2360   22.9781 C.ar    1  UNL1        0.0007
      7 C          -5.7640  -21.2327   20.2009 C.3     1  UNL1        0.0473
      8 C          -5.2542  -20.0615   20.9873 C.3     1  UNL1        0.1695
      9 C          -3.7815  -19.7842   21.0504 C.3     1  UNL1        0.0661
     10 C          -3.2717  -18.6130   21.8368 C.3     1  UNL1        0.0912
     11 C          -1.9753  -19.1671   21.3247 C.3     1  UNL1        0.0246
     12 C          -2.3116  -17.6343   22.4453 C.3     1  UNL1        0.0246
     13 N          -4.2347  -17.7190   22.5601 N.2     1  UNL1       -0.2416
     14 C          -5.7075  -17.9963   22.4971 C.2     1  UNL1        0.2200
     15 O          -6.2173  -19.1675   21.7107 O.2     1  UNL1       -0.4642
     16 C         -10.5822  -16.4757   23.4591 C.3     1  UNL1        0.0715
     17 C         -11.1329  -16.3066   22.0741 C.ar    1  UNL1        0.0586
     18 C         -12.4902  -16.7410   21.6060 C.ar    1  UNL1        0.1134
     19 N         -12.6192  -16.3764   20.1566 N.ar    1  UNL1       -0.2229
     20 C         -11.3417  -15.7166   19.7292 C.ar    1  UNL1        0.1748
     21 N         -10.4232  -15.6735   20.9142 N.ar    1  UNL1       -0.3379
     22 H          -9.5140  -15.2960   20.9283 H       1  UNL1        0.1672
@<TRIPOS>BOND
     1     7     8    1
     2     8     9    1
     3     9    10    1
     4    10    11    1
     5    10    12    1
     6    10    13    1
     7    13    14    2
     8    14     1    1
     9     1     2   ar
    10     2     3   ar
    11     3     4   ar
    12     4     5   ar
    13     5    16    1
    14    16    17    1
    15    17    18   ar
    16    18    19   ar
    17    19    20   ar
    18    20    21   ar
    19     5     6   ar
    20    14    15    1
    21    15     8    1
    22     6     1   ar
    23    21    17   ar
    24    21    22    1
@<TRIPOS>MOLECULE
*****
 22 24 0 0 0
SMALL
GASTEIGER

@<TRIPOS>ATOM
      1 C          -6.6501  -19.1345   21.8978 C.ar    1  UNL1        0.0525
      2 C          -7.1283  -20.0379   20.8001 C.ar    1  UNL1        0.0046
      3 C          -6.1380  -20.8090   19.9785 C.ar    1  UNL1       -0.0002
      4 C          -4.6696  -20.6767   20.2549 C.ar    1  UNL1       -0.0039
      5 C          -4.1915  -19.7732   21.3527 C.ar    1  UNL1       -0.0161
      6 C          -5.1818  -19.0021   22.1742 C.ar    1  UNL1        0.0007
      7 C         -11.3961  -18.6759   23.9633 C.3     1  UNL1        0.0473
      8 C         -10.0134  -18.1341   23.7521 C.3     1  UNL1        0.1695
      9 C          -9.6209  -16.8213   24.3623 C.3     1  UNL1        0.0661
     10 C          -8.2382  -16.2795   24.1511 C.3     1  UNL1        0.0912
     11 C          -8.8182  -15.1887   25.0018 C.3     1  UNL1        0.0246
     12 C          -7.0570  -15.3589   24.2354 C.3     1  UNL1        0.0246
     13 N          -7.2480  -17.0505   23.3296 N.2     1  UNL1       -0.2416
     14 C          -7.6404  -18.3634   22.7194 C.2     1  UNL1        0.2200
     15 O          -9.0231  -18.9051   22.9306 O.2     1  UNL1       -0.4642
     16 C          -2.7232  -19.6408   21.6290 C.3     1  UNL1        0.0715
     17 C          -1.8592  -18.8213   20.7168 C.ar    1  UNL1        0.0586
     18 C          -2.0585  -18.6402   19.2411 C.ar    1  UNL1        0.1134
     19 N          -0.9668  -17.7460   18.7323 N.ar    1  UNL1       -0.2229
     20 C          -0.0929  -17.3745   19.8936 C.ar    1  UNL1        0.1748
     21 N          -0.6445  -18.0391   21.1200 N.ar    1  UNL1       -0.3379
     22 H          -0.2743  -17.9734   22.0299 H       1  UNL1        0.1672
@<TRIPOS>BOND
     1     7     8    1
     2     8     9    1
     3     9    10    1
     4    10    11    1
     5    10    12    1
     6    10    13    1
     7    13    14    2
     8    14     1    1
     9     1     2   ar
    10     2     3   ar
    11     3     4   ar
    12     4     5   ar
    13     5    16    1
    14    16    17    1
    15    17    18   ar
    16    18    19   ar
    17    19    20   ar
    18    20    21   ar
    19     5     6   ar
    20    14    15    1
    21    15     8    1
    22     6     1   ar
    23    21    17   ar
    24    21    22    1
@<TRIPOS>MOLECULE
*****
 22 24 0 0 0
SMALL
GASTEIGER

@<TRIPOS>ATOM
      1 C          -6.7495  -17.0402   23.2657 C.ar    1  UNL1        0.0525
      2 C          -6.3451  -16.0669   24.3329 C.ar    1  UNL1        0.0046
      3 C          -7.3903  -15.2725   25.0587 C.ar    1  UNL1       -0.0002
      4 C          -8.8398  -15.4516   24.7172 C.ar    1  UNL1       -0.0039
      5 C          -9.2443  -16.4250   23.6499 C.ar    1  UNL1       -0.0161
      6 C          -8.1991  -17.2193   22.9242 C.ar    1  UNL1        0.0007
      7 C          -1.7558  -17.9580   22.1609 C.3     1  UNL1        0.0473
      8 C          -3.2075  -18.2934   21.9876 C.3     1  UNL1        0.1695
      9 C          -3.6140  -19.4231   21.0884 C.3     1  UNL1        0.0661
     10 C          -5.0657  -19.7586   20.9151 C.3     1  UNL1        0.0912
     11 C          -4.4505  -20.7943   20.0213 C.3     1  UNL1        0.0246
     12 C          -6.3037  -20.4537   20.4312 C.3     1  UNL1        0.0246
     13 N          -6.1109  -18.9643   21.6408 N.2     1  UNL1       -0.2416
     14 C          -5.7043  -17.8346   22.5399 C.2     1  UNL1        0.2200
     15 O          -4.2526  -17.4992   22.7133 O.2     1  UNL1       -0.4642
     16 C         -10.6939  -16.6040   23.3084 C.3     1  UNL1        0.0715
     17 C         -11.1738  -16.3387   21.9122 C.ar    1  UNL1        0.0586
     18 C         -12.5131  -16.7180   21.3534 C.ar    1  UNL1        0.1134
     19 N         -12.5658  -16.2612   19.9255 N.ar    1  UNL1       -0.2229
     20 C         -11.2590  -15.5996   19.6020 C.ar    1  UNL1        0.1748
     21 N         -10.3987  -15.6475   20.8299 N.ar    1  UNL1       -0.3379
     22 H          -9.4857  -15.2883   20.9111 H       1  UNL1        0.1672
@<TRIPOS>BOND
     1     7     8    1
     2     8     9    1
     3     9    10    1
     4    10    11    1
     5    10    12    1
     6    10    13    1
     7    13    14    2
     8    14     1    1
     9     1     2   ar
    10     2     3   ar
    11     3     4   ar
    12     4     5   ar
    13     5    16    1
    14    16    17    1
    15    17    18   ar
    16    18    19   ar
    17    19    20   ar
    18    20    21   ar
    19     5     6   ar
    20    14    15    1
    21    15     8    1
    22     6     1   ar
    23    21    17   ar
    24    21    22    1
@<TRIPOS>MOLECULE
*****
 22 24 0 0 0
SMALL
GASTEIGER

@<TRIPOS>ATOM
      1 C          -7.5329  -16.8829   23.1118 C.ar    1  UNL1        0.0525
      2 C          -7.0186  -15.7110   23.8940 C.ar    1  UNL1        0.0046
      3 C          -5.5489  -15.5746   24.1616 C.ar    1  UNL1       -0.0002
      4 C          -4.5936  -16.6103   23.6469 C.ar    1  UNL1       -0.0039
      5 C          -5.1081  -17.7823   22.8647 C.ar    1  UNL1       -0.0161
      6 C          -6.5777  -17.9186   22.5971 C.ar    1  UNL1        0.0007
      7 C         -12.2043  -18.7074   24.4721 C.3     1  UNL1        0.0473
      8 C         -11.3382  -17.9315   23.5244 C.3     1  UNL1        0.1695
      9 C         -11.9418  -17.2920   22.3093 C.3     1  UNL1        0.0661
     10 C         -11.0758  -16.5161   21.3616 C.3     1  UNL1        0.0912
     11 C         -12.4050  -16.3648   20.6832 C.3     1  UNL1        0.0246
     12 C         -10.6715  -15.6877   20.1783 C.3     1  UNL1        0.0246
     13 N          -9.6062  -16.3797   21.6291 N.2     1  UNL1       -0.2416
     14 C          -9.0026  -17.0193   22.8443 C.2     1  UNL1        0.2200
     15 O          -9.8686  -17.7952   23.7919 O.2     1  UNL1       -0.4642
     16 C          -4.1528  -18.8180   22.3500 C.3     1  UNL1        0.0715
     17 C          -3.3285  -18.5369   21.1287 C.ar    1  UNL1        0.0586
     18 C          -3.1357  -19.4614   19.9632 C.ar    1  UNL1        0.1134
     19 N          -2.2403  -18.7780   18.9726 N.ar    1  UNL1       -0.2229
     20 C          -1.8797  -17.4311   19.5259 C.ar    1  UNL1        0.1748
     21 N          -2.5523  -17.2822   20.8584 N.ar    1  UNL1       -0.3379
     22 H          -2.4944  -16.4985   21.4514 H       1  UNL1        0.1672
@<TRIPOS>BOND
     1     7     8    1
     2     8     9    1
     3     9    10    1
     4    10    11    1
     5    10    12    1
     6    10    13    1
     7    13    14    2
     8    14     1    1
     9     1     2   ar
    10     2     3   ar
    11     3     4   ar
    12     4     5   ar
    13     5    16    1
    14    16    17    1
    15    17    18   ar
    16    18    19   ar
    17    19    20   ar
    18    20    21   ar
    19     5     6   ar
    20    14    15    1
    21    15     8    1
    22     6     1   ar
    23    21    17   ar
    24    21    22    1
@<TRIPOS>MOLECULE
*****
 22 24 0 0 0
SMALL
GASTEIGER

@<TRIPOS>ATOM
      1 C          -7.8114  -18.9467   20.6952 C.ar    1  UNL1        0.0525
      2 C          -8.0786  -19.8752   19.5478 C.ar    1  UNL1        0.0046
      3 C          -9.4664  -20.0016   18.9928 C.ar    1  UNL1       -0.0002
      4 C         -10.5870  -19.1995   19.5851 C.ar    1  UNL1       -0.0039
      5 C         -10.3197  -18.2709   20.7326 C.ar    1  UNL1       -0.0161
      6 C          -8.9319  -18.1446   21.2875 C.ar    1  UNL1        0.0007
      7 C          -4.4943  -16.8097   24.0760 C.3     1  UNL1        0.0473
      8 C          -4.7650  -17.7518   22.9406 C.3     1  UNL1        0.1695
      9 C          -3.6480  -18.5676   22.3603 C.3     1  UNL1        0.0661
     10 C          -3.9188  -19.5097   21.2249 C.3     1  UNL1        0.0912
     11 C          -2.4476  -19.7381   21.4077 C.3     1  UNL1        0.0246
     12 C          -3.6785  -20.5312   20.1531 C.3     1  UNL1        0.0246
     13 N          -5.3065  -19.6361   20.6699 N.2     1  UNL1       -0.2416
     14 C          -6.4235  -18.8204   21.2502 C.2     1  UNL1        0.2200
     15 O          -6.1528  -17.8782   22.3856 O.2     1  UNL1       -0.4642
     16 C         -11.4403  -17.4688   21.3249 C.3     1  UNL1        0.0715
     17 C         -12.0575  -17.8893   22.6258 C.ar    1  UNL1        0.0586
     18 C         -11.3651  -18.6292   23.7317 C.ar    1  UNL1        0.1134
     19 N         -12.3552  -18.8409   24.8386 N.ar    1  UNL1       -0.2229
     20 C         -13.6594  -18.2318   24.4166 C.ar    1  UNL1        0.1748
     21 N         -13.4754  -17.6437   23.0491 N.ar    1  UNL1       -0.3379
     22 H         -14.1644  -17.1782   22.5219 H       1  UNL1        0.1672
@<TRIPOS>BOND
     1     7     8    1
     2     8     9    1
     3     9    10    1
     4    10    11    1
     5    10    12    1
     6    10    13    1
     7    13    14    2
     8    14     1    1
     9     1     2   ar
    10     2     3   ar
    11     3     4   ar
    12     4     5   ar
    13     5    16    1
    14    16    17    1
    15    17    18   ar
    16    18    19   ar
    17    19    20   ar
    18    20    21   ar
    19     5     6   ar
    20    14    15    1
    21    15     8    1
    22     6     1   ar
    23    21    17   ar
    24    21    22    1
