@<TRIPOS>MOLECULE
*****
 40 43 0 0 0
SMALL
GASTEIGER

@<TRIPOS>ATOM
      1 C           5.4178   -2.3830   19.3372 C.ar    1  UNL1        0.0611
      2 C           5.9870   -1.5990   18.1921 C.ar    1  UNL1        0.1037
      3 N           7.4800   -1.7376   18.2323 N.ar    1  UNL1       -0.2269
      4 C           7.8336   -2.6073   19.4023 C.ar    1  UNL1        0.1407
      5 N           9.1514   -3.0874   19.9340 N.ar    1  UNL1       -0.3374
      6 C           9.1946   -3.9665   21.1486 C.ar    1  UNL1        0.0734
      7 C           7.9200   -4.3654   21.8315 C.ar    1  UNL1        0.0171
      8 C           6.6022   -3.8852   21.2998 C.ar    1  UNL1        0.0046
      9 C           6.5590   -3.0062   20.0852 C.ar    1  UNL1        0.0386
     10 H           9.9879   -2.8256   19.4858 H       1  UNL1        0.1674
     11 C           7.9633   -5.2445   23.0462 C.ar    1  UNL1        0.0015
     12 C           7.3033   -4.7999   24.3177 C.ar    1  UNL1        0.0014
     13 C           7.3466   -5.6790   25.5323 C.ar    1  UNL1        0.0199
     14 C           8.0499   -7.0027   25.4754 C.ar    1  UNL1        0.1217
     15 C           8.7099   -7.4473   24.2038 C.ar    1  UNL1        0.0199
     16 C           8.6666   -6.5682   22.9893 C.ar    1  UNL1        0.0014
     17 S           8.0932   -7.8818   26.6900 S.O2    1  UNL1        0.0572
     18 N           8.1365   -8.7609   27.9046 N.3     1  UNL1       -0.2035
     19 O           9.3732   -7.2275   27.1180 O.2     1  UNL1       -0.1532
     20 O           6.8131   -8.5362   26.2620 O.2     1  UNL1       -0.1532
     21 H           8.9670   -8.5407   28.4543 H       1  UNL1        0.1442
     22 H           8.1694   -9.7386   27.6157 H       1  UNL1        0.1442
     23 C           3.9628   -2.5199   19.6751 C.2     1  UNL1        0.2015
     24 O           3.1967   -3.7255   19.2175 O.2     1  UNL1       -0.2864
     25 C           2.6465   -0.4056   22.7651 C.ar    1  UNL1        0.0920
     26 C           1.8959    0.6864   22.0622 C.ar    1  UNL1        0.0204
     27 C           1.8343    0.7097   20.5637 C.ar    1  UNL1        0.0312
     28 C           2.5232   -0.3591   19.7679 C.ar    1  UNL1        0.1454
     29 F           2.4615   -0.3358   18.2694 F       1  UNL1       -0.2040
     30 C           3.2738   -1.4511   20.4709 C.ar    1  UNL1        0.0951
     31 C           3.3354   -1.4744   21.9694 C.ar    1  UNL1        0.1598
     32 F           4.0860   -2.5665   22.6722 F       1  UNL1       -0.2026
     33 N           2.7082   -0.4289   24.2636 N.pl3   1  UNL1       -0.2166
     34 H           1.8809   -0.5231   24.7889 H       1  UNL1        0.1734
     35 S           4.0303   -0.3087   24.9618 S.O2    1  UNL1        0.0540
     36 O           4.2350    1.0417   24.3417 O.2     1  UNL1       -0.1545
     37 O           3.8256   -1.6591   25.5819 O.2     1  UNL1       -0.1545
     38 C           5.3524   -0.1885   25.6600 C.3     1  UNL1        0.1724
     39 C           7.1280   -1.1764   24.0408 C.3     1  UNL1        0.0019
     40 C           6.4435   -1.1778   25.3755 C.3     1  UNL1        0.0273
@<TRIPOS>BOND
     1    39    40    1
     2    40    38    1
     3    38    35    1
     4    35    36    2
     5    35    37    2
     6    35    33    1
     7    33    25    1
     8    25    26   ar
     9    26    27   ar
    10    27    28   ar
    11    28    29    1
    12    28    30   ar
    13    30    23    1
    14    23    24    2
    15    23     1    1
    16     1     2   ar
    17     2     3   ar
    18     3     4   ar
    19     4     5   ar
    20     5     6   ar
    21     6     7   ar
    22     7    11    1
    23    11    12   ar
    24    12    13   ar
    25    13    14   ar
    26    14    17    1
    27    17    18    1
    28    17    19    2
    29    17    20    2
    30    14    15   ar
    31    15    16   ar
    32     7     8   ar
    33     8     9   ar
    34    30    31   ar
    35    31    32    1
    36    31    25   ar
    37     9     1   ar
    38     9     4    1
    39    16    11   ar
    40    33    34    1
    41     5    10    1
    42    18    21    1
    43    18    22    1
@<TRIPOS>MOLECULE
*****
 40 43 0 0 0
SMALL
GASTEIGER

@<TRIPOS>ATOM
      1 C          -9.0021  -17.2581   25.3090 C.ar    1  UNL1        0.0611
      2 C          -9.6547  -16.3842   26.3387 C.ar    1  UNL1        0.1037
      3 N          -8.6871  -15.2982   26.7054 N.ar    1  UNL1       -0.2269
      4 C          -7.4366  -15.5009   25.9023 C.ar    1  UNL1        0.1407
      5 N          -6.1457  -14.7391   25.8454 N.ar    1  UNL1       -0.3374
      6 C          -5.0496  -15.1885   24.9255 C.ar    1  UNL1        0.0734
      7 C          -5.2442  -16.3998   24.0624 C.ar    1  UNL1        0.0171
      8 C          -6.5350  -17.1617   24.1193 C.ar    1  UNL1        0.0046
      9 C          -7.6312  -16.7122   25.0393 C.ar    1  UNL1        0.0386
     10 H          -6.0180  -13.9441   26.4119 H       1  UNL1        0.1674
     11 C          -4.1480  -16.8492   23.1424 C.ar    1  UNL1        0.0015
     12 C          -3.2275  -15.8396   22.5232 C.ar    1  UNL1        0.0014
     13 C          -2.1312  -16.2891   21.6032 C.ar    1  UNL1        0.0199
     14 C          -1.9555  -17.7481   21.3025 C.ar    1  UNL1        0.1217
     15 C          -2.8761  -18.7577   21.9217 C.ar    1  UNL1        0.0199
     16 C          -3.9722  -18.3082   22.8417 C.ar    1  UNL1        0.0014
     17 S          -0.8593  -18.1975   20.3825 S.O2    1  UNL1        0.0572
     18 N           0.2368  -18.6470   19.4626 N.3     1  UNL1       -0.2035
     19 O          -1.2457  -19.6272   20.6207 O.2     1  UNL1       -0.1532
     20 O          -0.4730  -16.7678   20.1444 O.2     1  UNL1       -0.1532
     21 H           0.2376  -19.6654   19.4067 H       1  UNL1        0.1442
     22 H           1.1356  -18.3255   19.8221 H       1  UNL1        0.1442
     23 C          -9.6131  -18.4658   24.6624 C.2     1  UNL1        0.2015
     24 O          -9.6126  -19.7824   25.3812 O.2     1  UNL1       -0.2864
     25 C          -9.9832  -18.4303   20.7112 C.ar    1  UNL1        0.0920
     26 C         -11.4475  -18.1394   20.5663 C.ar    1  UNL1        0.0204
     27 C         -12.3004  -17.9574   21.7867 C.ar    1  UNL1        0.0312
     28 C         -11.6890  -18.0662   23.1521 C.ar    1  UNL1        0.1454
     29 F         -12.5419  -17.8842   24.3725 F       1  UNL1       -0.2040
     30 C         -10.2246  -18.3570   23.2970 C.ar    1  UNL1        0.0951
     31 C          -9.3717  -18.5391   22.0766 C.ar    1  UNL1        0.1598
     32 F          -7.9073  -18.8299   22.2216 F       1  UNL1       -0.2026
     33 N          -9.1303  -18.6123   19.4908 N.pl3   1  UNL1       -0.2166
     34 H          -9.2346  -18.0057   18.7224 H       1  UNL1        0.1734
     35 S          -8.1185  -19.7185   19.4411 S.O2    1  UNL1        0.0540
     36 O          -7.0251  -18.7311   19.7229 O.2     1  UNL1       -0.1545
     37 O          -9.2119  -20.7059   19.1592 O.2     1  UNL1       -0.1545
     38 C          -7.1068  -20.8248   19.3914 C.3     1  UNL1        0.1724
     39 C          -4.5662  -20.9431   19.9222 C.3     1  UNL1        0.0019
     40 C          -5.9889  -20.8644   20.3908 C.3     1  UNL1        0.0273
@<TRIPOS>BOND
     1    39    40    1
     2    40    38    1
     3    38    35    1
     4    35    36    2
     5    35    37    2
     6    35    33    1
     7    33    25    1
     8    25    26   ar
     9    26    27   ar
    10    27    28   ar
    11    28    29    1
    12    28    30   ar
    13    30    23    1
    14    23    24    2
    15    23     1    1
    16     1     2   ar
    17     2     3   ar
    18     3     4   ar
    19     4     5   ar
    20     5     6   ar
    21     6     7   ar
    22     7    11    1
    23    11    12   ar
    24    12    13   ar
    25    13    14   ar
    26    14    17    1
    27    17    18    1
    28    17    19    2
    29    17    20    2
    30    14    15   ar
    31    15    16   ar
    32     7     8   ar
    33     8     9   ar
    34    30    31   ar
    35    31    32    1
    36    31    25   ar
    37     9     1   ar
    38     9     4    1
    39    16    11   ar
    40    33    34    1
    41     5    10    1
    42    18    21    1
    43    18    22    1
@<TRIPOS>MOLECULE
*****
 40 43 0 0 0
SMALL
GASTEIGER

@<TRIPOS>ATOM
      1 C           5.0223   -3.3762   22.5041 C.ar    1  UNL1        0.0611
      2 C           6.0766   -4.0050   23.3661 C.ar    1  UNL1        0.1037
      3 N           6.0877   -3.2868   24.6829 N.ar    1  UNL1       -0.2269
      4 C           5.0403   -2.2142   24.6348 C.ar    1  UNL1        0.1407
      5 N           4.6011   -1.1943   25.6432 N.ar    1  UNL1       -0.3374
      6 C           3.5033   -0.2296   25.3049 C.ar    1  UNL1        0.0734
      7 C           2.8448   -0.2849   23.9583 C.ar    1  UNL1        0.0171
      8 C           3.2841   -1.3048   22.9500 C.ar    1  UNL1        0.0046
      9 C           4.3818   -2.2694   23.2882 C.ar    1  UNL1        0.0386
     10 H           5.0332   -1.1580   26.5270 H       1  UNL1        0.1674
     11 C           1.7471    0.6798   23.6201 C.ar    1  UNL1        0.0015
     12 C           1.0253    1.4084   24.7147 C.ar    1  UNL1        0.0014
     13 C          -0.0725    2.3732   24.3765 C.ar    1  UNL1        0.0199
     14 C          -0.4484    2.6092   22.9437 C.ar    1  UNL1        0.1217
     15 C           0.2734    1.8805   21.8491 C.ar    1  UNL1        0.0199
     16 C           1.3711    0.9159   22.1873 C.ar    1  UNL1        0.0014
     17 S          -1.5461    3.5738   22.6054 S.O2    1  UNL1        0.0572
     18 N          -2.6438    4.5385   22.2672 N.3     1  UNL1       -0.2035
     19 O          -1.2701    4.3314   23.8703 O.2     1  UNL1       -0.1532
     20 O          -1.8221    2.8163   21.3406 O.2     1  UNL1       -0.1532
     21 H          -2.7157    5.2428   23.0015 H       1  UNL1        0.1442
     22 H          -3.5276    4.0349   22.1914 H       1  UNL1        0.1442
     23 C           4.6702   -3.7828   21.1038 C.2     1  UNL1        0.2015
     24 O           3.9637   -5.0824   20.8554 O.2     1  UNL1       -0.2864
     25 C           4.3260   -1.1375   18.1654 C.ar    1  UNL1        0.0920
     26 C           5.7336   -1.1036   17.6482 C.ar    1  UNL1        0.0204
     27 C           6.7867   -1.9628   18.2829 C.ar    1  UNL1        0.0312
     28 C           6.4323   -2.8558   19.4347 C.ar    1  UNL1        0.1454
     29 F           7.4854   -3.7149   20.0694 F       1  UNL1       -0.2040
     30 C           5.0247   -2.8897   19.9519 C.ar    1  UNL1        0.0951
     31 C           3.9716   -2.0306   19.3172 C.ar    1  UNL1        0.1598
     32 F           2.5639   -2.0646   19.8345 F       1  UNL1       -0.2026
     33 N           3.2729   -0.2784   17.5307 N.pl3   1  UNL1       -0.2166
     34 H           2.8845   -0.5357   16.6634 H       1  UNL1        0.1734
     35 S           2.8115    0.9728   18.2175 S.O2    1  UNL1        0.0540
     36 O           4.1875    1.5544   18.0824 O.2     1  UNL1       -0.1545
     37 O           1.4354    0.3912   18.3526 O.2     1  UNL1       -0.1545
     38 C           2.3500    2.2239   18.9042 C.3     1  UNL1        0.1724
     39 C           0.7345    4.2560   19.0102 C.3     1  UNL1        0.0019
     40 C           1.1057    2.9200   18.4381 C.3     1  UNL1        0.0273
@<TRIPOS>BOND
     1    39    40    1
     2    40    38    1
     3    38    35    1
     4    35    36    2
     5    35    37    2
     6    35    33    1
     7    33    25    1
     8    25    26   ar
     9    26    27   ar
    10    27    28   ar
    11    28    29    1
    12    28    30   ar
    13    30    23    1
    14    23    24    2
    15    23     1    1
    16     1     2   ar
    17     2     3   ar
    18     3     4   ar
    19     4     5   ar
    20     5     6   ar
    21     6     7   ar
    22     7    11    1
    23    11    12   ar
    24    12    13   ar
    25    13    14   ar
    26    14    17    1
    27    17    18    1
    28    17    19    2
    29    17    20    2
    30    14    15   ar
    31    15    16   ar
    32     7     8   ar
    33     8     9   ar
    34    30    31   ar
    35    31    32    1
    36    31    25   ar
    37     9     1   ar
    38     9     4    1
    39    16    11   ar
    40    33    34    1
    41     5    10    1
    42    18    21    1
    43    18    22    1
@<TRIPOS>MOLECULE
*****
 40 43 0 0 0
SMALL
GASTEIGER

@<TRIPOS>ATOM
      1 C           5.4689   -2.3619   19.3537 C.ar    1  UNL1        0.0611
      2 C           6.0371   -1.5883   18.2010 C.ar    1  UNL1        0.1037
      3 N           7.5274   -1.7578   18.2188 N.ar    1  UNL1       -0.2269
      4 C           7.8802   -2.6361   19.3825 C.ar    1  UNL1        0.1407
      5 N           9.1955   -3.1441   19.8941 N.ar    1  UNL1       -0.3374
      6 C           9.2386   -4.0254   21.1070 C.ar    1  UNL1        0.0734
      7 C           7.9664   -4.3988   21.8084 C.ar    1  UNL1        0.0171
      8 C           6.6510   -3.8908   21.2968 C.ar    1  UNL1        0.0046
      9 C           6.6079   -3.0095   20.0839 C.ar    1  UNL1        0.0386
     10 H          10.0306   -2.8990   19.4337 H       1  UNL1        0.1674
     11 C           8.0095   -5.2802   23.0214 C.ar    1  UNL1        0.0015
     12 C           7.3347   -4.8457   24.2886 C.ar    1  UNL1        0.0014
     13 C           7.3779   -5.7272   25.5016 C.ar    1  UNL1        0.0199
     14 C           8.0958   -7.0431   25.4473 C.ar    1  UNL1        0.1217
     15 C           8.7706   -7.4775   24.1800 C.ar    1  UNL1        0.0199
     16 C           8.7275   -6.5961   22.9671 C.ar    1  UNL1        0.0014
     17 S           8.1390   -7.9245   26.6603 S.O2    1  UNL1        0.0572
     18 N           8.1822   -8.8059   27.8732 N.3     1  UNL1       -0.2035
     19 O           6.8382   -8.5500   26.2520 O.2     1  UNL1       -0.1532
     20 O           9.4398   -7.2990   27.0685 O.2     1  UNL1       -0.1532
     21 H           7.3580   -9.4067   27.8864 H       1  UNL1        0.1442
     22 H           8.1949   -8.2277   28.7134 H       1  UNL1        0.1442
     23 C           4.0165   -2.4692   19.7131 C.2     1  UNL1        0.2015
     24 O           3.1992   -3.6167   19.1984 O.2     1  UNL1       -0.2864
     25 C           2.0675    0.7981   20.8433 C.ar    1  UNL1        0.0920
     26 C           2.1112    0.6522   22.3355 C.ar    1  UNL1        0.0204
     27 C           2.7899   -0.5341   22.9536 C.ar    1  UNL1        0.0312
     28 C           3.4250   -1.5746   22.0795 C.ar    1  UNL1        0.1454
     29 F           4.1037   -2.7608   22.6976 F       1  UNL1       -0.2040
     30 C           3.3814   -1.4287   20.5873 C.ar    1  UNL1        0.0951
     31 C           2.7026   -0.2424   19.9692 C.ar    1  UNL1        0.1598
     32 F           2.6591   -0.0966   18.4769 F       1  UNL1       -0.2026
     33 N           1.3888    1.9843   20.2252 N.pl3   1  UNL1       -0.2166
     34 H           1.7758    2.4127   19.4277 H       1  UNL1        0.1734
     35 S           0.1205    2.5180   20.8222 S.O2    1  UNL1        0.0540
     36 O           0.8377    3.7725   21.2246 O.2     1  UNL1       -0.1545
     37 O          -0.5968    1.2636   20.4198 O.2     1  UNL1       -0.1545
     38 C          -1.1479    3.0516   21.4192 C.3     1  UNL1        0.1724
     39 C          -3.7215    3.3231   21.1881 C.3     1  UNL1        0.0019
     40 C          -2.3628    3.2349   20.5587 C.3     1  UNL1        0.0273
@<TRIPOS>BOND
     1    39    40    1
     2    40    38    1
     3    38    35    1
     4    35    36    2
     5    35    37    2
     6    35    33    1
     7    33    25    1
     8    25    26   ar
     9    26    27   ar
    10    27    28   ar
    11    28    29    1
    12    28    30   ar
    13    30    23    1
    14    23    24    2
    15    23     1    1
    16     1     2   ar
    17     2     3   ar
    18     3     4   ar
    19     4     5   ar
    20     5     6   ar
    21     6     7   ar
    22     7    11    1
    23    11    12   ar
    24    12    13   ar
    25    13    14   ar
    26    14    17    1
    27    17    18    1
    28    17    19    2
    29    17    20    2
    30    14    15   ar
    31    15    16   ar
    32     7     8   ar
    33     8     9   ar
    34    30    31   ar
    35    31    32    1
    36    31    25   ar
    37     9     1   ar
    38     9     4    1
    39    16    11   ar
    40    33    34    1
    41     5    10    1
    42    18    21    1
    43    18    22    1
@<TRIPOS>MOLECULE
*****
 40 43 0 0 0
SMALL
GASTEIGER

@<TRIPOS>ATOM
      1 C         -10.3396  -18.0821   21.1121 C.ar    1  UNL1        0.0611
      2 C         -11.5721  -18.7991   20.6463 C.ar    1  UNL1        0.1037
      3 N         -11.1416  -19.9489   19.7846 N.ar    1  UNL1       -0.2269
      4 C          -9.6431  -19.9425   19.7177 C.ar    1  UNL1        0.1407
      5 N          -8.6659  -20.8383   19.0158 N.ar    1  UNL1       -0.3374
      6 C          -7.1930  -20.5802   19.1343 C.ar    1  UNL1        0.0734
      7 C          -6.6974  -19.4264   19.9548 C.ar    1  UNL1        0.0171
      8 C          -7.6746  -18.5307   20.6567 C.ar    1  UNL1        0.0046
      9 C          -9.1474  -18.7888   20.5382 C.ar    1  UNL1        0.0386
     10 H          -8.9912  -21.5955   18.4773 H       1  UNL1        0.1674
     11 C          -5.2244  -19.1684   20.0733 C.ar    1  UNL1        0.0015
     12 C          -4.5556  -18.1993   19.1440 C.ar    1  UNL1        0.0014
     13 C          -3.0827  -17.9413   19.2625 C.ar    1  UNL1        0.0199
     14 C          -2.2787  -18.6524   20.3103 C.ar    1  UNL1        0.1217
     15 C          -2.9475  -19.6215   21.2396 C.ar    1  UNL1        0.0199
     16 C          -4.4204  -19.8795   21.1211 C.ar    1  UNL1        0.0014
     17 S          -0.8058  -18.3944   20.4288 S.O2    1  UNL1        0.0572
     18 N           0.6671  -18.1364   20.5474 N.3     1  UNL1       -0.2035
     19 O          -0.8871  -18.6112   21.9108 O.2     1  UNL1       -0.1532
     20 O          -0.7245  -18.1776   18.9469 O.2     1  UNL1       -0.1532
     21 H           0.9488  -18.2169   21.5244 H       1  UNL1        0.1442
     22 H           0.8759  -17.1969   20.2096 H       1  UNL1        0.1442
     23 C         -10.3053  -16.8710   21.9965 C.2     1  UNL1        0.2015
     24 O         -10.7080  -15.5328   21.4516 O.2     1  UNL1       -0.2864
     25 C          -8.4358  -16.1581   25.4239 C.ar    1  UNL1        0.0920
     26 C          -8.9943  -17.2525   26.2843 C.ar    1  UNL1        0.0204
     27 C          -9.9897  -18.2198   25.7155 C.ar    1  UNL1        0.0312
     28 C         -10.4268  -18.0926   24.2863 C.ar    1  UNL1        0.1454
     29 F         -11.4222  -19.0598   23.7175 F       1  UNL1       -0.2040
     30 C          -9.8683  -16.9982   23.4258 C.ar    1  UNL1        0.0951
     31 C          -8.8728  -16.0310   23.9946 C.ar    1  UNL1        0.1598
     32 F          -8.3144  -14.9366   23.1341 F       1  UNL1       -0.2026
     33 N          -7.4403  -15.1909   25.9927 N.pl3   1  UNL1       -0.2166
     34 H          -7.7502  -14.3599   26.4201 H       1  UNL1        0.1734
     35 S          -5.9727  -15.4899   25.9104 S.O2    1  UNL1        0.0540
     36 O          -6.0673  -16.3006   27.1688 O.2     1  UNL1       -0.1545
     37 O          -5.8782  -14.6791   24.6519 O.2     1  UNL1       -0.1545
     38 C          -4.5052  -15.7887   25.8279 C.3     1  UNL1        0.1724
     39 C          -4.0190  -17.2302   23.7217 C.3     1  UNL1        0.0019
     40 C          -4.0348  -17.0738   25.2134 C.3     1  UNL1        0.0273
@<TRIPOS>BOND
     1    39    40    1
     2    40    38    1
     3    38    35    1
     4    35    36    2
     5    35    37    2
     6    35    33    1
     7    33    25    1
     8    25    26   ar
     9    26    27   ar
    10    27    28   ar
    11    28    29    1
    12    28    30   ar
    13    30    23    1
    14    23    24    2
    15    23     1    1
    16     1     2   ar
    17     2     3   ar
    18     3     4   ar
    19     4     5   ar
    20     5     6   ar
    21     6     7   ar
    22     7    11    1
    23    11    12   ar
    24    12    13   ar
    25    13    14   ar
    26    14    17    1
    27    17    18    1
    28    17    19    2
    29    17    20    2
    30    14    15   ar
    31    15    16   ar
    32     7     8   ar
    33     8     9   ar
    34    30    31   ar
    35    31    32    1
    36    31    25   ar
    37     9     1   ar
    38     9     4    1
    39    16    11   ar
    40    33    34    1
    41     5    10    1
    42    18    21    1
    43    18    22    1
@<TRIPOS>MOLECULE
*****
 40 43 0 0 0
SMALL
GASTEIGER

@<TRIPOS>ATOM
      1 C           7.4356   -4.1469   23.3614 C.ar    1  UNL1        0.0611
      2 C           8.2143   -4.7156   24.5104 C.ar    1  UNL1        0.1037
      3 N           7.6198   -4.1846   25.7811 N.ar    1  UNL1       -0.2269
      4 C           6.4738   -3.2878   25.4175 C.ar    1  UNL1        0.1407
      5 N           5.5192   -2.4894   26.2549 N.ar    1  UNL1       -0.3374
      6 C           4.4508   -1.6677   25.5968 C.ar    1  UNL1        0.0734
      7 C           4.3368   -1.6443   24.1014 C.ar    1  UNL1        0.0171
      8 C           5.2914   -2.4428   23.2639 C.ar    1  UNL1        0.0046
      9 C           6.3599   -3.2645   23.9220 C.ar    1  UNL1        0.0386
     10 H           5.5940   -2.5047   27.2365 H       1  UNL1        0.1674
     11 C           3.2683   -0.8226   23.4433 C.ar    1  UNL1        0.0015
     12 C           2.9823   -0.9963   21.9811 C.ar    1  UNL1        0.0014
     13 C           1.9137   -0.1746   21.3231 C.ar    1  UNL1        0.0199
     14 C           1.1313    0.8210   22.1272 C.ar    1  UNL1        0.1217
     15 C           1.4174    0.9947   23.5895 C.ar    1  UNL1        0.0199
     16 C           2.4859    0.1730   24.2475 C.ar    1  UNL1        0.0014
     17 S           0.0628    1.6427   21.4693 S.O2    1  UNL1        0.0572
     18 N          -1.0057    2.4645   20.8113 N.3     1  UNL1       -0.2035
     19 O          -0.2936    0.4782   20.5936 O.2     1  UNL1       -0.1532
     20 O           0.4191    2.8072   22.3450 O.2     1  UNL1       -0.1532
     21 H          -1.4764    1.9042   20.1007 H       1  UNL1        0.1442
     22 H          -0.5837    3.2836   20.3739 H       1  UNL1        0.1442
     23 C           7.6881   -4.4138   21.9071 C.2     1  UNL1        0.2015
     24 O           8.0878   -5.7869   21.4549 O.2     1  UNL1       -0.2864
     25 C           6.3245   -2.2768   18.8536 C.ar    1  UNL1        0.0920
     26 C           7.2467   -1.0946   18.9007 C.ar    1  UNL1        0.0204
     27 C           8.3160   -1.0189   19.9499 C.ar    1  UNL1        0.0312
     28 C           8.4632   -2.1252   20.9521 C.ar    1  UNL1        0.1454
     29 F           9.5324   -2.0494   22.0013 F       1  UNL1       -0.2040
     30 C           7.5410   -3.3073   20.9049 C.ar    1  UNL1        0.0951
     31 C           6.4717   -3.3831   19.8557 C.ar    1  UNL1        0.1598
     32 F           5.5496   -4.5653   19.8087 F       1  UNL1       -0.2026
     33 N           5.2553   -2.3525   17.8043 N.pl3   1  UNL1       -0.2166
     34 H           5.2637   -3.0834   17.1448 H       1  UNL1        0.1734
     35 S           4.1732   -1.3146   17.7599 S.O2    1  UNL1        0.0540
     36 O           4.8762   -0.6303   16.6253 O.2     1  UNL1       -0.1545
     37 O           3.4703   -1.9990   18.8946 O.2     1  UNL1       -0.1545
     38 C           3.0912   -0.2768   17.7156 C.3     1  UNL1        0.1724
     39 C           4.3854    1.3987   19.2216 C.3     1  UNL1        0.0019
     40 C           3.3864    1.1329   18.1347 C.3     1  UNL1        0.0273
@<TRIPOS>BOND
     1    39    40    1
     2    40    38    1
     3    38    35    1
     4    35    36    2
     5    35    37    2
     6    35    33    1
     7    33    25    1
     8    25    26   ar
     9    26    27   ar
    10    27    28   ar
    11    28    29    1
    12    28    30   ar
    13    30    23    1
    14    23    24    2
    15    23     1    1
    16     1     2   ar
    17     2     3   ar
    18     3     4   ar
    19     4     5   ar
    20     5     6   ar
    21     6     7   ar
    22     7    11    1
    23    11    12   ar
    24    12    13   ar
    25    13    14   ar
    26    14    17    1
    27    17    18    1
    28    17    19    2
    29    17    20    2
    30    14    15   ar
    31    15    16   ar
    32     7     8   ar
    33     8     9   ar
    34    30    31   ar
    35    31    32    1
    36    31    25   ar
    37     9     1   ar
    38     9     4    1
    39    16    11   ar
    40    33    34    1
    41     5    10    1
    42    18    21    1
    43    18    22    1
@<TRIPOS>MOLECULE
*****
 40 43 0 0 0
SMALL
GASTEIGER

@<TRIPOS>ATOM
      1 C           1.0149    1.6776   20.3825 C.ar    1  UNL1        0.0611
      2 C          -0.0639    2.6641   20.7187 C.ar    1  UNL1        0.1037
      3 N          -0.2402    2.6683   22.2083 N.ar    1  UNL1       -0.2269
      4 C           0.7296    1.6844   22.7927 C.ar    1  UNL1        0.1407
      5 N           1.0065    1.2670   24.2065 N.ar    1  UNL1       -0.3374
      6 C           2.0592    0.2372   24.4919 C.ar    1  UNL1        0.0734
      7 C           2.8349   -0.3750   23.3635 C.ar    1  UNL1        0.0171
      8 C           2.5579    0.0424   21.9496 C.ar    1  UNL1        0.0046
      9 C           1.5053    1.0722   21.6642 C.ar    1  UNL1        0.0386
     10 H           0.4974    1.6689   24.9471 H       1  UNL1        0.1674
     11 C           3.8876   -1.4048   23.6490 C.ar    1  UNL1        0.0015
     12 C           4.6643   -1.3480   24.9309 C.ar    1  UNL1        0.0014
     13 C           5.7170   -2.3778   25.2164 C.ar    1  UNL1        0.0199
     14 C           5.9929   -3.4644   24.2198 C.ar    1  UNL1        0.1217
     15 C           5.2162   -3.5212   22.9378 C.ar    1  UNL1        0.0199
     16 C           4.1635   -2.4915   22.6524 C.ar    1  UNL1        0.0014
     17 S           7.0455   -4.4942   24.5052 S.O2    1  UNL1        0.0572
     18 N           8.0982   -5.5239   24.7907 N.3     1  UNL1       -0.2035
     19 O           7.0793   -4.0617   25.9411 O.2     1  UNL1       -0.1532
     20 O           7.0117   -4.9267   23.0694 O.2     1  UNL1       -0.1532
     21 H           8.3584   -5.4801   25.7759 H       1  UNL1        0.1442
     22 H           8.9189   -5.3401   24.2137 H       1  UNL1        0.1442
     23 C           1.5155    1.3535   19.0061 C.2     1  UNL1        0.2015
     24 O           0.5644    0.8492   17.9616 O.2     1  UNL1       -0.2864
     25 C           5.2835    0.5155   18.0842 C.ar    1  UNL1        0.0920
     26 C           5.8706    1.8939   18.0106 C.ar    1  UNL1        0.0204
     27 C           5.0059    3.0921   18.2687 C.ar    1  UNL1        0.0312
     28 C           3.5543    2.9121   18.6006 C.ar    1  UNL1        0.1454
     29 F           2.6896    4.1103   18.8587 F       1  UNL1       -0.2040
     30 C           2.9672    1.5337   18.6742 C.ar    1  UNL1        0.0951
     31 C           3.8319    0.3354   18.4161 C.ar    1  UNL1        0.1598
     32 F           3.2447   -1.0429   18.4898 F       1  UNL1       -0.2026
     33 N           6.1482   -0.6827   17.8261 N.pl3   1  UNL1       -0.2166
     34 H           6.8547   -0.6416   17.1417 H       1  UNL1        0.1734
     35 S           5.9364   -1.9434   18.6107 S.O2    1  UNL1        0.0540
     36 O           6.3866   -1.2427   19.8582 O.2     1  UNL1       -0.1545
     37 O           5.4861   -2.6441   17.3632 O.2     1  UNL1       -0.1545
     38 C           5.7245   -3.2042   19.3952 C.3     1  UNL1        0.1724
     39 C           3.6863   -4.8073   19.5573 C.3     1  UNL1        0.0019
     40 C           4.8965   -4.3151   18.8203 C.3     1  UNL1        0.0273
@<TRIPOS>BOND
     1    39    40    1
     2    40    38    1
     3    38    35    1
     4    35    36    2
     5    35    37    2
     6    35    33    1
     7    33    25    1
     8    25    26   ar
     9    26    27   ar
    10    27    28   ar
    11    28    29    1
    12    28    30   ar
    13    30    23    1
    14    23    24    2
    15    23     1    1
    16     1     2   ar
    17     2     3   ar
    18     3     4   ar
    19     4     5   ar
    20     5     6   ar
    21     6     7   ar
    22     7    11    1
    23    11    12   ar
    24    12    13   ar
    25    13    14   ar
    26    14    17    1
    27    17    18    1
    28    17    19    2
    29    17    20    2
    30    14    15   ar
    31    15    16   ar
    32     7     8   ar
    33     8     9   ar
    34    30    31   ar
    35    31    32    1
    36    31    25   ar
    37     9     1   ar
    38     9     4    1
    39    16    11   ar
    40    33    34    1
    41     5    10    1
    42    18    21    1
    43    18    22    1
@<TRIPOS>MOLECULE
*****
 40 43 0 0 0
SMALL
GASTEIGER

@<TRIPOS>ATOM
      1 C          -0.1800    3.2820   24.5308 C.ar    1  UNL1        0.0611
      2 C          -1.3320    4.1886   24.2132 C.ar    1  UNL1        0.1037
      3 N          -1.7716    3.9045   22.8075 N.ar    1  UNL1       -0.2269
      4 C          -0.8913    2.8222   22.2563 C.ar    1  UNL1        0.1407
      5 N          -0.8583    2.1374   20.9222 N.ar    1  UNL1       -0.3374
      6 C           0.1584    1.0679   20.6531 C.ar    1  UNL1        0.0734
      7 C           1.1421    0.6832   21.7182 C.ar    1  UNL1        0.0171
      8 C           1.1091    1.3680   23.0523 C.ar    1  UNL1        0.0046
      9 C           0.0924    2.4375   23.3214 C.ar    1  UNL1        0.0386
     10 H          -1.5039    2.3899   20.2231 H       1  UNL1        0.1674
     11 C           2.1588   -0.3864   21.4491 C.ar    1  UNL1        0.0015
     12 C           2.2846   -0.9728   20.0742 C.ar    1  UNL1        0.0014
     13 C           3.3013   -2.0424   19.8052 C.ar    1  UNL1        0.0199
     14 C           4.1922   -2.5255   20.9110 C.ar    1  UNL1        0.1217
     15 C           4.0664   -1.9391   22.2859 C.ar    1  UNL1        0.0199
     16 C           3.0497   -0.8696   22.5549 C.ar    1  UNL1        0.0014
     17 S           5.2089   -3.5951   20.6420 S.O2    1  UNL1        0.0572
     18 N           6.2255   -4.6646   20.3729 N.3     1  UNL1       -0.2035
     19 O           5.6123   -2.8938   19.3789 O.2     1  UNL1       -0.1532
     20 O           4.8054   -4.2963   21.9050 O.2     1  UNL1       -0.1532
     21 H           6.7147   -4.4575   19.5021 H       1  UNL1        0.1442
     22 H           5.7568   -5.5670   20.2932 H       1  UNL1        0.1442
     23 C           0.5683    3.2291   25.8297 C.2     1  UNL1        0.2015
     24 O           1.5661    4.2978   26.1646 O.2     1  UNL1       -0.2864
     25 C           1.1793    0.0416   28.1139 C.ar    1  UNL1        0.0920
     26 C          -0.1803   -0.1360   28.7222 C.ar    1  UNL1        0.0204
     27 C          -1.2903    0.8081   28.3663 C.ar    1  UNL1        0.0312
     28 C          -1.0409    1.9298   27.4022 C.ar    1  UNL1        0.1454
     29 F          -2.1509    2.8738   27.0464 F       1  UNL1       -0.2040
     30 C           0.3187    2.1074   26.7939 C.ar    1  UNL1        0.0951
     31 C           1.4287    1.1633   27.1498 C.ar    1  UNL1        0.1598
     32 F           2.7883    1.3410   26.5414 F       1  UNL1       -0.2026
     33 N           2.2893   -0.9024   28.4697 N.pl3   1  UNL1       -0.2166
     34 H           2.3971   -1.7452   27.9723 H       1  UNL1        0.1734
     35 S           3.2349   -0.5624   29.5833 S.O2    1  UNL1        0.0540
     36 O           4.3424   -0.3822   28.5878 O.2     1  UNL1       -0.1545
     37 O           2.1274   -0.7427   30.5788 O.2     1  UNL1       -0.1545
     38 C           4.1805   -0.2224   30.6969 C.3     1  UNL1        0.1724
     39 C           5.1119   -2.1488   32.1707 C.3     1  UNL1        0.0019
     40 C           4.1530   -1.0126   31.9717 C.3     1  UNL1        0.0273
@<TRIPOS>BOND
     1    39    40    1
     2    40    38    1
     3    38    35    1
     4    35    36    2
     5    35    37    2
     6    35    33    1
     7    33    25    1
     8    25    26   ar
     9    26    27   ar
    10    27    28   ar
    11    28    29    1
    12    28    30   ar
    13    30    23    1
    14    23    24    2
    15    23     1    1
    16     1     2   ar
    17     2     3   ar
    18     3     4   ar
    19     4     5   ar
    20     5     6   ar
    21     6     7   ar
    22     7    11    1
    23    11    12   ar
    24    12    13   ar
    25    13    14   ar
    26    14    17    1
    27    17    18    1
    28    17    19    2
    29    17    20    2
    30    14    15   ar
    31    15    16   ar
    32     7     8   ar
    33     8     9   ar
    34    30    31   ar
    35    31    32    1
    36    31    25   ar
    37     9     1   ar
    38     9     4    1
    39    16    11   ar
    40    33    34    1
    41     5    10    1
    42    18    21    1
    43    18    22    1
@<TRIPOS>MOLECULE
*****
 40 43 0 0 0
SMALL
GASTEIGER

@<TRIPOS>ATOM
      1 C           0.6207    1.7134   22.7027 C.ar    1  UNL1        0.0611
      2 C          -0.1722    2.6415   23.5744 C.ar    1  UNL1        0.1037
      3 N           0.2657    2.4315   24.9937 N.ar    1  UNL1       -0.2269
      4 C           1.3291    1.3737   24.9990 C.ar    1  UNL1        0.1407
      5 N           2.1260    0.7572   26.1103 N.ar    1  UNL1       -0.3374
      6 C           3.1423   -0.3031   25.8056 C.ar    1  UNL1        0.0734
      7 C           3.3618   -0.7469   24.3896 C.ar    1  UNL1        0.0171
      8 C           2.5649   -0.1304   23.2784 C.ar    1  UNL1        0.0046
      9 C           1.5486    0.9299   23.5831 C.ar    1  UNL1        0.0386
     10 H           1.9820    1.0485   27.0396 H       1  UNL1        0.1674
     11 C           4.3782   -1.8072   24.0850 C.ar    1  UNL1        0.0015
     12 C           4.2789   -2.5984   22.8145 C.ar    1  UNL1        0.0014
     13 C           5.2953   -3.6587   22.5099 C.ar    1  UNL1        0.0199
     14 C           6.4110   -3.9277   23.4757 C.ar    1  UNL1        0.1217
     15 C           6.5103   -3.1365   24.7462 C.ar    1  UNL1        0.0199
     16 C           5.4939   -2.0762   25.0508 C.ar    1  UNL1        0.0014
     17 S           7.4273   -4.9880   23.1711 S.O2    1  UNL1        0.0572
     18 N           8.4437   -6.0482   22.8665 N.3     1  UNL1       -0.2035
     19 O           7.5716   -5.2708   24.6371 O.2     1  UNL1       -0.1532
     20 O           7.2830   -4.7051   21.7051 O.2     1  UNL1       -0.1532
     21 H           8.7666   -6.4699   23.7373 H       1  UNL1        0.1442
     22 H           9.2350   -5.6301   22.3773 H       1  UNL1        0.1442
     23 C           0.5059    1.5905   21.2121 C.2     1  UNL1        0.2015
     24 O          -0.8465    1.5439   20.5653 O.2     1  UNL1       -0.2864
     25 C           3.2587    0.2098   18.7088 C.ar    1  UNL1        0.0920
     26 C           4.2194    1.3614   18.6808 C.ar    1  UNL1        0.0204
     27 C           3.9424    2.5894   19.4965 C.ar    1  UNL1        0.0312
     28 C           2.7046    2.6658   20.3403 C.ar    1  UNL1        0.1454
     29 F           2.4275    3.8937   21.1560 F       1  UNL1       -0.2040
     30 C           1.7438    1.5141   20.3683 C.ar    1  UNL1        0.0951
     31 C           2.0209    0.2862   19.5526 C.ar    1  UNL1        0.1598
     32 F           1.0601   -0.8654   19.5807 F       1  UNL1       -0.2026
     33 N           3.5358   -1.0181   17.8931 N.pl3   1  UNL1       -0.2166
     34 H           2.9775   -1.2244   17.1088 H       1  UNL1        0.1734
     35 S           4.6634   -1.9317   18.2723 S.O2    1  UNL1        0.0540
     36 O           3.8212   -2.5169   19.3668 O.2     1  UNL1       -0.1545
     37 O           5.5056   -1.3465   17.1777 O.2     1  UNL1       -0.1545
     38 C           5.7910   -2.8452   18.6514 C.3     1  UNL1        0.1724
     39 C           7.0551   -1.3082   20.3217 C.3     1  UNL1        0.0019
     40 C           7.0757   -2.2740   19.1742 C.3     1  UNL1        0.0273
@<TRIPOS>BOND
     1    39    40    1
     2    40    38    1
     3    38    35    1
     4    35    36    2
     5    35    37    2
     6    35    33    1
     7    33    25    1
     8    25    26   ar
     9    26    27   ar
    10    27    28   ar
    11    28    29    1
    12    28    30   ar
    13    30    23    1
    14    23    24    2
    15    23     1    1
    16     1     2   ar
    17     2     3   ar
    18     3     4   ar
    19     4     5   ar
    20     5     6   ar
    21     6     7   ar
    22     7    11    1
    23    11    12   ar
    24    12    13   ar
    25    13    14   ar
    26    14    17    1
    27    17    18    1
    28    17    19    2
    29    17    20    2
    30    14    15   ar
    31    15    16   ar
    32     7     8   ar
    33     8     9   ar
    34    30    31   ar
    35    31    32    1
    36    31    25   ar
    37     9     1   ar
    38     9     4    1
    39    16    11   ar
    40    33    34    1
    41     5    10    1
    42    18    21    1
    43    18    22    1
