@<TRIPOS>MOLECULE
*****
 34 36 0 0 0
SMALL
GASTEIGER

@<TRIPOS>ATOM
      1 C          -0.4290    2.6492   26.7903 C.ar    1  UNL1        0.0617
      2 C          -0.9649    1.5068   27.6015 C.ar    1  UNL1        0.0461
      3 C          -0.2758    1.0999   28.8703 C.ar    1  UNL1        0.1568
      4 F          -0.8117   -0.0425   29.6815 F       1  UNL1       -0.2027
      5 C           0.9489    1.8351   29.3277 C.ar    1  UNL1        0.1036
      6 C           1.4847    2.9774   28.5166 C.ar    1  UNL1        0.1568
      7 F           2.7095    3.7126   28.9741 F       1  UNL1       -0.2027
      8 C           0.7957    3.3844   27.2478 C.ar    1  UNL1        0.0461
      9 N           1.6378    1.4280   30.5965 N.pl3   1  UNL1       -0.3008
     10 C           1.4727    2.3651   31.7562 C.3     1  UNL1        0.1097
     11 C           2.0297    2.2432   33.1436 C.3     1  UNL1        0.1092
     12 N           2.8894    1.1545   33.7139 N.3     1  UNL1       -0.2249
     13 N           3.4045   -0.0815   33.0379 N.am    1  UNL1       -0.2207
     14 C           4.2486   -0.9845   33.8876 C.2     1  UNL1        0.2686
     15 O           4.5276   -0.6245   35.3168 O.2     1  UNL1       -0.2709
     16 C           3.1870   -0.5339   31.6243 C.3     1  UNL1        0.1327
     17 C           2.4007    0.1380   30.5379 C.3     1  UNL1        0.1141
     18 H           2.3630    0.8067   34.5155 H       1  UNL1        0.1453
     19 C           4.8137   -2.2474   33.3081 C.3     1  UNL1        0.2245
     20 O           4.0229   -3.5206   33.3705 O.3     1  UNL1       -0.3736
     21 H           3.9256   -3.7958   34.2955 H       1  UNL1        0.2111
     22 C          -1.5519    3.5380   23.1828 C.3     1  UNL1        0.2101
     23 C          -0.5095    3.0616   24.1505 C.3     1  UNL1        0.1468
     24 N          -1.1180    3.0562   25.5216 N.am    1  UNL1       -0.2211
     25 C          -2.5363    3.5293   25.4012 C.2     1  UNL1        0.4088
     26 O          -3.5147    3.6784   26.5283 O.2     1  UNL1       -0.2258
     27 O          -2.8044    3.8270   23.9557 O.3     1  UNL1       -0.4345
     28 C          -1.3730    3.6974   21.7020 C.3     1  UNL1        0.1358
     29 N          -2.1457    2.8275   20.7553 N.am    1  UNL1       -0.2954
     30 H          -1.7174    2.0388   20.3505 H       1  UNL1        0.1502
     31 C          -3.5708    3.1593   20.4252 C.2     1  UNL1        0.2296
     32 S          -3.8926    3.9256   19.1764 S.2     1  UNL1        0.0058
     33 C          -5.5915    3.7455   21.9492 C.3     1  UNL1        0.2545
     34 O          -4.6741    2.7248   21.3437 O.3     1  UNL1       -0.4543
@<TRIPOS>BOND
     1    33    34    1
     2    34    31    1
     3    31    32    2
     4    31    29    1
     5    29    28    1
     6    22    28    1
     7    22    23    1
     8    23    24    1
     9    24     1    1
    10     1     2   ar
    11     2     3   ar
    12     3     4    1
    13     3     5   ar
    14     5     9    1
    15     9    10    1
    16    10    11    1
    17    11    12    1
    18    12    13    1
    19    13    14   am
    20    14    15    2
    21    14    19    1
    22    19    20    1
    23    13    16    1
    24    16    17    1
    25     5     6   ar
    26     6     7    1
    27     6     8   ar
    28    24    25   am
    29    25    26    2
    30    25    27    1
    31    27    22    1
    32     8     1   ar
    33    17     9    1
    34    29    30    1
    35    12    18    1
    36    20    21    1
@<TRIPOS>MOLECULE
*****
 34 36 0 0 0
SMALL
GASTEIGER

@<TRIPOS>ATOM
      1 C          -0.9467    2.7998   26.9248 C.ar    1  UNL1        0.0617
      2 C           0.1252    3.6894   27.4815 C.ar    1  UNL1        0.0461
      3 C           0.8919    3.2677   28.6998 C.ar    1  UNL1        0.1568
      4 F           1.9638    4.1573   29.2565 F       1  UNL1       -0.2027
      5 C           0.5869    1.9565   29.3614 C.ar    1  UNL1        0.1036
      6 C          -0.4849    1.0670   28.8048 C.ar    1  UNL1        0.1568
      7 F          -0.7900   -0.2442   29.4664 F       1  UNL1       -0.2027
      8 C          -1.2518    1.4886   27.5864 C.ar    1  UNL1        0.0461
      9 N           1.3537    1.5349   30.5797 N.pl3   1  UNL1       -0.3008
     10 C           1.1299    2.3649   31.8090 C.3     1  UNL1        0.1097
     11 C           1.7401    2.2041   33.1699 C.3     1  UNL1        0.1092
     12 N           2.7246    1.1736   33.6375 N.3     1  UNL1       -0.2249
     13 N           3.3423    0.0494   32.8599 N.am    1  UNL1       -0.2207
     14 C           4.3010   -0.8181   33.6201 C.2     1  UNL1        0.2686
     15 O           4.5867   -0.5331   35.0648 O.2     1  UNL1       -0.2709
     16 C           3.1278   -0.3219   31.4225 C.3     1  UNL1        0.1327
     17 C           2.2428    0.3392   30.4077 C.3     1  UNL1        0.1141
     18 H           2.2623    0.7168   34.4236 H       1  UNL1        0.1453
     19 C           4.9743   -1.9707   32.9356 C.3     1  UNL1        0.2245
     20 O           4.4479   -3.3633   33.1194 O.3     1  UNL1       -0.3736
     21 H           4.5637   -3.6334   34.0438 H       1  UNL1        0.2111
     22 C          -2.2777    3.7805   23.4132 C.3     1  UNL1        0.2101
     23 C          -1.1678    3.3240   24.3130 C.3     1  UNL1        0.1468
     24 N          -1.7135    3.2215   25.7066 N.am    1  UNL1       -0.2211
     25 C          -3.1605    3.6147   25.6679 C.2     1  UNL1        0.4088
     26 O          -4.0948    3.6552   26.8406 O.2     1  UNL1       -0.2258
     27 O          -3.5091    3.9602   24.2504 O.3     1  UNL1       -0.4345
     28 C          -2.1741    4.0161   21.9354 C.3     1  UNL1        0.1358
     29 N          -2.0886    2.8511   20.9944 N.am    1  UNL1       -0.2954
     30 H          -2.9111    2.4104   20.6804 H       1  UNL1        0.1502
     31 C          -0.7498    2.3574   20.5317 C.2     1  UNL1        0.2296
     32 S          -0.0254    3.0746   19.4313 S.2     1  UNL1        0.0058
     33 C           0.4709    0.0745   20.3134 C.3     1  UNL1        0.2545
     34 O          -0.1356    1.1467   21.1693 O.3     1  UNL1       -0.4543
@<TRIPOS>BOND
     1    33    34    1
     2    34    31    1
     3    31    32    2
     4    31    29    1
     5    29    28    1
     6    22    28    1
     7    22    23    1
     8    23    24    1
     9    24     1    1
    10     1     2   ar
    11     2     3   ar
    12     3     4    1
    13     3     5   ar
    14     5     9    1
    15     9    10    1
    16    10    11    1
    17    11    12    1
    18    12    13    1
    19    13    14   am
    20    14    15    2
    21    14    19    1
    22    19    20    1
    23    13    16    1
    24    16    17    1
    25     5     6   ar
    26     6     7    1
    27     6     8   ar
    28    24    25   am
    29    25    26    2
    30    25    27    1
    31    27    22    1
    32     8     1   ar
    33    17     9    1
    34    29    30    1
    35    12    18    1
    36    20    21    1
@<TRIPOS>MOLECULE
*****
 34 36 0 0 0
SMALL
GASTEIGER

@<TRIPOS>ATOM
      1 C         -15.1900   -5.8926   18.8020 C.ar    1  UNL1        0.0617
      2 C         -15.8772   -5.0508   17.7679 C.ar    1  UNL1        0.0461
      3 C         -15.7395   -3.5576   17.8040 C.ar    1  UNL1        0.1568
      4 F         -16.4268   -2.7158   16.7700 F       1  UNL1       -0.2027
      5 C         -14.9146   -2.9061   18.8741 C.ar    1  UNL1        0.1036
      6 C         -14.2274   -3.7478   19.9081 C.ar    1  UNL1        0.1568
      7 F         -13.4025   -3.0963   20.9782 F       1  UNL1       -0.2027
      8 C         -14.3651   -5.2411   19.8721 C.ar    1  UNL1        0.0461
      9 N         -14.7770   -1.4129   18.9101 N.pl3   1  UNL1       -0.3008
     10 C         -13.5027   -0.8629   18.3409 C.3     1  UNL1        0.1097
     11 C         -13.0685    0.5688   18.2316 C.3     1  UNL1        0.1092
     12 N         -13.8012    1.8039   18.6643 N.3     1  UNL1       -0.2249
     13 N         -15.1492    1.9126   19.3134 N.am    1  UNL1       -0.2207
     14 C         -15.6099    3.3051   19.6274 C.2     1  UNL1        0.2686
     15 O         -14.7368    4.4776   19.2915 O.2     1  UNL1       -0.2709
     16 C         -16.0973    0.8129   19.6900 C.3     1  UNL1        0.1327
     17 C         -15.9315   -0.6671   19.5104 C.3     1  UNL1        0.1141
     18 H         -13.8802    2.3646   17.8160 H       1  UNL1        0.1453
     19 C         -16.9438    3.5251   20.2774 C.3     1  UNL1        0.2245
     20 O         -17.0219    3.8363   21.7427 O.3     1  UNL1       -0.3736
     21 H         -16.7173    3.0696   22.2528 H       1  UNL1        0.2111
     22 C         -16.2444   -9.6246   18.9599 C.3     1  UNL1        0.2101
     23 C         -16.5491   -8.1681   19.1484 C.3     1  UNL1        0.1468
     24 N         -15.3277   -7.3858   18.7659 N.am    1  UNL1       -0.2211
     25 C         -14.2682   -8.3589   18.3410 C.2     1  UNL1        0.4088
     26 O         -12.8850   -8.0096   17.8777 O.2     1  UNL1       -0.2258
     27 O         -14.8348   -9.7426   18.4610 O.3     1  UNL1       -0.4345
     28 C         -17.1844  -10.7634   19.2240 C.3     1  UNL1        0.1358
     29 N         -18.2285  -11.1248   18.2095 N.am    1  UNL1       -0.2954
     30 H         -18.1835  -11.9911   17.7440 H       1  UNL1        0.1502
     31 C         -19.3412  -10.1662   17.9042 C.2     1  UNL1        0.2296
     32 S         -19.3764   -9.4538   16.5846 S.2     1  UNL1        0.0058
     33 C         -20.2869   -8.7869   19.8923 C.3     1  UNL1        0.2545
     34 O         -20.4185   -9.9201   18.9184 O.3     1  UNL1       -0.4543
@<TRIPOS>BOND
     1    33    34    1
     2    34    31    1
     3    31    32    2
     4    31    29    1
     5    29    28    1
     6    22    28    1
     7    22    23    1
     8    23    24    1
     9    24     1    1
    10     1     2   ar
    11     2     3   ar
    12     3     4    1
    13     3     5   ar
    14     5     9    1
    15     9    10    1
    16    10    11    1
    17    11    12    1
    18    12    13    1
    19    13    14   am
    20    14    15    2
    21    14    19    1
    22    19    20    1
    23    13    16    1
    24    16    17    1
    25     5     6   ar
    26     6     7    1
    27     6     8   ar
    28    24    25   am
    29    25    26    2
    30    25    27    1
    31    27    22    1
    32     8     1   ar
    33    17     9    1
    34    29    30    1
    35    12    18    1
    36    20    21    1
@<TRIPOS>MOLECULE
*****
 34 36 0 0 0
SMALL
GASTEIGER

@<TRIPOS>ATOM
      1 C           0.4728    2.1337   26.1530 C.ar    1  UNL1        0.0617
      2 C          -0.4122    1.4821   27.1739 C.ar    1  UNL1        0.0461
      3 C           0.1310    1.1436   28.5306 C.ar    1  UNL1        0.1568
      4 F          -0.7540    0.4920   29.5515 F       1  UNL1       -0.2027
      5 C           1.5590    1.4566   28.8663 C.ar    1  UNL1        0.1036
      6 C           2.4440    2.1082   27.8454 C.ar    1  UNL1        0.1568
      7 F           3.8720    2.4212   28.1811 F       1  UNL1       -0.2027
      8 C           1.9008    2.4468   26.4887 C.ar    1  UNL1        0.0461
      9 N           2.1020    1.1180   30.2229 N.pl3   1  UNL1       -0.3008
     10 C           1.9770    2.1937   31.2609 C.3     1  UNL1        0.1097
     11 C           2.4173    2.1655   32.6947 C.3     1  UNL1        0.1092
     12 N           3.0914    1.0550   33.4443 N.3     1  UNL1       -0.2249
     13 N           3.4917   -0.3019   32.9455 N.am    1  UNL1       -0.2207
     14 C           4.1545   -1.1956   33.9514 C.2     1  UNL1        0.2686
     15 O           4.3777   -0.7110   35.3533 O.2     1  UNL1       -0.2709
     16 C           3.3167   -0.8832   31.5739 C.3     1  UNL1        0.1327
     17 C           2.6982   -0.2512   30.3622 C.3     1  UNL1        0.1141
     18 H           2.4714    0.8651   34.2317 H       1  UNL1        0.1453
     19 C           4.5943   -2.5740   33.5554 C.3     1  UNL1        0.2245
     20 O           3.6355   -3.7236   33.6514 O.3     1  UNL1       -0.3736
     21 H           3.4158   -3.8845   34.5824 H       1  UNL1        0.2111
     22 C          -0.4340    2.5008   22.3970 C.3     1  UNL1        0.2101
     23 C           0.3742    1.8745   23.4944 C.3     1  UNL1        0.1468
     24 N          -0.0703    2.4723   24.7964 N.am    1  UNL1       -0.2211
     25 C          -1.1532    3.4681   24.5036 C.2     1  UNL1        0.4088
     26 O          -1.8830    4.3001   25.5159 O.2     1  UNL1       -0.2258
     27 O          -1.3779    3.4857   23.0206 O.3     1  UNL1       -0.4345
     28 C          -0.3186    2.1958   20.9328 C.3     1  UNL1        0.1358
     29 N          -0.3127    0.7718   20.4615 N.am    1  UNL1       -0.2954
     30 H          -1.0605    0.1741   20.6913 H       1  UNL1        0.1502
     31 C           0.8327    0.2583   19.6401 C.2     1  UNL1        0.2296
     32 S           1.4020    1.1011   18.5376 S.2     1  UNL1        0.0058
     33 C           2.8107   -1.2246   20.4387 C.3     1  UNL1        0.2545
     34 O           1.4085   -1.0978   19.9213 O.3     1  UNL1       -0.4543
@<TRIPOS>BOND
     1    33    34    1
     2    34    31    1
     3    31    32    2
     4    31    29    1
     5    29    28    1
     6    22    28    1
     7    22    23    1
     8    23    24    1
     9    24     1    1
    10     1     2   ar
    11     2     3   ar
    12     3     4    1
    13     3     5   ar
    14     5     9    1
    15     9    10    1
    16    10    11    1
    17    11    12    1
    18    12    13    1
    19    13    14   am
    20    14    15    2
    21    14    19    1
    22    19    20    1
    23    13    16    1
    24    16    17    1
    25     5     6   ar
    26     6     7    1
    27     6     8   ar
    28    24    25   am
    29    25    26    2
    30    25    27    1
    31    27    22    1
    32     8     1   ar
    33    17     9    1
    34    29    30    1
    35    12    18    1
    36    20    21    1
@<TRIPOS>MOLECULE
*****
 34 36 0 0 0
SMALL
GASTEIGER

@<TRIPOS>ATOM
      1 C           5.4672   -3.1677   22.1814 C.ar    1  UNL1        0.0617
      2 C           6.7033   -3.9959   22.3719 C.ar    1  UNL1        0.0461
      3 C           7.3197   -4.1209   23.7337 C.ar    1  UNL1        0.1568
      4 F           8.5558   -4.9492   23.9242 F       1  UNL1       -0.2027
      5 C           6.7001   -3.4178   24.9049 C.ar    1  UNL1        0.1036
      6 C           5.4641   -2.5896   24.7144 C.ar    1  UNL1        0.1568
      7 F           4.8445   -1.8865   25.8855 F       1  UNL1       -0.2027
      8 C           4.8476   -2.4646   23.3526 C.ar    1  UNL1        0.0461
      9 N           7.3166   -3.5429   26.2666 N.pl3   1  UNL1       -0.3008
     10 C           8.5551   -2.7286   26.4975 C.3     1  UNL1        0.1097
     11 C           9.3960   -2.6360   27.7363 C.3     1  UNL1        0.1092
     12 N           9.2061   -3.3347   29.0498 N.3     1  UNL1       -0.2249
     13 N           8.1285   -4.2987   29.4493 N.am    1  UNL1       -0.2207
     14 C           8.2165   -4.8296   30.8494 C.2     1  UNL1        0.2686
     15 O           9.3329   -4.3898   31.7495 O.2     1  UNL1       -0.2709
     16 C           6.9746   -4.8020   28.6337 C.3     1  UNL1        0.1327
     17 C           6.6133   -4.4655   27.2173 C.3     1  UNL1        0.1141
     18 H           9.1404   -2.5804   29.7333 H       1  UNL1        0.1453
     19 C           7.1879   -5.8002   31.3495 C.3     1  UNL1        0.2245
     20 O           6.3028   -5.4276   32.5019 O.3     1  UNL1       -0.3736
     21 H           6.8396   -5.3322   33.3042 H       1  UNL1        0.2111
     22 C           4.1870   -2.1596   18.6586 C.3     1  UNL1        0.2101
     23 C           4.9493   -1.8516   19.9132 C.3     1  UNL1        0.1468
     24 N           4.8507   -3.0427   20.8197 N.am    1  UNL1       -0.2211
     25 C           4.0275   -4.0868   20.1253 C.2     1  UNL1        0.4088
     26 O           3.6762   -5.4391   20.6707 O.2     1  UNL1       -0.2258
     27 O           3.6173   -3.5409   18.7897 O.3     1  UNL1       -0.4345
     28 C           4.0231   -1.2464   17.4799 C.3     1  UNL1        0.1358
     29 N           3.6409    0.1887   17.6904 N.am    1  UNL1       -0.2954
     30 H           3.9654    0.8806   17.0697 H       1  UNL1        0.1502
     31 C           2.7643    0.5697   18.8465 C.2     1  UNL1        0.2296
     32 S           3.2547    1.5535   19.8671 S.2     1  UNL1        0.0058
     33 C           0.9486   -0.5847   20.3025 C.3     1  UNL1        0.2545
     34 O           1.3976   -0.0331   18.9818 O.3     1  UNL1       -0.4543
@<TRIPOS>BOND
     1    33    34    1
     2    34    31    1
     3    31    32    2
     4    31    29    1
     5    29    28    1
     6    22    28    1
     7    22    23    1
     8    23    24    1
     9    24     1    1
    10     1     2   ar
    11     2     3   ar
    12     3     4    1
    13     3     5   ar
    14     5     9    1
    15     9    10    1
    16    10    11    1
    17    11    12    1
    18    12    13    1
    19    13    14   am
    20    14    15    2
    21    14    19    1
    22    19    20    1
    23    13    16    1
    24    16    17    1
    25     5     6   ar
    26     6     7    1
    27     6     8   ar
    28    24    25   am
    29    25    26    2
    30    25    27    1
    31    27    22    1
    32     8     1   ar
    33    17     9    1
    34    29    30    1
    35    12    18    1
    36    20    21    1
@<TRIPOS>MOLECULE
*****
 34 36 0 0 0
SMALL
GASTEIGER

@<TRIPOS>ATOM
      1 C           7.6588   -4.8651   24.9776 C.ar    1  UNL1        0.0617
      2 C           8.3347   -5.1518   23.6695 C.ar    1  UNL1        0.0461
      3 C           7.7333   -4.6524   22.3893 C.ar    1  UNL1        0.1568
      4 F           8.4091   -4.9391   21.0812 F       1  UNL1       -0.2027
      5 C           6.4561   -3.8663   22.4172 C.ar    1  UNL1        0.1036
      6 C           5.7802   -3.5796   23.7252 C.ar    1  UNL1        0.1568
      7 F           4.5030   -2.7935   23.7530 F       1  UNL1       -0.2027
      8 C           6.3816   -4.0790   25.0055 C.ar    1  UNL1        0.0461
      9 N           5.8547   -3.3669   21.1369 N.pl3   1  UNL1       -0.3008
     10 C           4.7789   -4.2279   20.5440 C.3     1  UNL1        0.1097
     11 C           3.9913   -4.0071   19.2865 C.3     1  UNL1        0.1092
     12 N           4.0851   -2.8712   18.3116 N.3     1  UNL1       -0.2249
     13 N           4.9896   -1.6753   18.3531 N.am    1  UNL1       -0.2207
     14 C           4.8402   -0.7066   17.2177 C.2     1  UNL1        0.2686
     15 O           3.8338   -0.9677   16.1365 O.2     1  UNL1       -0.2709
     16 C           6.0237   -1.3200   19.3799 C.3     1  UNL1        0.1327
     17 C           6.4086   -2.0729   20.6188 C.3     1  UNL1        0.1141
     18 H           3.1439   -2.4789   18.2850 H       1  UNL1        0.1453
     19 C           5.6972    0.5233   17.1634 C.3     1  UNL1        0.2245
     20 O           6.9658    0.5188   16.3629 O.3     1  UNL1       -0.3736
     21 H           7.5968   -0.1014   16.7605 H       1  UNL1        0.2111
     22 C           9.1155   -5.4490   28.5275 C.3     1  UNL1        0.2101
     23 C           8.5003   -4.5513   27.4952 C.3     1  UNL1        0.1468
     24 N           8.2602   -5.3645   26.2578 N.am    1  UNL1       -0.2211
     25 C           8.7270   -6.7646   26.5253 C.2     1  UNL1        0.4088
     26 O           8.6745   -7.9112   25.5597 O.2     1  UNL1       -0.2258
     27 O           9.2557   -6.8168   27.9282 O.3     1  UNL1       -0.4345
     28 C           9.5197   -5.0490   29.9156 C.3     1  UNL1        0.1358
     29 N           8.7085   -4.0385   30.6711 N.am    1  UNL1       -0.2954
     30 H           9.0886   -3.1527   30.8719 H       1  UNL1        0.1502
     31 C           7.3182   -4.3774   31.1208 C.2     1  UNL1        0.2296
     32 S           6.9816   -5.7829   31.5224 S.2     1  UNL1        0.0058
     33 C           5.6976   -2.8758   32.4877 C.3     1  UNL1        0.2545
     34 O           6.2646   -3.3109   31.1689 O.3     1  UNL1       -0.4543
@<TRIPOS>BOND
     1    33    34    1
     2    34    31    1
     3    31    32    2
     4    31    29    1
     5    29    28    1
     6    22    28    1
     7    22    23    1
     8    23    24    1
     9    24     1    1
    10     1     2   ar
    11     2     3   ar
    12     3     4    1
    13     3     5   ar
    14     5     9    1
    15     9    10    1
    16    10    11    1
    17    11    12    1
    18    12    13    1
    19    13    14   am
    20    14    15    2
    21    14    19    1
    22    19    20    1
    23    13    16    1
    24    16    17    1
    25     5     6   ar
    26     6     7    1
    27     6     8   ar
    28    24    25   am
    29    25    26    2
    30    25    27    1
    31    27    22    1
    32     8     1   ar
    33    17     9    1
    34    29    30    1
    35    12    18    1
    36    20    21    1
@<TRIPOS>MOLECULE
*****
 34 36 0 0 0
SMALL
GASTEIGER

@<TRIPOS>ATOM
      1 C           1.5061    0.8346   27.0456 C.ar    1  UNL1        0.0617
      2 C           0.6707    1.1750   25.8472 C.ar    1  UNL1        0.0461
      3 C           1.2047    0.9308   24.4669 C.ar    1  UNL1        0.1568
      4 F           0.3692    1.2712   23.2684 F       1  UNL1       -0.2027
      5 C           2.5741    0.3463   24.2850 C.ar    1  UNL1        0.1036
      6 C           3.4095    0.0059   25.4834 C.ar    1  UNL1        0.1568
      7 F           4.7789   -0.5786   25.3015 F       1  UNL1       -0.2027
      8 C           2.8755    0.2501   26.8637 C.ar    1  UNL1        0.0461
      9 N           3.1080    0.1021   22.9046 N.pl3   1  UNL1       -0.3008
     10 C           3.3297    1.3264   22.0667 C.3     1  UNL1        0.1097
     11 C           3.8478    1.4169   20.6618 C.3     1  UNL1        0.1092
     12 N           4.2720    0.3057   19.7482 N.3     1  UNL1       -0.2249
     13 N           4.2831   -1.1706   20.0134 N.am    1  UNL1       -0.2207
     14 C           4.7689   -2.0311   18.8849 C.2     1  UNL1        0.2686
     15 O           5.2038   -1.4011   17.5950 O.2     1  UNL1       -0.2709
     16 C           3.8725   -1.9003   21.2580 C.3     1  UNL1        0.1327
     17 C           3.3496   -1.3338   22.5447 C.3     1  UNL1        0.1141
     18 H           5.2372    0.5289   19.5055 H       1  UNL1        0.1453
     19 C           4.8198   -3.5215   19.0463 C.3     1  UNL1        0.2245
     20 O           3.7677   -4.3811   18.4104 O.3     1  UNL1       -0.3736
     21 H           2.9095   -4.2021   18.8256 H       1  UNL1        0.2111
     22 C           0.7134    1.9319   30.6833 C.3     1  UNL1        0.2101
     23 C           1.5692    1.9948   29.4529 C.3     1  UNL1        0.1468
     24 N           0.9722    1.0788   28.4259 N.am    1  UNL1       -0.2211
     25 C          -0.2524    0.4499   29.0215 C.2     1  UNL1        0.4088
     26 O          -1.1581   -0.5335   28.3415 O.2     1  UNL1       -0.2258
     27 O          -0.4123    0.9772   30.4167 O.3     1  UNL1       -0.4345
     28 C           0.9431    2.6907   31.9567 C.3     1  UNL1        0.1358
     29 N           1.4862    1.9840   33.1633 N.am    1  UNL1       -0.2954
     30 H           0.9003    1.8048   33.9339 H       1  UNL1        0.1502
     31 C           2.9218    1.5505   33.1957 C.2     1  UNL1        0.2296
     32 S           4.0073    2.5655   33.3994 S.2     1  UNL1        0.0058
     33 C           3.3946   -0.4821   31.6483 C.3     1  UNL1        0.2545
     34 O           3.2719    0.1021   33.0244 O.3     1  UNL1       -0.4543
@<TRIPOS>BOND
     1    33    34    1
     2    34    31    1
     3    31    32    2
     4    31    29    1
     5    29    28    1
     6    22    28    1
     7    22    23    1
     8    23    24    1
     9    24     1    1
    10     1     2   ar
    11     2     3   ar
    12     3     4    1
    13     3     5   ar
    14     5     9    1
    15     9    10    1
    16    10    11    1
    17    11    12    1
    18    12    13    1
    19    13    14   am
    20    14    15    2
    21    14    19    1
    22    19    20    1
    23    13    16    1
    24    16    17    1
    25     5     6   ar
    26     6     7    1
    27     6     8   ar
    28    24    25   am
    29    25    26    2
    30    25    27    1
    31    27    22    1
    32     8     1   ar
    33    17     9    1
    34    29    30    1
    35    12    18    1
    36    20    21    1
@<TRIPOS>MOLECULE
*****
 34 36 0 0 0
SMALL
GASTEIGER

@<TRIPOS>ATOM
      1 C          -1.0692    2.8195   27.0697 C.ar    1  UNL1        0.0617
      2 C           0.0341    3.6640   27.6352 C.ar    1  UNL1        0.0461
      3 C           0.8904    3.1331   28.7465 C.ar    1  UNL1        0.1568
      4 F           1.9937    3.9775   29.3121 F       1  UNL1       -0.2027
      5 C           0.6434    1.7579   29.2922 C.ar    1  UNL1        0.1036
      6 C          -0.4598    0.9135   28.7267 C.ar    1  UNL1        0.1568
      7 F          -0.7067   -0.4617   29.2725 F       1  UNL1       -0.2027
      8 C          -1.3162    1.4444   27.6154 C.ar    1  UNL1        0.0461
      9 N           1.4998    1.2271   30.4035 N.pl3   1  UNL1       -0.3008
     10 C           1.3939    1.9547   31.7110 C.3     1  UNL1        0.1097
     11 C           2.1109    1.6738   32.9984 C.3     1  UNL1        0.1092
     12 N           3.1107    0.5961   33.2960 N.3     1  UNL1       -0.2249
     13 N           3.6407   -0.4670   32.3801 N.am    1  UNL1       -0.2207
     14 C           4.6421   -1.4064   32.9839 C.2     1  UNL1        0.2686
     15 O           5.0511   -1.2460   34.4181 O.2     1  UNL1       -0.2709
     16 C           3.3016   -0.7149   30.9401 C.3     1  UNL1        0.1327
     17 C           2.3487    0.0391   30.0605 C.3     1  UNL1        0.1141
     18 H           2.7061    0.0811   34.0780 H       1  UNL1        0.1453
     19 C           5.2345   -2.5062   32.1534 C.3     1  UNL1        0.2245
     20 O           5.6965   -3.7744   32.8079 O.3     1  UNL1       -0.3736
     21 H           6.4512   -3.5834   33.3865 H       1  UNL1        0.2111
     22 C          -3.8454    4.1285   24.6939 C.3     1  UNL1        0.2101
     23 C          -3.4032    3.5997   26.0261 C.3     1  UNL1        0.1468
     24 N          -1.9255    3.3504   25.9585 N.am    1  UNL1       -0.2211
     25 C          -1.4546    3.7251   24.5845 C.2     1  UNL1        0.4088
     26 O          -0.0448    3.6347   24.0805 O.2     1  UNL1       -0.2258
     27 O          -2.6412    4.2060   23.8030 O.3     1  UNL1       -0.4345
     28 C          -5.2460    4.5124   24.3185 C.3     1  UNL1        0.1358
     29 N          -6.0300    3.6551   23.3695 N.am    1  UNL1       -0.2954
     30 H          -6.7668    3.0955   23.7057 H       1  UNL1        0.1502
     31 C          -5.6912    3.6506   21.9083 C.2     1  UNL1        0.2296
     32 S          -6.3992    4.5838   20.9714 S.2     1  UNL1        0.0058
     33 C          -3.4864    3.2472   20.5945 C.3     1  UNL1        0.2545
     34 O          -4.6445    2.7128   21.3840 O.3     1  UNL1       -0.4543
@<TRIPOS>BOND
     1    33    34    1
     2    34    31    1
     3    31    32    2
     4    31    29    1
     5    29    28    1
     6    22    28    1
     7    22    23    1
     8    23    24    1
     9    24     1    1
    10     1     2   ar
    11     2     3   ar
    12     3     4    1
    13     3     5   ar
    14     5     9    1
    15     9    10    1
    16    10    11    1
    17    11    12    1
    18    12    13    1
    19    13    14   am
    20    14    15    2
    21    14    19    1
    22    19    20    1
    23    13    16    1
    24    16    17    1
    25     5     6   ar
    26     6     7    1
    27     6     8   ar
    28    24    25   am
    29    25    26    2
    30    25    27    1
    31    27    22    1
    32     8     1   ar
    33    17     9    1
    34    29    30    1
    35    12    18    1
    36    20    21    1
@<TRIPOS>MOLECULE
*****
 34 36 0 0 0
SMALL
GASTEIGER

@<TRIPOS>ATOM
      1 C           1.5397    1.0584   26.8686 C.ar    1  UNL1        0.0617
      2 C           2.9300    0.5401   26.6486 C.ar    1  UNL1        0.0461
      3 C           3.4112    0.2510   25.2575 C.ar    1  UNL1        0.1568
      4 F           4.8016   -0.2673   25.0375 F       1  UNL1       -0.2027
      5 C           2.5022    0.4803   24.0866 C.ar    1  UNL1        0.1036
      6 C           1.1119    0.9986   24.3067 C.ar    1  UNL1        0.1568
      7 F           0.2029    1.2278   23.1357 F       1  UNL1       -0.2027
      8 C           0.6306    1.2877   25.6977 C.ar    1  UNL1        0.0461
      9 N           2.9835    0.1912   22.6957 N.pl3   1  UNL1       -0.3008
     10 C           3.1858    1.3886   21.8150 C.3     1  UNL1        0.1097
     11 C           3.6534    1.4335   20.3904 C.3     1  UNL1        0.1092
     12 N           4.0342    0.2922   19.4948 N.3     1  UNL1       -0.2249
     13 N           4.0415   -1.1759   19.8023 N.am    1  UNL1       -0.2207
     14 C           4.4783   -2.0732   18.6825 C.2     1  UNL1        0.2686
     15 O           4.8719   -1.4850   17.3600 O.2     1  UNL1       -0.2709
     16 C           3.6697   -1.8653   21.0815 C.3     1  UNL1        0.1327
     17 C           3.1989   -1.2568   22.3692 C.3     1  UNL1        0.1141
     18 H           4.9920    0.4986   19.2112 H       1  UNL1        0.1453
     19 C           4.5215   -3.5589   18.8853 C.3     1  UNL1        0.2245
     20 O           3.2958   -4.3862   18.6333 O.3     1  UNL1       -0.3736
     21 H           2.6106   -4.1541   19.2794 H       1  UNL1        0.2111
     22 C           0.8241    2.3423   30.4609 C.3     1  UNL1        0.2101
     23 C           1.5947    2.4074   29.1756 C.3     1  UNL1        0.1468
     24 N           1.0585    1.3475   28.2596 N.am    1  UNL1       -0.2211
     25 C          -0.0434    0.6273   28.9788 C.2     1  UNL1        0.4088
     26 O          -0.8575   -0.5082   28.4333 O.2     1  UNL1       -0.2258
     27 O          -0.1882    1.2423   30.3393 O.3     1  UNL1       -0.4345
     28 C           1.0299    3.2228   31.6577 C.3     1  UNL1        0.1358
     29 N          -0.1403    3.6151   32.5103 N.am    1  UNL1       -0.2954
     30 H          -0.8259    2.9478   32.7425 H       1  UNL1        0.1502
     31 C          -0.2660    5.0242   33.0092 C.2     1  UNL1        0.2296
     32 S           0.9558    5.8839   33.1438 S.2     1  UNL1        0.0058
     33 C          -1.7170    6.7828   34.2547 C.3     1  UNL1        0.2545
     34 O          -1.6133    5.5734   33.3734 O.3     1  UNL1       -0.4543
@<TRIPOS>BOND
     1    33    34    1
     2    34    31    1
     3    31    32    2
     4    31    29    1
     5    29    28    1
     6    22    28    1
     7    22    23    1
     8    23    24    1
     9    24     1    1
    10     1     2   ar
    11     2     3   ar
    12     3     4    1
    13     3     5   ar
    14     5     9    1
    15     9    10    1
    16    10    11    1
    17    11    12    1
    18    12    13    1
    19    13    14   am
    20    14    15    2
    21    14    19    1
    22    19    20    1
    23    13    16    1
    24    16    17    1
    25     5     6   ar
    26     6     7    1
    27     6     8   ar
    28    24    25   am
    29    25    26    2
    30    25    27    1
    31    27    22    1
    32     8     1   ar
    33    17     9    1
    34    29    30    1
    35    12    18    1
    36    20    21    1
