@<TRIPOS>MOLECULE
*****
 39 43 0 0 0
SMALL
GASTEIGER

@<TRIPOS>ATOM
      1 C           3.2143    0.1516   30.6588 C.ar    1  UNL1        0.0843
      2 N           4.1889   -0.9094   30.2415 N.ar    1  UNL1       -0.2437
      3 C           5.1571   -1.4727   31.2391 C.ar    1  UNL1        0.0988
      4 C           5.1506   -0.9750   32.6541 C.ar    1  UNL1        0.0207
      5 C           4.1759    0.0860   33.0715 C.ar    1  UNL1        0.0043
      6 C           4.1695    0.5837   34.4865 C.ar    1  UNL1        0.0203
      7 C           3.1948    1.6447   34.9039 C.ar    1  UNL1        0.1252
      8 C           2.2266    2.2081   33.9062 C.ar    1  UNL1        0.0202
      9 C           2.2330    1.7104   32.4912 C.ar    1  UNL1        0.0029
     10 C           3.2078    0.6493   32.0738 C.ar    1  UNL1        0.0179
     11 C           2.5627    1.9973   28.9503 C.ar    1  UNL1        0.1402
     12 C           1.5945    2.5607   27.9527 C.ar    1  UNL1        0.0392
     13 C           0.3096    1.8417   27.6660 C.ar    1  UNL1        0.0305
     14 C          -0.0071    0.5593   28.3768 C.ar    1  UNL1        0.1403
     15 F          -1.2919   -0.1596   28.0901 F       1  UNL1       -0.2042
     16 C           0.9612   -0.0040   29.3745 C.ar    1  UNL1        0.0342
     17 C           2.2460    0.7150   29.6612 C.ar    1  UNL1        0.0538
     18 C          -0.6586    2.4051   26.6684 C.ar    1  UNL1        0.0022
     19 C          -0.3636    2.3099   25.2008 C.ar    1  UNL1        0.0001
     20 C          -1.3318    2.8733   24.2031 C.ar    1  UNL1       -0.0001
     21 C          -2.5949    3.5318   24.6731 C.ar    1  UNL1        0.0039
     22 C          -2.8898    3.6269   26.1408 C.ar    1  UNL1        0.0714
     23 C          -1.9217    3.0636   27.1384 C.ar    1  UNL1        0.0039
     24 C          -4.1529    4.2854   26.6108 C.3     1  UNL1        0.4186
     25 F          -5.4161    4.9439   27.0808 F       1  UNL1       -0.1659
     26 F          -3.3578    5.1354   27.5570 F       1  UNL1       -0.1659
     27 F          -4.9481    3.4355   25.6646 F       1  UNL1       -0.1659
     28 C           3.8327    3.9948   30.0215 C.3     1  UNL1        0.2525
     29 O           3.8476    2.7163   29.2371 O.3     1  UNL1       -0.4714
     30 S           3.1883    2.1425   36.3189 S.O2    1  UNL1        0.0748
     31 O           1.9200    2.8960   36.0480 O.2     1  UNL1       -0.1499
     32 O           4.4567    1.3889   36.5897 O.2     1  UNL1       -0.1499
     33 N           3.1819    2.6402   37.7339 N.pl3   1  UNL1       -0.1962
     34 H           3.7601    3.3935   37.9934 H       1  UNL1        0.1754
     35 C           2.2943    1.9901   38.7535 C.ar    1  UNL1        0.1893
     36 C           1.8776    0.5492   38.7693 C.ar    1  UNL1        0.0823
     37 C           0.9934    0.3354   39.9619 C.ar    1  UNL1        0.2152
     38 O           0.8635    1.6441   40.6833 O.2     1  UNL1       -0.3489
     39 N           1.6675    2.6668   39.9364 N.ar    1  UNL1       -0.0605
@<TRIPOS>BOND
     1    28    29    1
     2    29    11    1
     3    11    12   ar
     4    12    13   ar
     5    13    18    1
     6    18    19   ar
     7    19    20   ar
     8    20    21   ar
     9    21    22   ar
    10    22    24    1
    11    24    25    1
    12    24    26    1
    13    24    27    1
    14    22    23   ar
    15    13    14   ar
    16    14    15    1
    17    14    16   ar
    18    16    17   ar
    19    17     1    1
    20     1     2   ar
    21     2     3   ar
    22     3     4   ar
    23     4     5   ar
    24     5     6   ar
    25     6     7   ar
    26     7    30    1
    27    30    31    2
    28    30    32    2
    29    30    33    1
    30    33    35    1
    31    35    36   ar
    32    36    37   ar
    33    37    38   ar
    34    38    39   ar
    35     7     8   ar
    36     8     9   ar
    37     9    10   ar
    38    17    11   ar
    39    10     1   ar
    40    23    18   ar
    41    10     5   ar
    42    39    35   ar
    43    33    34    1
@<TRIPOS>MOLECULE
*****
 39 43 0 0 0
SMALL
GASTEIGER

@<TRIPOS>ATOM
      1 C           1.1637    2.1721   29.5816 C.ar    1  UNL1        0.0843
      2 N           0.4156    3.1553   30.4321 N.ar    1  UNL1       -0.2437
      3 C           0.6436    3.1908   31.9142 C.ar    1  UNL1        0.0988
      4 C           1.6197    2.2430   32.5458 C.ar    1  UNL1        0.0207
      5 C           2.3678    1.2598   31.6953 C.ar    1  UNL1        0.0043
      6 C           3.3439    0.3120   32.3269 C.ar    1  UNL1        0.0203
      7 C           4.0921   -0.6713   31.4764 C.ar    1  UNL1        0.1252
      8 C           3.8641   -0.7068   29.9941 C.ar    1  UNL1        0.0202
      9 C           2.8880    0.2410   29.3626 C.ar    1  UNL1        0.0029
     10 C           2.1398    1.2243   30.2132 C.ar    1  UNL1        0.0179
     11 C          -0.3005    1.4921   27.5460 C.ar    1  UNL1        0.1402
     12 C          -0.5285    1.4566   26.0638 C.ar    1  UNL1        0.0392
     13 C           0.4798    2.0655   25.1351 C.ar    1  UNL1        0.0305
     14 C           1.7161    2.7099   25.6885 C.ar    1  UNL1        0.1403
     15 F           2.7244    3.3188   24.7598 F       1  UNL1       -0.2042
     16 C           1.9441    2.7454   27.1707 C.ar    1  UNL1        0.0342
     17 C           0.9358    2.1366   28.0994 C.ar    1  UNL1        0.0538
     18 C           0.2518    2.0299   23.6529 C.ar    1  UNL1        0.0022
     19 C          -0.5903    3.0845   22.9982 C.ar    1  UNL1        0.0001
     20 C          -0.8183    3.0490   21.5160 C.ar    1  UNL1       -0.0001
     21 C          -0.2042    1.9589   20.6886 C.ar    1  UNL1        0.0039
     22 C           0.6379    0.9043   21.3435 C.ar    1  UNL1        0.0714
     23 C           0.8659    0.9398   22.8256 C.ar    1  UNL1        0.0039
     24 C           1.2520   -0.1858   20.5161 C.3     1  UNL1        0.4186
     25 F           1.8661   -1.2759   19.6887 F       1  UNL1       -0.1659
     26 F           2.0670   -0.6230   21.6970 F       1  UNL1       -0.1659
     27 F           0.4371    0.2514   19.3351 F       1  UNL1       -0.1659
     28 C          -1.2627   -0.5861   28.7728 C.3     1  UNL1        0.2525
     29 O          -1.3089    0.8832   28.4747 O.3     1  UNL1       -0.4714
     30 S           5.0682   -1.6191   32.1079 S.O2    1  UNL1        0.0748
     31 O           6.2068   -0.8278   31.5357 O.2     1  UNL1       -0.1499
     32 O           3.9296   -2.4104   32.6801 O.2     1  UNL1       -0.1499
     33 N           6.0443   -2.5669   32.7395 N.pl3   1  UNL1       -0.1962
     34 H           6.4703   -2.3361   33.5965 H       1  UNL1        0.1754
     35 C           6.3713   -3.8663   32.0653 C.ar    1  UNL1        0.1893
     36 C           6.7673   -4.0392   30.6289 C.ar    1  UNL1        0.0823
     37 C           7.0004   -5.5008   30.3851 C.ar    1  UNL1        0.2152
     38 O           6.7485   -6.2313   31.6708 O.2     1  UNL1       -0.3489
     39 N           6.3597   -5.2211   32.7092 N.ar    1  UNL1       -0.0605
@<TRIPOS>BOND
     1    28    29    1
     2    29    11    1
     3    11    12   ar
     4    12    13   ar
     5    13    18    1
     6    18    19   ar
     7    19    20   ar
     8    20    21   ar
     9    21    22   ar
    10    22    24    1
    11    24    25    1
    12    24    26    1
    13    24    27    1
    14    22    23   ar
    15    13    14   ar
    16    14    15    1
    17    14    16   ar
    18    16    17   ar
    19    17     1    1
    20     1     2   ar
    21     2     3   ar
    22     3     4   ar
    23     4     5   ar
    24     5     6   ar
    25     6     7   ar
    26     7    30    1
    27    30    31    2
    28    30    32    2
    29    30    33    1
    30    33    35    1
    31    35    36   ar
    32    36    37   ar
    33    37    38   ar
    34    38    39   ar
    35     7     8   ar
    36     8     9   ar
    37     9    10   ar
    38    17    11   ar
    39    10     1   ar
    40    23    18   ar
    41    10     5   ar
    42    39    35   ar
    43    33    34    1
@<TRIPOS>MOLECULE
*****
 39 43 0 0 0
SMALL
GASTEIGER

@<TRIPOS>ATOM
      1 C           0.5687    1.9481   24.0674 C.ar    1  UNL1        0.0843
      2 N          -0.3817    2.8836   23.3809 N.ar    1  UNL1       -0.2437
      3 C          -0.5679    2.8061   21.8946 C.ar    1  UNL1        0.0988
      4 C           0.1962    1.7930   21.0948 C.ar    1  UNL1        0.0207
      5 C           1.1466    0.8574   21.7813 C.ar    1  UNL1        0.0043
      6 C           1.9108   -0.1557   20.9815 C.ar    1  UNL1        0.0203
      7 C           2.8612   -1.0913   21.6681 C.ar    1  UNL1        0.1252
      8 C           3.0474   -1.0138   23.1545 C.ar    1  UNL1        0.0202
      9 C           2.2833   -0.0007   23.9543 C.ar    1  UNL1        0.0029
     10 C           1.3328    0.9349   23.2677 C.ar    1  UNL1        0.0179
     11 C           1.8603    2.8609   26.1286 C.ar    1  UNL1        0.1402
     12 C           2.0466    2.9384   27.6150 C.ar    1  UNL1        0.0392
     13 C           1.1275    2.1806   28.5266 C.ar    1  UNL1        0.0305
     14 C           0.0222    1.3452   27.9519 C.ar    1  UNL1        0.1403
     15 F          -0.8969    0.5874   28.8634 F       1  UNL1       -0.2042
     16 C          -0.1641    1.2677   26.4654 C.ar    1  UNL1        0.0342
     17 C           0.7550    2.0255   25.5539 C.ar    1  UNL1        0.0538
     18 C           1.3138    2.2581   30.0130 C.ar    1  UNL1        0.0022
     19 C           2.1306    1.2186   30.7216 C.ar    1  UNL1        0.0001
     20 C           2.3170    1.2960   32.2080 C.ar    1  UNL1       -0.0001
     21 C           1.6865    2.4131   32.9857 C.ar    1  UNL1        0.0039
     22 C           0.8697    3.4526   32.2770 C.ar    1  UNL1        0.0714
     23 C           0.6834    3.3751   30.7906 C.ar    1  UNL1        0.0039
     24 C           0.2392    4.5697   33.0546 C.3     1  UNL1        0.4186
     25 F          -0.3912    5.6867   33.8323 F       1  UNL1       -0.1659
     26 F           0.9576    4.1148   34.2904 F       1  UNL1       -0.1659
     27 F          -0.4791    5.0245   31.8189 F       1  UNL1       -0.1659
     28 C           2.5022    5.0584   24.9002 C.3     1  UNL1        0.2525
     29 O           2.7794    3.6187   25.2170 O.3     1  UNL1       -0.4714
     30 S           3.6253   -2.1044   20.8683 S.O2    1  UNL1        0.0748
     31 O           2.9125   -1.6607   19.6252 O.2     1  UNL1       -0.1499
     32 O           4.3381   -2.5480   22.1113 O.2     1  UNL1       -0.1499
     33 N           4.3895   -3.1175   20.0685 N.pl3   1  UNL1       -0.1962
     34 H           4.1066   -4.0605   20.0695 H       1  UNL1        0.1754
     35 C           5.5846   -2.6938   19.2671 C.ar    1  UNL1        0.1893
     36 C           6.9338   -2.3374   19.8173 C.ar    1  UNL1        0.0823
     37 C           7.8234   -1.9755   18.6650 C.ar    1  UNL1        0.2152
     38 O           7.0240   -2.1082   17.4027 O.2     1  UNL1       -0.3489
     39 N           5.6404   -2.5522   17.7748 N.ar    1  UNL1       -0.0605
@<TRIPOS>BOND
     1    28    29    1
     2    29    11    1
     3    11    12   ar
     4    12    13   ar
     5    13    18    1
     6    18    19   ar
     7    19    20   ar
     8    20    21   ar
     9    21    22   ar
    10    22    24    1
    11    24    25    1
    12    24    26    1
    13    24    27    1
    14    22    23   ar
    15    13    14   ar
    16    14    15    1
    17    14    16   ar
    18    16    17   ar
    19    17     1    1
    20     1     2   ar
    21     2     3   ar
    22     3     4   ar
    23     4     5   ar
    24     5     6   ar
    25     6     7   ar
    26     7    30    1
    27    30    31    2
    28    30    32    2
    29    30    33    1
    30    33    35    1
    31    35    36   ar
    32    36    37   ar
    33    37    38   ar
    34    38    39   ar
    35     7     8   ar
    36     8     9   ar
    37     9    10   ar
    38    17    11   ar
    39    10     1   ar
    40    23    18   ar
    41    10     5   ar
    42    39    35   ar
    43    33    34    1
@<TRIPOS>MOLECULE
*****
 39 43 0 0 0
SMALL
GASTEIGER

@<TRIPOS>ATOM
      1 C           6.9694   -3.6645   21.6208 C.ar    1  UNL1        0.0843
      2 N           7.9355   -4.0692   20.5471 N.ar    1  UNL1       -0.2437
      3 C           9.0630   -5.0054   20.8668 C.ar    1  UNL1        0.0988
      4 C           9.2243   -5.5369   22.2602 C.ar    1  UNL1        0.0207
      5 C           8.2582   -5.1322   23.3339 C.ar    1  UNL1        0.0043
      6 C           8.4196   -5.6637   24.7272 C.ar    1  UNL1        0.0203
      7 C           7.4535   -5.2589   25.8009 C.ar    1  UNL1        0.1252
      8 C           6.3260   -4.3227   25.4812 C.ar    1  UNL1        0.0202
      9 C           6.1646   -3.7912   24.0879 C.ar    1  UNL1        0.0029
     10 C           7.1308   -4.1960   23.0142 C.ar    1  UNL1        0.0179
     11 C           4.5779   -3.2572   20.6907 C.ar    1  UNL1        0.1402
     12 C           3.4504   -2.3210   20.3710 C.ar    1  UNL1        0.0392
     13 C           3.5867   -0.8558   20.6618 C.ar    1  UNL1        0.0305
     14 C           4.8507   -0.3268   21.2723 C.ar    1  UNL1        0.1403
     15 F           4.9871    1.1384   21.5630 F       1  UNL1       -0.2042
     16 C           5.9782   -1.2630   21.5919 C.ar    1  UNL1        0.0342
     17 C           5.8418   -2.7282   21.3011 C.ar    1  UNL1        0.0538
     18 C           2.4592    0.0804   20.3422 C.ar    1  UNL1        0.0022
     19 C           2.0996    0.3609   18.9132 C.ar    1  UNL1        0.0001
     20 C           0.9720    1.2971   18.5935 C.ar    1  UNL1       -0.0001
     21 C           0.2041    1.9528   19.7028 C.ar    1  UNL1        0.0039
     22 C           0.5638    1.6722   21.1318 C.ar    1  UNL1        0.0714
     23 C           1.6914    0.7361   21.4514 C.ar    1  UNL1        0.0039
     24 C          -0.2040    2.3279   22.2410 C.3     1  UNL1        0.4186
     25 F          -0.9719    2.9835   23.3503 F       1  UNL1       -0.1659
     26 F          -0.7692    3.3170   21.2652 F       1  UNL1       -0.1659
     27 F           0.3612    1.3388   23.2169 F       1  UNL1       -0.1659
     28 C           4.3438   -5.1996   18.9812 C.3     1  UNL1        0.2525
     29 O           4.4415   -4.7225   20.3999 O.3     1  UNL1       -0.4714
     30 S           7.6149   -5.7904   27.1943 S.O2    1  UNL1        0.0748
     31 O           9.0690   -5.4230   27.1660 O.2     1  UNL1       -0.1499
     32 O           6.1609   -6.1578   27.2225 O.2     1  UNL1       -0.1499
     33 N           7.7763   -6.3219   28.5876 N.pl3   1  UNL1       -0.1962
     34 H           8.2027   -7.1971   28.7344 H       1  UNL1        0.1754
     35 C           7.2880   -5.5200   29.7575 C.ar    1  UNL1        0.1893
     36 C           7.0055   -4.0468   29.7603 C.ar    1  UNL1        0.0823
     37 C           6.5393   -3.6668   31.1344 C.ar    1  UNL1        0.2152
     38 O           6.5338   -4.9052   31.9810 O.2     1  UNL1       -0.3489
     39 N           6.9965   -6.0504   31.1300 N.ar    1  UNL1       -0.0605
@<TRIPOS>BOND
     1    28    29    1
     2    29    11    1
     3    11    12   ar
     4    12    13   ar
     5    13    18    1
     6    18    19   ar
     7    19    20   ar
     8    20    21   ar
     9    21    22   ar
    10    22    24    1
    11    24    25    1
    12    24    26    1
    13    24    27    1
    14    22    23   ar
    15    13    14   ar
    16    14    15    1
    17    14    16   ar
    18    16    17   ar
    19    17     1    1
    20     1     2   ar
    21     2     3   ar
    22     3     4   ar
    23     4     5   ar
    24     5     6   ar
    25     6     7   ar
    26     7    30    1
    27    30    31    2
    28    30    32    2
    29    30    33    1
    30    33    35    1
    31    35    36   ar
    32    36    37   ar
    33    37    38   ar
    34    38    39   ar
    35     7     8   ar
    36     8     9   ar
    37     9    10   ar
    38    17    11   ar
    39    10     1   ar
    40    23    18   ar
    41    10     5   ar
    42    39    35   ar
    43    33    34    1
@<TRIPOS>MOLECULE
*****
 39 43 0 0 0
SMALL
GASTEIGER

@<TRIPOS>ATOM
      1 C           0.2704    2.2184   24.3397 C.ar    1  UNL1        0.0843
      2 N          -0.7424    3.1548   23.7504 N.ar    1  UNL1       -0.2437
      3 C          -1.0060    3.1419   22.2739 C.ar    1  UNL1        0.0988
      4 C          -0.2567    2.1927   21.3865 C.ar    1  UNL1        0.0207
      5 C           0.7562    1.2563   21.9757 C.ar    1  UNL1        0.0043
      6 C           1.5055    0.3070   21.0883 C.ar    1  UNL1        0.0203
      7 C           2.5184   -0.6294   21.6775 C.ar    1  UNL1        0.1252
      8 C           2.7820   -0.6166   23.1542 C.ar    1  UNL1        0.0202
      9 C           2.0326    0.3327   24.0416 C.ar    1  UNL1        0.0029
     10 C           1.0197    1.2691   23.4523 C.ar    1  UNL1        0.0179
     11 C           1.6449    3.0717   26.3726 C.ar    1  UNL1        0.1402
     12 C           1.9085    3.0846   27.8491 C.ar    1  UNL1        0.0392
     13 C           1.0612    2.2569   28.7695 C.ar    1  UNL1        0.0305
     14 C          -0.0496    1.4164   28.2133 C.ar    1  UNL1        0.1403
     15 F          -0.8969    0.5887   29.1336 F       1  UNL1       -0.2042
     16 C          -0.3132    1.4035   26.7366 C.ar    1  UNL1        0.0342
     17 C           0.5340    2.2312   25.8163 C.ar    1  UNL1        0.0538
     18 C           1.3249    2.2697   30.2461 C.ar    1  UNL1        0.0022
     19 C           0.7053    3.3285   31.1093 C.ar    1  UNL1        0.0001
     20 C           0.9689    3.3413   32.5860 C.ar    1  UNL1       -0.0001
     21 C           1.8521    2.2955   33.1993 C.ar    1  UNL1        0.0039
     22 C           2.4717    1.2367   32.3360 C.ar    1  UNL1        0.0714
     23 C           2.2080    1.2239   30.8594 C.ar    1  UNL1        0.0039
     24 C           3.3548    0.1909   32.9493 C.3     1  UNL1        0.4186
     25 F           4.2380   -0.8550   33.5626 F       1  UNL1       -0.1659
     26 F           3.2973   -0.6032   31.6781 F       1  UNL1       -0.1659
     27 F           3.4124    0.9850   34.2206 F       1  UNL1       -0.1659
     28 C           3.8967    3.4746   25.1407 C.3     1  UNL1        0.2525
     29 O           2.4922    3.8995   25.4522 O.3     1  UNL1       -0.4714
     30 S           3.2677   -1.5787   20.7902 S.O2    1  UNL1        0.0748
     31 O           2.5918   -0.9885   19.5881 O.2     1  UNL1       -0.1499
     32 O           3.9436   -2.1688   21.9922 O.2     1  UNL1       -0.1499
     33 N           4.0170   -2.5279   19.9028 N.pl3   1  UNL1       -0.1962
     34 H           3.7454   -3.4729   19.8521 H       1  UNL1        0.1754
     35 C           5.1802   -2.0374   19.0925 C.ar    1  UNL1        0.1893
     36 C           6.0877   -0.8986   19.4524 C.ar    1  UNL1        0.0823
     37 C           7.1085   -0.7570   18.3625 C.ar    1  UNL1        0.2152
     38 O           6.8318   -1.8084   17.3289 O.2     1  UNL1       -0.3489
     39 N           5.6401   -2.5997   17.7801 N.ar    1  UNL1       -0.0605
@<TRIPOS>BOND
     1    28    29    1
     2    29    11    1
     3    11    12   ar
     4    12    13   ar
     5    13    18    1
     6    18    19   ar
     7    19    20   ar
     8    20    21   ar
     9    21    22   ar
    10    22    24    1
    11    24    25    1
    12    24    26    1
    13    24    27    1
    14    22    23   ar
    15    13    14   ar
    16    14    15    1
    17    14    16   ar
    18    16    17   ar
    19    17     1    1
    20     1     2   ar
    21     2     3   ar
    22     3     4   ar
    23     4     5   ar
    24     5     6   ar
    25     6     7   ar
    26     7    30    1
    27    30    31    2
    28    30    32    2
    29    30    33    1
    30    33    35    1
    31    35    36   ar
    32    36    37   ar
    33    37    38   ar
    34    38    39   ar
    35     7     8   ar
    36     8     9   ar
    37     9    10   ar
    38    17    11   ar
    39    10     1   ar
    40    23    18   ar
    41    10     5   ar
    42    39    35   ar
    43    33    34    1
@<TRIPOS>MOLECULE
*****
 39 43 0 0 0
SMALL
GASTEIGER

@<TRIPOS>ATOM
      1 C           0.7078    1.9361   25.9535 C.ar    1  UNL1        0.0843
      2 N          -0.3835    2.9643   25.9132 N.ar    1  UNL1       -0.2437
      3 C          -0.9808    3.3729   24.5993 C.ar    1  UNL1        0.0988
      4 C          -0.4868    2.7532   23.3258 C.ar    1  UNL1        0.0207
      5 C           0.6046    1.7250   23.3661 C.ar    1  UNL1        0.0043
      6 C           1.0986    1.1054   22.0925 C.ar    1  UNL1        0.0203
      7 C           2.1900    0.0771   22.1329 C.ar    1  UNL1        0.1252
      8 C           2.7873   -0.3315   23.4468 C.ar    1  UNL1        0.0202
      9 C           2.2933    0.2882   24.7203 C.ar    1  UNL1        0.0029
     10 C           1.2019    1.3164   24.6800 C.ar    1  UNL1        0.0179
     11 C           0.5243    0.6588   28.2085 C.ar    1  UNL1        0.1402
     12 C           1.1216    0.2502   29.5223 C.ar    1  UNL1        0.0392
     13 C           2.4998    0.7102   29.8952 C.ar    1  UNL1        0.0305
     14 C           3.2807    1.5789   28.9541 C.ar    1  UNL1        0.1403
     15 F           4.6588    2.0390   29.3268 F       1  UNL1       -0.2042
     16 C           2.6833    1.9875   27.6402 C.ar    1  UNL1        0.0342
     17 C           1.3052    1.5275   27.2674 C.ar    1  UNL1        0.0538
     18 C           3.0971    0.3016   31.2090 C.ar    1  UNL1        0.0022
     19 C           2.9387    1.1840   32.4116 C.ar    1  UNL1        0.0001
     20 C           3.5360    0.7754   33.7256 C.ar    1  UNL1       -0.0001
     21 C           4.2916   -0.5156   33.8368 C.ar    1  UNL1        0.0039
     22 C           4.4499   -1.3980   32.6341 C.ar    1  UNL1        0.0714
     23 C           3.8527   -0.9894   31.3203 C.ar    1  UNL1        0.0039
     24 C           5.2056   -2.6890   32.7453 C.3     1  UNL1        0.4186
     25 F           5.9612   -3.9800   32.8566 F       1  UNL1       -0.1659
     26 F           4.1239   -3.2465   33.6224 F       1  UNL1       -0.1659
     27 F           6.2872   -2.1315   31.8683 F       1  UNL1       -0.1659
     28 C          -1.6945   -0.5388   28.8354 C.3     1  UNL1        0.2525
     29 O          -0.8540    0.1988   27.8357 O.3     1  UNL1       -0.4714
     30 S           2.6840   -0.5425   20.8593 S.O2    1  UNL1        0.0748
     31 O           1.2772   -0.9133   20.4940 O.2     1  UNL1       -0.1499
     32 O           4.0908   -0.1717   21.2246 O.2     1  UNL1       -0.1499
     33 N           3.1781   -1.1622   19.5858 N.pl3   1  UNL1       -0.1962
     34 H           3.0715   -0.6839   18.7319 H       1  UNL1        0.1754
     35 C           3.8345   -2.5107   19.6132 C.ar    1  UNL1        0.1893
     36 C           4.5295   -3.1766   18.4627 C.ar    1  UNL1        0.0823
     37 C           5.0357   -4.5075   18.9344 C.ar    1  UNL1        0.2152
     38 O           4.6535   -4.6642   20.3765 O.2     1  UNL1       -0.3489
     39 N           3.9111   -3.4301   20.7959 N.ar    1  UNL1       -0.0605
@<TRIPOS>BOND
     1    28    29    1
     2    29    11    1
     3    11    12   ar
     4    12    13   ar
     5    13    18    1
     6    18    19   ar
     7    19    20   ar
     8    20    21   ar
     9    21    22   ar
    10    22    24    1
    11    24    25    1
    12    24    26    1
    13    24    27    1
    14    22    23   ar
    15    13    14   ar
    16    14    15    1
    17    14    16   ar
    18    16    17   ar
    19    17     1    1
    20     1     2   ar
    21     2     3   ar
    22     3     4   ar
    23     4     5   ar
    24     5     6   ar
    25     6     7   ar
    26     7    30    1
    27    30    31    2
    28    30    32    2
    29    30    33    1
    30    33    35    1
    31    35    36   ar
    32    36    37   ar
    33    37    38   ar
    34    38    39   ar
    35     7     8   ar
    36     8     9   ar
    37     9    10   ar
    38    17    11   ar
    39    10     1   ar
    40    23    18   ar
    41    10     5   ar
    42    39    35   ar
    43    33    34    1
@<TRIPOS>MOLECULE
*****
 39 43 0 0 0
SMALL
GASTEIGER

@<TRIPOS>ATOM
      1 C           5.7615   -0.6774   19.8899 C.ar    1  UNL1        0.0843
      2 N           6.5481   -0.1579   18.7231 N.ar    1  UNL1       -0.2437
      3 C           6.0132    0.9799   17.9050 C.ar    1  UNL1        0.0988
      4 C           4.6918    1.5982   18.2537 C.ar    1  UNL1        0.0207
      5 C           3.9053    1.0788   19.4205 C.ar    1  UNL1        0.0043
      6 C           2.5839    1.6971   19.7693 C.ar    1  UNL1        0.0203
      7 C           1.7974    1.1777   20.9361 C.ar    1  UNL1        0.1252
      8 C           2.3322    0.0398   21.7542 C.ar    1  UNL1        0.0202
      9 C           3.6536   -0.5786   21.4055 C.ar    1  UNL1        0.0029
     10 C           4.4402   -0.0590   20.2386 C.ar    1  UNL1        0.0179
     11 C           5.9667   -3.2294   20.3318 C.ar    1  UNL1        0.1402
     12 C           6.5015   -4.3672   21.1499 C.ar    1  UNL1        0.0392
     13 C           7.3660   -4.0910   22.3442 C.ar    1  UNL1        0.0305
     14 C           7.6957   -2.6768   22.7204 C.ar    1  UNL1        0.1403
     15 F           8.5601   -2.4005   23.9147 F       1  UNL1       -0.2042
     16 C           7.1608   -1.5389   21.9023 C.ar    1  UNL1        0.0342
     17 C           6.2964   -1.8152   20.7080 C.ar    1  UNL1        0.0538
     18 C           7.9008   -5.2288   23.1623 C.ar    1  UNL1        0.0022
     19 C           8.7756   -6.2660   22.5229 C.ar    1  UNL1        0.0001
     20 C           9.3105   -7.4039   23.3409 C.ar    1  UNL1       -0.0001
     21 C           8.9704   -7.5045   24.7984 C.ar    1  UNL1        0.0039
     22 C           8.0955   -6.4673   25.4378 C.ar    1  UNL1        0.0714
     23 C           7.5607   -5.3295   24.6197 C.ar    1  UNL1        0.0039
     24 C           7.7554   -6.5680   26.8953 C.3     1  UNL1        0.4186
     25 F           7.4154   -6.6686   28.3528 F       1  UNL1       -0.1659
     26 F           9.1782   -6.9307   27.2022 F       1  UNL1       -0.1659
     27 F           6.3327   -6.2053   26.5884 F       1  UNL1       -0.1659
     28 C           3.6314   -3.7408   19.3145 C.3     1  UNL1        0.2525
     29 O           5.1022   -3.5057   19.1374 O.3     1  UNL1       -0.4714
     30 S           0.4760    1.7960   21.2848 S.O2    1  UNL1        0.0748
     31 O          -0.2300    0.5742   20.7762 O.2     1  UNL1       -0.1499
     32 O           1.1820    3.0178   21.7934 O.2     1  UNL1       -0.1499
     33 N          -0.8453    2.4143   21.6335 N.pl3   1  UNL1       -0.1962
     34 H          -1.1457    2.4380   22.5708 H       1  UNL1        0.1754
     35 C          -1.7091    2.9966   20.5542 C.ar    1  UNL1        0.1893
     36 C          -1.2269    3.7406   19.3443 C.ar    1  UNL1        0.0823
     37 C          -2.4265    4.1409   18.5376 C.ar    1  UNL1        0.2152
     38 O          -3.6502    3.6442   19.2490 O.2     1  UNL1       -0.3489
     39 N          -3.2068    2.9370   20.4953 N.ar    1  UNL1       -0.0605
@<TRIPOS>BOND
     1    28    29    1
     2    29    11    1
     3    11    12   ar
     4    12    13   ar
     5    13    18    1
     6    18    19   ar
     7    19    20   ar
     8    20    21   ar
     9    21    22   ar
    10    22    24    1
    11    24    25    1
    12    24    26    1
    13    24    27    1
    14    22    23   ar
    15    13    14   ar
    16    14    15    1
    17    14    16   ar
    18    16    17   ar
    19    17     1    1
    20     1     2   ar
    21     2     3   ar
    22     3     4   ar
    23     4     5   ar
    24     5     6   ar
    25     6     7   ar
    26     7    30    1
    27    30    31    2
    28    30    32    2
    29    30    33    1
    30    33    35    1
    31    35    36   ar
    32    36    37   ar
    33    37    38   ar
    34    38    39   ar
    35     7     8   ar
    36     8     9   ar
    37     9    10   ar
    38    17    11   ar
    39    10     1   ar
    40    23    18   ar
    41    10     5   ar
    42    39    35   ar
    43    33    34    1
@<TRIPOS>MOLECULE
*****
 39 43 0 0 0
SMALL
GASTEIGER

@<TRIPOS>ATOM
      1 C           2.1694    2.3483   28.8854 C.ar    1  UNL1        0.0843
      2 N           3.2972    1.7211   28.1207 N.ar    1  UNL1       -0.2437
      3 C           4.5796    1.3805   28.8203 C.ar    1  UNL1        0.0988
      4 C           4.7342    1.6671   30.2845 C.ar    1  UNL1        0.0207
      5 C           3.6064    2.2942   31.0492 C.ar    1  UNL1        0.0043
      6 C           3.7610    2.5808   32.5134 C.ar    1  UNL1        0.0203
      7 C           2.6332    3.2080   33.2781 C.ar    1  UNL1        0.1252
      8 C           1.3507    3.5486   32.5785 C.ar    1  UNL1        0.0202
      9 C           1.1961    3.2620   31.1143 C.ar    1  UNL1        0.0029
     10 C           2.3240    2.6348   30.3496 C.ar    1  UNL1        0.0179
     11 C          -0.2393    1.6984   28.1600 C.ar    1  UNL1        0.1402
     12 C          -1.5217    2.0390   27.4605 C.ar    1  UNL1        0.0392
     13 C          -1.6779    3.3700   26.7867 C.ar    1  UNL1        0.0305
     14 C          -0.5517    4.3605   26.8125 C.ar    1  UNL1        0.1403
     15 F          -0.7079    5.6915   26.1387 F       1  UNL1       -0.2042
     16 C           0.7307    4.0199   27.5120 C.ar    1  UNL1        0.0342
     17 C           0.8869    2.6889   28.1858 C.ar    1  UNL1        0.0538
     18 C          -2.9604    3.7106   26.0872 C.ar    1  UNL1        0.0022
     19 C          -4.0484    4.4325   26.8253 C.ar    1  UNL1        0.0001
     20 C          -5.3309    4.7731   26.1258 C.ar    1  UNL1       -0.0001
     21 C          -5.5253    4.3917   24.6881 C.ar    1  UNL1        0.0039
     22 C          -4.4371    3.6698   23.9500 C.ar    1  UNL1        0.0714
     23 C          -3.1547    3.3292   24.6496 C.ar    1  UNL1        0.0039
     24 C          -4.6315    3.2884   22.5124 C.3     1  UNL1        0.4186
     25 F          -4.8258    2.9070   21.0748 F       1  UNL1       -0.1659
     26 F          -6.1181    3.3839   22.6880 F       1  UNL1       -0.1659
     27 F          -3.1448    3.1929   22.3368 F       1  UNL1       -0.1659
     28 C          -1.2013   -0.6314   28.7898 C.3     1  UNL1        0.2525
     29 O          -0.0830    0.3674   28.8339 O.3     1  UNL1       -0.4714
     30 S           2.7878    3.4946   34.7423 S.O2    1  UNL1        0.0748
     31 O           4.2416    3.1347   34.6592 O.2     1  UNL1       -0.1499
     32 O           1.3340    3.8544   34.8254 O.2     1  UNL1       -0.1499
     33 N           2.9424    3.7811   36.2065 N.pl3   1  UNL1       -0.1962
     34 H           3.4130    4.5938   36.5021 H       1  UNL1        0.1754
     35 C           2.3801    2.8294   37.2205 C.ar    1  UNL1        0.1893
     36 C           2.9929    1.5269   37.6422 C.ar    1  UNL1        0.0823
     37 C           2.0977    0.9057   38.6731 C.ar    1  UNL1        0.2152
     38 O           0.9315    1.8243   38.8885 O.2     1  UNL1       -0.3489
     39 N           1.1061    3.0132   37.9907 N.ar    1  UNL1       -0.0605
@<TRIPOS>BOND
     1    28    29    1
     2    29    11    1
     3    11    12   ar
     4    12    13   ar
     5    13    18    1
     6    18    19   ar
     7    19    20   ar
     8    20    21   ar
     9    21    22   ar
    10    22    24    1
    11    24    25    1
    12    24    26    1
    13    24    27    1
    14    22    23   ar
    15    13    14   ar
    16    14    15    1
    17    14    16   ar
    18    16    17   ar
    19    17     1    1
    20     1     2   ar
    21     2     3   ar
    22     3     4   ar
    23     4     5   ar
    24     5     6   ar
    25     6     7   ar
    26     7    30    1
    27    30    31    2
    28    30    32    2
    29    30    33    1
    30    33    35    1
    31    35    36   ar
    32    36    37   ar
    33    37    38   ar
    34    38    39   ar
    35     7     8   ar
    36     8     9   ar
    37     9    10   ar
    38    17    11   ar
    39    10     1   ar
    40    23    18   ar
    41    10     5   ar
    42    39    35   ar
    43    33    34    1
@<TRIPOS>MOLECULE
*****
 39 43 0 0 0
SMALL
GASTEIGER

@<TRIPOS>ATOM
      1 C           0.4117    2.8329   23.6599 C.ar    1  UNL1        0.0843
      2 N          -0.5243    3.8914   23.1566 N.ar    1  UNL1       -0.2437
      3 C          -1.2856    4.7431   24.1286 C.ar    1  UNL1        0.0988
      4 C          -1.1108    4.5364   25.6040 C.ar    1  UNL1        0.0207
      5 C          -0.1748    3.4778   26.1073 C.ar    1  UNL1        0.0043
      6 C          -0.0001    3.2711   27.5827 C.ar    1  UNL1        0.0203
      7 C           0.9359    2.2126   28.0860 C.ar    1  UNL1        0.1252
      8 C           1.6973    1.3608   27.1139 C.ar    1  UNL1        0.0202
      9 C           1.5225    1.5675   25.6385 C.ar    1  UNL1        0.0029
     10 C           0.5864    2.6261   25.1352 C.ar    1  UNL1        0.0179
     11 C           2.6392    2.2148   22.4740 C.ar    1  UNL1        0.1402
     12 C           3.4006    1.3630   21.5020 C.ar    1  UNL1        0.0392
     13 C           2.6957    0.2775   20.7437 C.ar    1  UNL1        0.0305
     14 C           1.2296    0.0438   20.9575 C.ar    1  UNL1        0.1403
     15 F           0.5247   -1.0417   20.1993 F       1  UNL1       -0.2042
     16 C           0.4682    0.8956   21.9296 C.ar    1  UNL1        0.0342
     17 C           1.1731    1.9811   22.6878 C.ar    1  UNL1        0.0538
     18 C           3.4571   -0.5743   19.7717 C.ar    1  UNL1        0.0022
     19 C           4.2213    0.0666   18.6514 C.ar    1  UNL1        0.0001
     20 C           4.9827   -0.7851   17.6793 C.ar    1  UNL1       -0.0001
     21 C           4.9798   -2.2777   17.8276 C.ar    1  UNL1        0.0039
     22 C           4.2156   -2.9186   18.9481 C.ar    1  UNL1        0.0714
     23 C           3.4542   -2.0669   19.9201 C.ar    1  UNL1        0.0039
     24 C           4.2127   -4.4113   19.0964 C.3     1  UNL1        0.4186
     25 F           4.2099   -5.9039   19.2447 F       1  UNL1       -0.1659
     26 F           2.7492   -4.4410   18.7692 F       1  UNL1       -0.1659
     27 F           5.6763   -4.3816   19.4236 F       1  UNL1       -0.1659
     28 C           4.8364    3.2649   23.3795 C.3     1  UNL1        0.2525
     29 O           3.3441    3.3003   23.2323 O.3     1  UNL1       -0.4714
     30 S           1.1107    2.0058   29.5613 S.O2    1  UNL1        0.0748
     31 O          -0.1733    1.2314   29.6049 O.2     1  UNL1       -0.1499
     32 O           2.3946    2.7802   29.5178 O.2     1  UNL1       -0.1499
     33 N           1.2854    1.7990   31.0367 N.pl3   1  UNL1       -0.1962
     34 H           0.8004    2.3708   31.6748 H       1  UNL1        0.1754
     35 C           2.1992    0.7211   31.5399 C.ar    1  UNL1        0.1893
     36 C           3.1323    0.8310   32.7091 C.ar    1  UNL1        0.0823
     37 C           3.8500   -0.4782   32.8541 C.ar    1  UNL1        0.2152
     38 O           3.3604   -1.3972   31.7744 O.2     1  UNL1       -0.3489
     39 N           2.3401   -0.6560   30.9623 N.ar    1  UNL1       -0.0605
@<TRIPOS>BOND
     1    28    29    1
     2    29    11    1
     3    11    12   ar
     4    12    13   ar
     5    13    18    1
     6    18    19   ar
     7    19    20   ar
     8    20    21   ar
     9    21    22   ar
    10    22    24    1
    11    24    25    1
    12    24    26    1
    13    24    27    1
    14    22    23   ar
    15    13    14   ar
    16    14    15    1
    17    14    16   ar
    18    16    17   ar
    19    17     1    1
    20     1     2   ar
    21     2     3   ar
    22     3     4   ar
    23     4     5   ar
    24     5     6   ar
    25     6     7   ar
    26     7    30    1
    27    30    31    2
    28    30    32    2
    29    30    33    1
    30    33    35    1
    31    35    36   ar
    32    36    37   ar
    33    37    38   ar
    34    38    39   ar
    35     7     8   ar
    36     8     9   ar
    37     9    10   ar
    38    17    11   ar
    39    10     1   ar
    40    23    18   ar
    41    10     5   ar
    42    39    35   ar
    43    33    34    1
