@<TRIPOS>MOLECULE
*****
 30 34 0 0 0
SMALL
GASTEIGER

@<TRIPOS>ATOM
      1 O           4.0693   -0.9331   16.2696 O.2     1  UNL1       -0.2911
      2 C           3.5551   -0.9225   17.6788 C.2     1  UNL1        0.1795
      3 C           2.4891    0.0531   18.0808 C.3     1  UNL1        0.1092
      4 C           1.9749    0.0637   19.4900 C.3     1  UNL1        0.1436
      5 C           1.4609    0.0743   20.8991 C.3     1  UNL1        0.0620
      6 C           0.3948    1.0499   21.3011 C.3     1  UNL1        0.0985
      7 N          -0.1572    2.0149   20.2941 N.am    1  UNL1       -0.2640
      8 C          -1.2233    2.9905   20.6962 C.2     1  UNL1        0.3039
      9 O          -1.7752    3.9555   19.6892 O.2     1  UNL1       -0.2526
     10 N          -1.7373    3.0011   22.1053 N.am    1  UNL1       -0.2901
     11 C           0.3569    2.0043   18.8850 C.3     1  UNL1        0.0985
     12 C           1.4230    1.0287   18.4830 C.3     1  UNL1        0.0620
     13 O           2.5269   -0.9013   20.4970 O.3     1  UNL1       -0.4819
     14 C           3.5930   -1.8769   20.0949 C.ar    1  UNL1        0.1409
     15 C           4.1450   -2.8419   21.1019 C.ar    1  UNL1        0.0370
     16 C           5.2110   -3.8175   20.6998 C.ar    1  UNL1        0.0031
     17 C           5.7252   -3.8282   19.2907 C.ar    1  UNL1        0.0003
     18 C           5.1732   -2.8632   18.2836 C.ar    1  UNL1        0.0059
     19 C           4.1071   -1.8875   18.6858 C.ar    1  UNL1        0.0687
     20 H          -1.3751    2.3677   22.7662 H       1  UNL1        0.1509
     21 C          -2.8035    3.9768   22.5074 C.3     1  UNL1        0.0777
     22 C          -2.4334    5.3839   22.8722 C.3     1  UNL1        0.0246
     23 C          -3.4994    6.3595   23.2744 C.3     1  UNL1        0.0277
     24 C          -4.9355    5.9280   23.3117 C.ar    1  UNL1       -0.0260
     25 C          -6.0016    6.9036   23.7138 C.ar    1  UNL1       -0.0046
     26 C          -7.4377    6.4721   23.7511 C.ar    1  UNL1       -0.0003
     27 C          -7.8077    5.0650   23.3863 C.ar    1  UNL1       -0.0003
     28 C          -6.7417    4.0894   22.9842 C.ar    1  UNL1       -0.0045
     29 C          -5.3055    4.5209   22.9469 C.ar    1  UNL1       -0.0245
     30 C          -4.2395    3.5452   22.5448 C.3     1  UNL1        0.0456
@<TRIPOS>BOND
     1     1     2    2
     2     2     3    1
     3     3     4    1
     4     4     5    1
     5     5     6    1
     6     6     7    1
     7     7     8   am
     8     8     9    2
     9     8    10   am
    10    10    21    1
    11    21    22    1
    12    22    23    1
    13    23    24    1
    14    24    25   ar
    15    25    26   ar
    16    26    27   ar
    17    27    28   ar
    18    28    29   ar
    19    29    30    1
    20     7    11    1
    21    11    12    1
    22     4    13    1
    23    13    14    1
    24    14    15   ar
    25    15    16   ar
    26    16    17   ar
    27    17    18   ar
    28    18    19   ar
    29    19     2    1
    30    12     4    1
    31    19    14   ar
    32    30    21    1
    33    29    24   ar
    34    10    20    1
@<TRIPOS>MOLECULE
*****
 30 34 0 0 0
SMALL
GASTEIGER

@<TRIPOS>ATOM
      1 O           6.4466   -0.5008   21.7584 O.2     1  UNL1       -0.2911
      2 C           5.1024   -0.8159   21.1720 C.2     1  UNL1        0.1795
      3 C           3.9733    0.1609   21.3168 C.3     1  UNL1        0.1092
      4 C           2.6290   -0.1543   20.7304 C.3     1  UNL1        0.1436
      5 C           1.2849   -0.4695   20.1440 C.3     1  UNL1        0.0620
      6 C           0.1558    0.5073   20.2888 C.3     1  UNL1        0.0985
      7 N           0.3709    1.7993   21.0199 N.am    1  UNL1       -0.2640
      8 C          -0.7583    2.7761   21.1647 C.2     1  UNL1        0.3039
      9 O          -0.5433    4.0680   21.8958 O.2     1  UNL1       -0.2526
     10 N          -2.1025    2.4609   20.5783 N.am    1  UNL1       -0.2901
     11 C           1.7150    2.1145   21.6063 C.3     1  UNL1        0.0985
     12 C           2.8441    1.1377   21.4616 C.3     1  UNL1        0.0620
     13 O           2.4140   -1.4462   19.9992 O.3     1  UNL1       -0.4819
     14 C           3.5432   -2.4231   19.8545 C.ar    1  UNL1        0.1409
     15 C           3.3281   -3.7150   19.1233 C.ar    1  UNL1        0.0370
     16 C           4.4572   -4.6918   18.9785 C.ar    1  UNL1        0.0031
     17 C           5.8014   -4.3766   19.5649 C.ar    1  UNL1        0.0003
     18 C           6.0165   -3.0847   20.2961 C.ar    1  UNL1        0.0059
     19 C           4.8873   -2.1079   20.4409 C.ar    1  UNL1        0.0687
     20 H          -2.2436    1.6130   20.0984 H       1  UNL1        0.1509
     21 C          -3.2316    3.4377   20.7230 C.3     1  UNL1        0.0777
     22 C          -3.3093    4.6334   19.8206 C.3     1  UNL1        0.0246
     23 C          -4.4384    5.6102   19.9653 C.3     1  UNL1        0.0277
     24 C          -5.4898    5.3913   21.0124 C.ar    1  UNL1       -0.0260
     25 C          -6.6190    6.3681   21.1572 C.ar    1  UNL1       -0.0046
     26 C          -7.6705    6.1492   22.2043 C.ar    1  UNL1       -0.0003
     27 C          -7.5928    4.9535   23.1067 C.ar    1  UNL1       -0.0003
     28 C          -6.4637    3.9768   22.9620 C.ar    1  UNL1       -0.0045
     29 C          -5.4122    4.1956   21.9149 C.ar    1  UNL1       -0.0245
     30 C          -4.2831    3.2188   21.7701 C.3     1  UNL1        0.0456
@<TRIPOS>BOND
     1     1     2    2
     2     2     3    1
     3     3     4    1
     4     4     5    1
     5     5     6    1
     6     6     7    1
     7     7     8   am
     8     8     9    2
     9     8    10   am
    10    10    21    1
    11    21    22    1
    12    22    23    1
    13    23    24    1
    14    24    25   ar
    15    25    26   ar
    16    26    27   ar
    17    27    28   ar
    18    28    29   ar
    19    29    30    1
    20     7    11    1
    21    11    12    1
    22     4    13    1
    23    13    14    1
    24    14    15   ar
    25    15    16   ar
    26    16    17   ar
    27    17    18   ar
    28    18    19   ar
    29    19     2    1
    30    12     4    1
    31    19    14   ar
    32    30    21    1
    33    29    24   ar
    34    10    20    1
@<TRIPOS>MOLECULE
*****
 30 34 0 0 0
SMALL
GASTEIGER

@<TRIPOS>ATOM
      1 O          -4.6397    5.7429   27.9612 O.2     1  UNL1       -0.2911
      2 C          -4.7807    5.3566   26.5186 C.2     1  UNL1        0.1795
      3 C          -3.6250    4.7348   25.7923 C.3     1  UNL1        0.1092
      4 C          -3.7661    4.3484   24.3497 C.3     1  UNL1        0.1436
      5 C          -3.9071    3.9621   22.9072 C.3     1  UNL1        0.0620
      6 C          -2.7514    3.3403   22.1809 C.3     1  UNL1        0.0985
      7 N          -1.4546    3.1048   22.8970 N.am    1  UNL1       -0.2640
      8 C          -0.2989    2.4829   22.1706 C.2     1  UNL1        0.3039
      9 O           0.9979    2.2474   22.8867 O.2     1  UNL1       -0.2526
     10 N          -0.4400    2.0966   20.7281 N.am    1  UNL1       -0.2901
     11 C          -1.3136    3.4911   24.3395 C.3     1  UNL1        0.0985
     12 C          -2.4693    4.1129   25.0658 C.3     1  UNL1        0.0620
     13 O          -5.0628    4.5840   23.6335 O.3     1  UNL1       -0.4819
     14 C          -6.2186    5.2058   24.3599 C.ar    1  UNL1        0.1409
     15 C          -7.5154    5.4414   23.6438 C.ar    1  UNL1        0.0370
     16 C          -8.6711    6.0632   24.3701 C.ar    1  UNL1        0.0031
     17 C          -8.5300    6.4495   25.8127 C.ar    1  UNL1        0.0003
     18 C          -7.2333    6.2140   26.5289 C.ar    1  UNL1        0.0059
     19 C          -6.0775    5.5921   25.8024 C.ar    1  UNL1        0.0687
     20 H          -1.2911    2.2512   20.2581 H       1  UNL1        0.1509
     21 C           0.7158    1.4747   20.0017 C.3     1  UNL1        0.0777
     22 C           1.4620    2.2624   18.9659 C.3     1  UNL1        0.0246
     23 C           2.6177    1.6406   18.2395 C.3     1  UNL1        0.0277
     24 C           3.0272    0.2312   18.5489 C.ar    1  UNL1       -0.0260
     25 C           4.1829   -0.3907   17.8225 C.ar    1  UNL1       -0.0046
     26 C           4.5924   -1.8001   18.1318 C.ar    1  UNL1       -0.0003
     27 C           3.8462   -2.5878   19.1676 C.ar    1  UNL1       -0.0003
     28 C           2.6905   -1.9660   19.8940 C.ar    1  UNL1       -0.0045
     29 C           2.2810   -0.5565   19.5846 C.ar    1  UNL1       -0.0245
     30 C           1.1253    0.0653   20.3110 C.3     1  UNL1        0.0456
@<TRIPOS>BOND
     1     1     2    2
     2     2     3    1
     3     3     4    1
     4     4     5    1
     5     5     6    1
     6     6     7    1
     7     7     8   am
     8     8     9    2
     9     8    10   am
    10    10    21    1
    11    21    22    1
    12    22    23    1
    13    23    24    1
    14    24    25   ar
    15    25    26   ar
    16    26    27   ar
    17    27    28   ar
    18    28    29   ar
    19    29    30    1
    20     7    11    1
    21    11    12    1
    22     4    13    1
    23    13    14    1
    24    14    15   ar
    25    15    16   ar
    26    16    17   ar
    27    17    18   ar
    28    18    19   ar
    29    19     2    1
    30    12     4    1
    31    19    14   ar
    32    30    21    1
    33    29    24   ar
    34    10    20    1
@<TRIPOS>MOLECULE
*****
 30 34 0 0 0
SMALL
GASTEIGER

@<TRIPOS>ATOM
      1 O           6.6101   -4.4300   21.5647 O.2     1  UNL1       -0.2911
      2 C           5.7444   -3.4940   22.3550 C.2     1  UNL1        0.1795
      3 C           5.9518   -3.3486   23.8335 C.3     1  UNL1        0.1092
      4 C           5.0861   -2.4126   24.6238 C.3     1  UNL1        0.1436
      5 C           4.2204   -1.4767   25.4141 C.3     1  UNL1        0.0620
      6 C           4.4278   -1.3313   26.8925 C.3     1  UNL1        0.0985
      7 N           5.5008   -2.1219   27.5807 N.am    1  UNL1       -0.2640
      8 C           5.7082   -1.9765   29.0592 C.2     1  UNL1        0.3039
      9 O           6.7812   -2.7671   29.7474 O.2     1  UNL1       -0.2526
     10 N           4.8425   -1.0405   29.8495 N.am    1  UNL1       -0.2901
     11 C           6.3665   -3.0579   26.7904 C.3     1  UNL1        0.0985
     12 C           6.1591   -3.2032   25.3120 C.3     1  UNL1        0.0620
     13 O           4.0131   -1.6220   23.9357 O.3     1  UNL1       -0.4819
     14 C           3.8057   -1.7674   22.4571 C.ar    1  UNL1        0.1409
     15 C           2.7327   -0.9768   21.7690 C.ar    1  UNL1        0.0370
     16 C           2.5253   -1.1222   20.2905 C.ar    1  UNL1        0.0031
     17 C           3.3910   -2.0582   19.5002 C.ar    1  UNL1        0.0003
     18 C           4.4640   -2.8488   20.1883 C.ar    1  UNL1        0.0059
     19 C           4.6714   -2.7034   21.6669 C.ar    1  UNL1        0.0687
     20 H           4.1383   -0.5217   29.3978 H       1  UNL1        0.1509
     21 C           5.0499   -0.8951   31.3280 C.3     1  UNL1        0.0777
     22 C           4.2833   -1.7628   32.2817 C.3     1  UNL1        0.0246
     23 C           4.4906   -1.6175   33.7602 C.3     1  UNL1        0.0277
     24 C           5.4645   -0.6044   34.2849 C.ar    1  UNL1       -0.0260
     25 C           5.6718   -0.4590   35.7634 C.ar    1  UNL1       -0.0046
     26 C           6.6456    0.5540   36.2881 C.ar    1  UNL1       -0.0003
     27 C           7.4122    1.4217   35.3344 C.ar    1  UNL1       -0.0003
     28 C           7.2049    1.2763   33.8560 C.ar    1  UNL1       -0.0045
     29 C           6.2310    0.2632   33.3312 C.ar    1  UNL1       -0.0245
     30 C           6.0237    0.1179   31.8527 C.3     1  UNL1        0.0456
@<TRIPOS>BOND
     1     1     2    2
     2     2     3    1
     3     3     4    1
     4     4     5    1
     5     5     6    1
     6     6     7    1
     7     7     8   am
     8     8     9    2
     9     8    10   am
    10    10    21    1
    11    21    22    1
    12    22    23    1
    13    23    24    1
    14    24    25   ar
    15    25    26   ar
    16    26    27   ar
    17    27    28   ar
    18    28    29   ar
    19    29    30    1
    20     7    11    1
    21    11    12    1
    22     4    13    1
    23    13    14    1
    24    14    15   ar
    25    15    16   ar
    26    16    17   ar
    27    17    18   ar
    28    18    19   ar
    29    19     2    1
    30    12     4    1
    31    19    14   ar
    32    30    21    1
    33    29    24   ar
    34    10    20    1
@<TRIPOS>MOLECULE
*****
 30 34 0 0 0
SMALL
GASTEIGER

@<TRIPOS>ATOM
      1 O           1.6428    0.7720   21.7659 O.2     1  UNL1       -0.2911
      2 C           2.5143   -0.1584   22.5566 C.2     1  UNL1        0.1795
      3 C           2.6774    0.0410   24.0343 C.3     1  UNL1        0.1092
      4 C           3.5489   -0.8895   24.8249 C.3     1  UNL1        0.1436
      5 C           4.4203   -1.8198   25.6154 C.3     1  UNL1        0.0620
      6 C           4.5834   -1.6205   27.0931 C.3     1  UNL1        0.0985
      7 N           3.8752   -0.4908   27.7803 N.am    1  UNL1       -0.2640
      8 C           4.0383   -0.2915   29.2580 C.2     1  UNL1        0.3039
      9 O           3.3301    0.8382   29.9452 O.2     1  UNL1       -0.2526
     10 N           4.9097   -1.2219   30.0486 N.am    1  UNL1       -0.2901
     11 C           3.0038    0.4396   26.9897 C.3     1  UNL1        0.0985
     12 C           2.8406    0.2403   25.5120 C.3     1  UNL1        0.0620
     13 O           4.2571   -2.0192   24.1378 O.3     1  UNL1       -0.4819
     14 C           4.0939   -2.2185   22.6600 C.ar    1  UNL1        0.1409
     15 C           4.8022   -3.3482   21.9728 C.ar    1  UNL1        0.0370
     16 C           4.6390   -3.5475   20.4952 C.ar    1  UNL1        0.0031
     17 C           3.7676   -2.6171   19.7045 C.ar    1  UNL1        0.0003
     18 C           3.0593   -1.4874   20.3917 C.ar    1  UNL1        0.0059
     19 C           3.2225   -1.2881   21.8694 C.ar    1  UNL1        0.0687
     20 H           5.3746   -1.9633   29.5976 H       1  UNL1        0.1509
     21 C           5.0729   -1.0226   31.5264 C.3     1  UNL1        0.0777
     22 C           4.2008   -1.7770   32.4857 C.3     1  UNL1        0.0246
     23 C           4.3640   -1.5777   33.9634 C.3     1  UNL1        0.0277
     24 C           5.3992   -0.6241   34.4817 C.ar    1  UNL1       -0.0260
     25 C           5.5624   -0.4248   35.9595 C.ar    1  UNL1       -0.0046
     26 C           6.5977    0.5289   36.4779 C.ar    1  UNL1       -0.0003
     27 C           7.4698    1.2833   35.5186 C.ar    1  UNL1       -0.0003
     28 C           7.3066    1.0840   34.0409 C.ar    1  UNL1       -0.0045
     29 C           6.2713    0.1303   33.5224 C.ar    1  UNL1       -0.0245
     30 C           6.1082   -0.0689   32.0447 C.3     1  UNL1        0.0456
@<TRIPOS>BOND
     1     1     2    2
     2     2     3    1
     3     3     4    1
     4     4     5    1
     5     5     6    1
     6     6     7    1
     7     7     8   am
     8     8     9    2
     9     8    10   am
    10    10    21    1
    11    21    22    1
    12    22    23    1
    13    23    24    1
    14    24    25   ar
    15    25    26   ar
    16    26    27   ar
    17    27    28   ar
    18    28    29   ar
    19    29    30    1
    20     7    11    1
    21    11    12    1
    22     4    13    1
    23    13    14    1
    24    14    15   ar
    25    15    16   ar
    26    16    17   ar
    27    17    18   ar
    28    18    19   ar
    29    19     2    1
    30    12     4    1
    31    19    14   ar
    32    30    21    1
    33    29    24   ar
    34    10    20    1
@<TRIPOS>MOLECULE
*****
 30 34 0 0 0
SMALL
GASTEIGER

@<TRIPOS>ATOM
      1 O           3.8211   -1.3173   17.3101 O.2     1  UNL1       -0.2911
      2 C           3.5413   -1.1605   18.7755 C.2     1  UNL1        0.1795
      3 C           4.3429   -1.9350   19.7792 C.3     1  UNL1        0.1092
      4 C           4.0630   -1.7782   21.2446 C.3     1  UNL1        0.1436
      5 C           3.7832   -1.6214   22.7098 C.3     1  UNL1        0.0620
      6 C           4.5848   -2.3959   23.7135 C.3     1  UNL1        0.0985
      7 N           5.6662   -3.3273   23.2520 N.am    1  UNL1       -0.2640
      8 C           6.4678   -4.1018   24.2558 C.2     1  UNL1        0.3039
      9 O           7.5493   -5.0332   23.7942 O.2     1  UNL1       -0.2526
     10 N           6.1880   -3.9450   25.7210 N.am    1  UNL1       -0.2901
     11 C           5.9461   -3.4841   21.7867 C.3     1  UNL1        0.0985
     12 C           5.1445   -2.7096   20.7830 C.3     1  UNL1        0.0620
     13 O           2.9816   -0.8468   21.7061 O.3     1  UNL1       -0.4819
     14 C           2.1800   -0.0722   20.7023 C.ar    1  UNL1        0.1409
     15 C           1.0986    0.8591   21.1639 C.ar    1  UNL1        0.0370
     16 C           0.2970    1.6337   20.1602 C.ar    1  UNL1        0.0031
     17 C           0.5768    1.4769   18.6948 C.ar    1  UNL1        0.0003
     18 C           1.6582    0.5455   18.2333 C.ar    1  UNL1        0.0059
     19 C           2.4598   -0.2291   19.2371 C.ar    1  UNL1        0.0687
     20 H           5.4782   -3.3337   26.0240 H       1  UNL1        0.1509
     21 C           6.9896   -4.7196   26.7248 C.3     1  UNL1        0.0777
     22 C           8.1903   -5.5025   26.2827 C.3     1  UNL1        0.0246
     23 C           8.9919   -6.2770   27.2864 C.3     1  UNL1        0.0277
     24 C           8.5928   -6.2686   28.7323 C.ar    1  UNL1       -0.0260
     25 C           9.3945   -7.0432   29.7361 C.ar    1  UNL1       -0.0046
     26 C           8.9954   -7.0348   31.1820 C.ar    1  UNL1       -0.0003
     27 C           7.7948   -6.2519   31.6241 C.ar    1  UNL1       -0.0003
     28 C           6.9932   -5.4774   30.6204 C.ar    1  UNL1       -0.0045
     29 C           7.3922   -5.4857   29.1744 C.ar    1  UNL1       -0.0245
     30 C           6.5906   -4.7112   28.1707 C.3     1  UNL1        0.0456
@<TRIPOS>BOND
     1     1     2    2
     2     2     3    1
     3     3     4    1
     4     4     5    1
     5     5     6    1
     6     6     7    1
     7     7     8   am
     8     8     9    2
     9     8    10   am
    10    10    21    1
    11    21    22    1
    12    22    23    1
    13    23    24    1
    14    24    25   ar
    15    25    26   ar
    16    26    27   ar
    17    27    28   ar
    18    28    29   ar
    19    29    30    1
    20     7    11    1
    21    11    12    1
    22     4    13    1
    23    13    14    1
    24    14    15   ar
    25    15    16   ar
    26    16    17   ar
    27    17    18   ar
    28    18    19   ar
    29    19     2    1
    30    12     4    1
    31    19    14   ar
    32    30    21    1
    33    29    24   ar
    34    10    20    1
@<TRIPOS>MOLECULE
*****
 30 34 0 0 0
SMALL
GASTEIGER

@<TRIPOS>ATOM
      1 O           5.0169   -2.6071   32.8957 O.2     1  UNL1       -0.2911
      2 C           4.2768   -1.3025   32.8728 C.2     1  UNL1        0.1795
      3 C           3.5200   -0.8910   31.6449 C.3     1  UNL1        0.1092
      4 C           2.7798    0.4135   31.6220 C.3     1  UNL1        0.1436
      5 C           2.0397    1.7180   31.5993 C.3     1  UNL1        0.0620
      6 C           1.2829    2.1295   30.3713 C.3     1  UNL1        0.0985
      7 N           1.2662    1.2366   29.1662 N.am    1  UNL1       -0.2640
      8 C           0.5094    1.6481   27.9382 C.2     1  UNL1        0.3039
      9 O           0.4927    0.7552   26.7331 O.2     1  UNL1       -0.2526
     10 N          -0.2307    2.9526   27.9154 N.am    1  UNL1       -0.2901
     11 C           2.0063   -0.0679   29.1890 C.3     1  UNL1        0.0985
     12 C           2.7631   -0.4794   30.4169 C.3     1  UNL1        0.0620
     13 O           2.7965    1.3065   32.8272 O.3     1  UNL1       -0.4819
     14 C           3.5534    0.8949   34.0552 C.ar    1  UNL1        0.1409
     15 C           3.5700    1.7878   35.2603 C.ar    1  UNL1        0.0370
     16 C           4.3268    1.3763   36.4882 C.ar    1  UNL1        0.0031
     17 C           5.0670    0.0718   36.5111 C.ar    1  UNL1        0.0003
     18 C           5.0503   -0.8212   35.3059 C.ar    1  UNL1        0.0059
     19 C           4.2934   -0.4096   34.0780 C.ar    1  UNL1        0.0687
     20 H          -0.2197    3.5387   28.7064 H       1  UNL1        0.1509
     21 C          -0.9876    3.3642   26.6874 C.3     1  UNL1        0.0777
     22 C          -0.2444    3.7799   25.4526 C.3     1  UNL1        0.0246
     23 C          -1.0011    4.1914   24.2246 C.3     1  UNL1        0.0277
     24 C          -2.5011    4.1873   24.2315 C.ar    1  UNL1       -0.0260
     25 C          -3.2579    4.5989   23.0036 C.ar    1  UNL1       -0.0046
     26 C          -4.7579    4.5948   23.0105 C.ar    1  UNL1       -0.0003
     27 C          -5.5011    4.1791   24.2453 C.ar    1  UNL1       -0.0003
     28 C          -4.7443    3.7675   25.4733 C.ar    1  UNL1       -0.0045
     29 C          -3.2443    3.7716   25.4664 C.ar    1  UNL1       -0.0245
     30 C          -2.4875    3.3601   26.6943 C.3     1  UNL1        0.0456
@<TRIPOS>BOND
     1     1     2    2
     2     2     3    1
     3     3     4    1
     4     4     5    1
     5     5     6    1
     6     6     7    1
     7     7     8   am
     8     8     9    2
     9     8    10   am
    10    10    21    1
    11    21    22    1
    12    22    23    1
    13    23    24    1
    14    24    25   ar
    15    25    26   ar
    16    26    27   ar
    17    27    28   ar
    18    28    29   ar
    19    29    30    1
    20     7    11    1
    21    11    12    1
    22     4    13    1
    23    13    14    1
    24    14    15   ar
    25    15    16   ar
    26    16    17   ar
    27    17    18   ar
    28    18    19   ar
    29    19     2    1
    30    12     4    1
    31    19    14   ar
    32    30    21    1
    33    29    24   ar
    34    10    20    1
@<TRIPOS>MOLECULE
*****
 30 34 0 0 0
SMALL
GASTEIGER

@<TRIPOS>ATOM
      1 O          -8.6209    6.5152   22.9452 O.2     1  UNL1       -0.2911
      2 C          -7.3638    5.9775   23.5623 C.2     1  UNL1        0.1795
      3 C          -6.3063    5.3619   22.6948 C.3     1  UNL1        0.1092
      4 C          -5.0492    4.8243   23.3120 C.3     1  UNL1        0.1436
      5 C          -3.7922    4.2867   23.9292 C.3     1  UNL1        0.0620
      6 C          -2.7347    3.6710   23.0617 C.3     1  UNL1        0.0985
      7 N          -2.9342    3.5930   21.5771 N.am    1  UNL1       -0.2640
      8 C          -1.8765    2.9773   20.7096 C.2     1  UNL1        0.3039
      9 O          -2.0760    2.8992   19.2250 O.2     1  UNL1       -0.2526
     10 N          -0.6196    2.4397   21.3268 N.am    1  UNL1       -0.2901
     11 C          -4.1912    4.1305   20.9599 C.3     1  UNL1        0.0985
     12 C          -5.2487    4.7462   21.8274 C.3     1  UNL1        0.0620
     13 O          -4.8498    4.9023   24.7966 O.3     1  UNL1       -0.4819
     14 C          -5.9074    5.5180   25.6641 C.ar    1  UNL1        0.1409
     15 C          -5.7080    5.5961   27.1487 C.ar    1  UNL1        0.0370
     16 C          -6.7655    6.2117   28.0162 C.ar    1  UNL1        0.0031
     17 C          -8.0226    6.7494   27.3990 C.ar    1  UNL1        0.0003
     18 C          -8.2220    6.6713   25.9144 C.ar    1  UNL1        0.0059
     19 C          -7.1644    6.0556   25.0469 C.ar    1  UNL1        0.0687
     20 H          -0.4887    2.4909   22.3012 H       1  UNL1        0.1509
     21 C           0.4381    1.8240   20.4593 C.3     1  UNL1        0.0777
     22 C           1.0379    2.6133   19.3336 C.3     1  UNL1        0.0246
     23 C           2.0955    1.9976   18.4661 C.3     1  UNL1        0.0277
     24 C           2.5532    0.5927   18.7244 C.ar    1  UNL1       -0.0260
     25 C           3.6108   -0.0230   17.8569 C.ar    1  UNL1       -0.0046
     26 C           4.0685   -1.4279   18.1151 C.ar    1  UNL1       -0.0003
     27 C           3.4686   -2.2171   19.2408 C.ar    1  UNL1       -0.0003
     28 C           2.4111   -1.6015   20.1083 C.ar    1  UNL1       -0.0045
     29 C           1.9533   -0.1965   19.8501 C.ar    1  UNL1       -0.0245
     30 C           0.8957    0.4191   20.7175 C.3     1  UNL1        0.0456
@<TRIPOS>BOND
     1     1     2    2
     2     2     3    1
     3     3     4    1
     4     4     5    1
     5     5     6    1
     6     6     7    1
     7     7     8   am
     8     8     9    2
     9     8    10   am
    10    10    21    1
    11    21    22    1
    12    22    23    1
    13    23    24    1
    14    24    25   ar
    15    25    26   ar
    16    26    27   ar
    17    27    28   ar
    18    28    29   ar
    19    29    30    1
    20     7    11    1
    21    11    12    1
    22     4    13    1
    23    13    14    1
    24    14    15   ar
    25    15    16   ar
    26    16    17   ar
    27    17    18   ar
    28    18    19   ar
    29    19     2    1
    30    12     4    1
    31    19    14   ar
    32    30    21    1
    33    29    24   ar
    34    10    20    1
@<TRIPOS>MOLECULE
*****
 30 34 0 0 0
SMALL
GASTEIGER

@<TRIPOS>ATOM
      1 O          -6.7028    5.8071   21.8671 O.2     1  UNL1       -0.2911
      2 C          -5.5327    5.2661   22.6341 C.2     1  UNL1        0.1795
      3 C          -4.4125    4.5811   21.9089 C.3     1  UNL1        0.1092
      4 C          -3.2425    4.0401   22.6759 C.3     1  UNL1        0.1436
      5 C          -2.0725    3.4991   23.4429 C.3     1  UNL1        0.0620
      6 C          -0.9523    2.8141   22.7177 C.3     1  UNL1        0.0985
      7 N          -1.0021    2.6703   21.2254 N.am    1  UNL1       -0.2640
      8 C           0.1182    1.9853   20.5002 C.2     1  UNL1        0.3039
      9 O           0.0684    1.8414   19.0080 O.2     1  UNL1       -0.2526
     10 N           1.2882    1.4443   21.2672 N.am    1  UNL1       -0.2901
     11 C          -2.1721    3.2113   20.4584 C.3     1  UNL1        0.0985
     12 C          -3.2923    3.8962   21.1836 C.3     1  UNL1        0.0620
     13 O          -3.1927    4.1840   24.1682 O.3     1  UNL1       -0.4819
     14 C          -4.3130    4.8689   24.8934 C.ar    1  UNL1        0.1409
     15 C          -4.2632    5.0128   26.3856 C.ar    1  UNL1        0.0370
     16 C          -5.3834    5.6977   27.1109 C.ar    1  UNL1        0.0031
     17 C          -6.5535    6.2388   26.3438 C.ar    1  UNL1        0.0003
     18 C          -6.6032    6.0949   24.8516 C.ar    1  UNL1        0.0059
     19 C          -5.4830    5.4099   24.1264 C.ar    1  UNL1        0.0687
     20 H           1.3209    1.5387   22.2467 H       1  UNL1        0.1509
     21 C           2.4085    0.7593   20.5420 C.3     1  UNL1        0.0777
     22 C           3.5251    1.5684   19.9515 C.3     1  UNL1        0.0246
     23 C           4.6453    0.8835   19.2263 C.3     1  UNL1        0.0277
     24 C           4.6490   -0.6104   19.0916 C.ar    1  UNL1       -0.0260
     25 C           5.7693   -1.2954   18.3664 C.ar    1  UNL1       -0.0046
     26 C           5.7729   -2.7893   18.2317 C.ar    1  UNL1       -0.0003
     27 C           4.6563   -3.5983   18.8222 C.ar    1  UNL1       -0.0003
     28 C           3.5361   -2.9134   19.5474 C.ar    1  UNL1       -0.0045
     29 C           3.5324   -1.4194   19.6821 C.ar    1  UNL1       -0.0245
     30 C           2.4121   -0.7346   20.4073 C.3     1  UNL1        0.0456
@<TRIPOS>BOND
     1     1     2    2
     2     2     3    1
     3     3     4    1
     4     4     5    1
     5     5     6    1
     6     6     7    1
     7     7     8   am
     8     8     9    2
     9     8    10   am
    10    10    21    1
    11    21    22    1
    12    22    23    1
    13    23    24    1
    14    24    25   ar
    15    25    26   ar
    16    26    27   ar
    17    27    28   ar
    18    28    29   ar
    19    29    30    1
    20     7    11    1
    21    11    12    1
    22     4    13    1
    23    13    14    1
    24    14    15   ar
    25    15    16   ar
    26    16    17   ar
    27    17    18   ar
    28    18    19   ar
    29    19     2    1
    30    12     4    1
    31    19    14   ar
    32    30    21    1
    33    29    24   ar
    34    10    20    1
