@<TRIPOS>MOLECULE
*****
 33 36 0 0 0
SMALL
GASTEIGER

@<TRIPOS>ATOM
      1 C          -9.0757  -18.7730   20.6329 C.ar    1  UNL1        0.0678
      2 C          -9.7631  -19.3728   19.4422 C.ar    1  UNL1        0.0055
      3 C          -9.0462  -20.3773   18.5895 C.ar    1  UNL1        0.0016
      4 C          -7.6420  -20.7820   18.9275 C.ar    1  UNL1        0.0181
      5 C          -6.9546  -20.1822   20.1183 C.ar    1  UNL1        0.0922
      6 C          -7.6714  -19.1777   20.9710 C.ar    1  UNL1        0.1576
      7 F          -6.9840  -18.5779   22.1616 F       1  UNL1       -0.2027
      8 C          -9.7925  -17.7685   21.4856 C.2     1  UNL1        0.2014
      9 O         -10.2159  -16.4538   20.9004 O.2     1  UNL1       -0.2864
     10 C          -7.6000  -16.2883   25.5744 C.2     1  UNL1        0.0974
     11 C          -8.2333  -16.8524   26.8116 C.2     1  UNL1        0.2421
     12 N          -9.4156  -17.7685   26.6980 N.2     1  UNL1       -0.0304
     13 C          -9.9646  -18.1206   25.3472 C.2     1  UNL1        0.3721
     14 N         -11.1109  -18.9913   24.9254 N.2     1  UNL1       -0.0307
     15 C         -11.1860  -18.9653   23.4275 C.2     1  UNL1        0.2390
     16 C         -10.0861  -18.0787   22.9235 C.2     1  UNL1        0.0895
     17 C          -9.3312  -17.5566   24.1100 C.2     1  UNL1        0.0782
     18 C          -8.1489  -16.6405   24.2236 C.3     1  UNL1        0.0751
     19 N          -5.2354  -14.4561   25.8016 N.1     1  UNL1       -0.1910
     20 C          -6.4177  -15.3722   25.6880 C.1     1  UNL1        0.1003
     21 N          -5.5503  -20.5869   20.4562 N.pl3   1  UNL1       -0.2127
     22 H          -5.3237  -21.5395   20.5587 H       1  UNL1        0.1738
     23 S          -4.4913  -19.5404   20.6380 S.O2    1  UNL1        0.0780
     24 O          -3.8262  -20.3937   21.6769 O.2     1  UNL1       -0.1498
     25 O          -5.1563  -18.6869   19.5991 O.2     1  UNL1       -0.1498
     26 C          -3.4322  -18.4937   20.8197 C.ar    1  UNL1        0.1797
     27 C          -2.3839  -18.2965   19.7651 C.ar    1  UNL1        0.1611
     28 F          -2.3946  -19.1459   18.5288 F       1  UNL1       -0.2027
     29 C          -1.3249  -17.2499   19.9468 C.ar    1  UNL1        0.0312
     30 C          -1.3141  -16.4005   21.1831 C.ar    1  UNL1        0.0047
     31 C          -2.3624  -16.5976   22.2377 C.ar    1  UNL1        0.0312
     32 C          -3.4214  -17.6443   22.0560 C.ar    1  UNL1        0.1611
     33 F          -4.4697  -17.8415   23.1105 F       1  UNL1       -0.2027
@<TRIPOS>BOND
     1    19    20    3
     2    20    10    1
     3    10    11    2
     4    11    12    1
     5    12    13    2
     6    13    14    1
     7    14    15    2
     8    15    16    1
     9    16     8    1
    10     8     9    2
    11     8     1    1
    12     1     2   ar
    13     2     3   ar
    14     3     4   ar
    15     4     5   ar
    16     5    21    1
    17    21    23    1
    18    23    24    2
    19    23    25    2
    20    23    26    1
    21    26    27   ar
    22    27    28    1
    23    27    29   ar
    24    29    30   ar
    25    30    31   ar
    26    31    32   ar
    27    32    33    1
    28     5     6   ar
    29     6     7    1
    30    16    17    2
    31    17    18    1
    32    18    10    1
    33    17    13    1
    34     6     1   ar
    35    32    26   ar
    36    21    22    1
@<TRIPOS>MOLECULE
*****
 33 36 0 0 0
SMALL
GASTEIGER

@<TRIPOS>ATOM
      1 C          -5.1762  -15.8890   24.1918 C.ar    1  UNL1        0.0678
      2 C          -4.7492  -15.9741   25.6272 C.ar    1  UNL1        0.0055
      3 C          -5.7724  -15.8866   26.7206 C.ar    1  UNL1        0.0016
      4 C          -7.2226  -15.7139   26.3786 C.ar    1  UNL1        0.0181
      5 C          -7.6496  -15.6288   24.9431 C.ar    1  UNL1        0.0922
      6 C          -6.6264  -15.7164   23.8497 C.ar    1  UNL1        0.1576
      7 F          -7.0535  -15.6313   22.4143 F       1  UNL1       -0.2027
      8 C          -4.1530  -15.9766   23.0985 C.2     1  UNL1        0.2014
      9 O          -3.6786  -14.7292   22.4136 O.2     1  UNL1       -0.2864
     10 C          -6.0829  -19.5101   20.3588 C.2     1  UNL1        0.0974
     11 C          -5.1716  -20.6916   20.2059 C.2     1  UNL1        0.2421
     12 N          -3.8250  -20.6907   20.8667 N.2     1  UNL1       -0.0304
     13 C          -3.3897  -19.5081   21.6803 C.2     1  UNL1        0.3721
     14 N          -2.1297  -19.2233   22.4427 N.2     1  UNL1       -0.0307
     15 C          -2.2622  -17.8657   23.0668 C.2     1  UNL1        0.2390
     16 C          -3.6042  -17.3115   22.6901 C.2     1  UNL1        0.0895
     17 C          -4.3010  -18.3266   21.8332 C.2     1  UNL1        0.0782
     18 C          -5.6476  -18.3275   21.1724 C.3     1  UNL1        0.0751
     19 N          -8.7761  -19.5120   19.0372 N.1     1  UNL1       -0.1910
     20 C          -7.4295  -19.5111   19.6980 C.1     1  UNL1        0.1003
     21 N          -9.0998  -15.4562   24.6010 N.pl3   1  UNL1       -0.2127
     22 H          -9.5878  -14.6601   24.9131 H       1  UNL1        0.1738
     23 S          -9.8066  -16.4965   23.7836 S.O2    1  UNL1        0.0780
     24 O          -9.7580  -15.5908   22.5889 O.2     1  UNL1       -0.1498
     25 O          -9.8553  -17.4022   24.9783 O.2     1  UNL1       -0.1498
     26 C         -10.5135  -17.5368   22.9661 C.ar    1  UNL1        0.1797
     27 C         -11.9157  -17.2932   22.4924 C.ar    1  UNL1        0.1611
     28 F         -12.6111  -16.0093   22.8360 F       1  UNL1       -0.2027
     29 C         -12.6225  -18.3335   21.6750 C.ar    1  UNL1        0.0312
     30 C         -11.9272  -19.6174   21.3314 C.ar    1  UNL1        0.0047
     31 C         -10.5250  -19.8610   21.8051 C.ar    1  UNL1        0.0312
     32 C          -9.8181  -18.8208   22.6225 C.ar    1  UNL1        0.1611
     33 F          -8.4159  -19.0643   23.0963 F       1  UNL1       -0.2027
@<TRIPOS>BOND
     1    19    20    3
     2    20    10    1
     3    10    11    2
     4    11    12    1
     5    12    13    2
     6    13    14    1
     7    14    15    2
     8    15    16    1
     9    16     8    1
    10     8     9    2
    11     8     1    1
    12     1     2   ar
    13     2     3   ar
    14     3     4   ar
    15     4     5   ar
    16     5    21    1
    17    21    23    1
    18    23    24    2
    19    23    25    2
    20    23    26    1
    21    26    27   ar
    22    27    28    1
    23    27    29   ar
    24    29    30   ar
    25    30    31   ar
    26    31    32   ar
    27    32    33    1
    28     5     6   ar
    29     6     7    1
    30    16    17    2
    31    17    18    1
    32    18    10    1
    33    17    13    1
    34     6     1   ar
    35    32    26   ar
    36    21    22    1
@<TRIPOS>MOLECULE
*****
 33 36 0 0 0
SMALL
GASTEIGER

@<TRIPOS>ATOM
      1 C         -10.4262  -19.1166   22.2613 C.ar    1  UNL1        0.0678
      2 C         -11.4337  -18.5838   21.2861 C.ar    1  UNL1        0.0055
      3 C         -11.1430  -18.6154   19.8149 C.ar    1  UNL1        0.0016
      4 C          -9.8449  -19.1799   19.3188 C.ar    1  UNL1        0.0181
      5 C          -8.8373  -19.7128   20.2941 C.ar    1  UNL1        0.0922
      6 C          -9.1280  -19.6812   21.7653 C.ar    1  UNL1        0.1576
      7 F          -8.1204  -20.2140   22.7405 F       1  UNL1       -0.2027
      8 C         -10.7169  -19.0850   23.7326 C.2     1  UNL1        0.2014
      9 O         -11.8133  -19.9377   24.2990 O.2     1  UNL1       -0.2864
     10 C          -7.9828  -15.1752   22.7557 C.2     1  UNL1        0.0974
     11 C          -7.3452  -14.5898   23.9807 C.2     1  UNL1        0.2421
     12 N          -7.5852  -15.2153   25.3228 N.2     1  UNL1       -0.0304
     13 C          -8.4628  -16.4261   25.4398 C.2     1  UNL1        0.3721
     14 N          -8.8794  -17.2535   26.6196 N.2     1  UNL1       -0.0307
     15 C          -9.7745  -18.3503   26.1236 C.2     1  UNL1        0.2390
     16 C          -9.9111  -18.2007   24.6374 C.2     1  UNL1        0.0895
     17 C          -9.1004  -17.0115   24.2148 C.2     1  UNL1        0.0782
     18 C          -8.8604  -16.3860   22.8727 C.3     1  UNL1        0.0751
     19 N          -7.5028  -13.9242   20.0715 N.1     1  UNL1       -0.1910
     20 C          -7.7428  -14.5497   21.4136 C.1     1  UNL1        0.1003
     21 N          -7.5392  -20.2773   19.7980 N.pl3   1  UNL1       -0.2127
     22 H          -7.5362  -20.9331   19.0638 H       1  UNL1        0.1738
     23 S          -6.2456  -19.8425   20.4206 S.O2    1  UNL1        0.0780
     24 O          -6.5072  -18.4328   19.9800 O.2     1  UNL1       -0.1498
     25 O          -5.9839  -21.2522   20.8613 O.2     1  UNL1       -0.1498
     26 C          -4.9519  -19.4078   21.0432 C.ar    1  UNL1        0.1797
     27 C          -3.6480  -19.7915   20.4087 C.ar    1  UNL1        0.1611
     28 F          -3.6377  -20.6099   19.1517 F       1  UNL1       -0.2027
     29 C          -2.3544  -19.3568   21.0313 C.ar    1  UNL1        0.0312
     30 C          -2.3647  -18.5384   22.2883 C.ar    1  UNL1        0.0047
     31 C          -3.6686  -18.1547   22.9228 C.ar    1  UNL1        0.0312
     32 C          -4.9622  -18.5894   22.3003 C.ar    1  UNL1        0.1611
     33 F          -6.2661  -18.2057   22.9347 F       1  UNL1       -0.2027
@<TRIPOS>BOND
     1    19    20    3
     2    20    10    1
     3    10    11    2
     4    11    12    1
     5    12    13    2
     6    13    14    1
     7    14    15    2
     8    15    16    1
     9    16     8    1
    10     8     9    2
    11     8     1    1
    12     1     2   ar
    13     2     3   ar
    14     3     4   ar
    15     4     5   ar
    16     5    21    1
    17    21    23    1
    18    23    24    2
    19    23    25    2
    20    23    26    1
    21    26    27   ar
    22    27    28    1
    23    27    29   ar
    24    29    30   ar
    25    30    31   ar
    26    31    32   ar
    27    32    33    1
    28     5     6   ar
    29     6     7    1
    30    16    17    2
    31    17    18    1
    32    18    10    1
    33    17    13    1
    34     6     1   ar
    35    32    26   ar
    36    21    22    1
@<TRIPOS>MOLECULE
*****
 33 36 0 0 0
SMALL
GASTEIGER

@<TRIPOS>ATOM
      1 C          -8.3615  -16.8584   25.3981 C.ar    1  UNL1        0.0678
      2 C          -8.4348  -16.3969   26.8234 C.ar    1  UNL1        0.0055
      3 C          -7.3556  -15.5186   27.3838 C.ar    1  UNL1        0.0016
      4 C          -6.2031  -15.1019   26.5190 C.ar    1  UNL1        0.0181
      5 C          -6.1298  -15.5635   25.0936 C.ar    1  UNL1        0.0922
      6 C          -7.2089  -16.4417   24.5331 C.ar    1  UNL1        0.1576
      7 F          -7.1355  -16.9032   23.1078 F       1  UNL1       -0.2027
      8 C          -9.4406  -17.7366   24.8376 C.2     1  UNL1        0.2014
      9 O          -9.9914  -18.8648   25.6585 O.2     1  UNL1       -0.2864
     10 C          -8.1034  -19.5832   20.5343 C.2     1  UNL1        0.0974
     11 C          -8.9153  -19.0465   19.3929 C.2     1  UNL1        0.2421
     12 N         -10.0043  -18.0479   19.6514 N.2     1  UNL1       -0.0304
     13 C         -10.2815  -17.5860   21.0513 C.2     1  UNL1        0.3721
     14 N         -11.2825  -16.6183   21.6093 N.2     1  UNL1       -0.0307
     15 C         -11.0894  -16.5569   23.0955 C.2     1  UNL1        0.2390
     16 C          -9.9690  -17.4867   23.4562 C.2     1  UNL1        0.0895
     17 C          -9.4697  -18.1228   22.1927 C.2     1  UNL1        0.0782
     18 C          -8.3806  -19.1214   21.9342 C.3     1  UNL1        0.0751
     19 N          -5.9254  -21.5804   20.0172 N.1     1  UNL1       -0.1910
     20 C          -7.0144  -20.5818   20.2758 C.1     1  UNL1        0.1003
     21 N          -4.9772  -15.1467   24.2287 N.pl3   1  UNL1       -0.2127
     22 H          -4.6918  -14.2047   24.2093 H       1  UNL1        0.1738
     23 S          -4.2596  -16.1652   23.3935 S.O2    1  UNL1        0.0780
     24 O          -4.3700  -15.2640   22.1996 O.2     1  UNL1       -0.1498
     25 O          -4.1492  -17.0666   24.5874 O.2     1  UNL1       -0.1498
     26 C          -3.5420  -17.1838   22.5582 C.ar    1  UNL1        0.1797
     27 C          -4.1273  -18.5531   22.3784 C.ar    1  UNL1        0.1611
     28 F          -5.4302  -18.9039   23.0337 F       1  UNL1       -0.2027
     29 C          -3.4097  -19.5717   21.5432 C.ar    1  UNL1        0.0312
     30 C          -2.1069  -19.2210   20.8878 C.ar    1  UNL1        0.0047
     31 C          -1.5215  -17.8517   21.0676 C.ar    1  UNL1        0.0312
     32 C          -2.2391  -16.8331   21.9028 C.ar    1  UNL1        0.1611
     33 F          -1.6539  -15.4638   22.0827 F       1  UNL1       -0.2027
@<TRIPOS>BOND
     1    19    20    3
     2    20    10    1
     3    10    11    2
     4    11    12    1
     5    12    13    2
     6    13    14    1
     7    14    15    2
     8    15    16    1
     9    16     8    1
    10     8     9    2
    11     8     1    1
    12     1     2   ar
    13     2     3   ar
    14     3     4   ar
    15     4     5   ar
    16     5    21    1
    17    21    23    1
    18    23    24    2
    19    23    25    2
    20    23    26    1
    21    26    27   ar
    22    27    28    1
    23    27    29   ar
    24    29    30   ar
    25    30    31   ar
    26    31    32   ar
    27    32    33    1
    28     5     6   ar
    29     6     7    1
    30    16    17    2
    31    17    18    1
    32    18    10    1
    33    17    13    1
    34     6     1   ar
    35    32    26   ar
    36    21    22    1
@<TRIPOS>MOLECULE
*****
 33 36 0 0 0
SMALL
GASTEIGER

@<TRIPOS>ATOM
      1 C           4.8101   -3.2931   22.3444 C.ar    1  UNL1        0.0678
      2 C           3.9575   -2.2597   23.0191 C.ar    1  UNL1        0.0055
      3 C           4.3741   -1.6919   24.3434 C.ar    1  UNL1        0.0016
      4 C           5.6433   -2.1574   24.9932 C.ar    1  UNL1        0.0181
      5 C           6.4960   -3.1908   24.3186 C.ar    1  UNL1        0.0922
      6 C           6.0794   -3.7587   22.9942 C.ar    1  UNL1        0.1576
      7 F           6.9320   -4.7921   22.3196 F       1  UNL1       -0.2027
      8 C           4.3934   -3.8609   21.0201 C.2     1  UNL1        0.2014
      9 O           3.8287   -5.2485   20.9432 O.2     1  UNL1       -0.2864
     10 C           1.8294   -0.0567   19.3862 C.2     1  UNL1        0.0974
     11 C           2.3323    0.4632   18.0722 C.2     1  UNL1        0.2421
     12 N           3.5094   -0.1883   17.4088 N.2     1  UNL1       -0.0304
     13 C           4.1835   -1.3597   18.0594 C.2     1  UNL1        0.3721
     14 N           5.3553   -2.2000   17.6464 N.2     1  UNL1       -0.0307
     15 C           5.5766   -3.2393   18.7052 C.2     1  UNL1        0.2390
     16 C           4.5415   -3.0413   19.7726 C.2     1  UNL1        0.0895
     17 C           3.6805   -1.8796   19.3735 C.2     1  UNL1        0.0782
     18 C           2.5035   -1.2281   20.0368 C.3     1  UNL1        0.0751
     19 N          -0.5247    1.2463   20.7130 N.1     1  UNL1       -0.1910
     20 C           0.6523    0.5948   20.0496 C.1     1  UNL1        0.1003
     21 N           7.7652   -3.6564   24.9684 N.pl3   1  UNL1       -0.2127
     22 H           8.6199   -3.5875   24.4846 H       1  UNL1        0.1738
     23 S           7.7323   -4.2269   26.3552 S.O2    1  UNL1        0.0780
     24 O           6.8534   -5.3435   25.8751 O.2     1  UNL1       -0.1498
     25 O           8.6113   -3.1103   26.8354 O.2     1  UNL1       -0.1498
     26 C           7.6995   -4.7974   27.7422 C.ar    1  UNL1        0.1797
     27 C           6.7650   -4.2250   28.7665 C.ar    1  UNL1        0.1611
     28 F           5.8634   -3.0823   28.4040 F       1  UNL1       -0.2027
     29 C           6.7321   -4.7954   30.1534 C.ar    1  UNL1        0.0312
     30 C           7.6336   -5.9382   30.5160 C.ar    1  UNL1        0.0047
     31 C           8.5681   -6.5105   29.4917 C.ar    1  UNL1        0.0312
     32 C           8.6010   -5.9401   28.1048 C.ar    1  UNL1        0.1611
     33 F           9.5354   -6.5123   27.0804 F       1  UNL1       -0.2027
@<TRIPOS>BOND
     1    19    20    3
     2    20    10    1
     3    10    11    2
     4    11    12    1
     5    12    13    2
     6    13    14    1
     7    14    15    2
     8    15    16    1
     9    16     8    1
    10     8     9    2
    11     8     1    1
    12     1     2   ar
    13     2     3   ar
    14     3     4   ar
    15     4     5   ar
    16     5    21    1
    17    21    23    1
    18    23    24    2
    19    23    25    2
    20    23    26    1
    21    26    27   ar
    22    27    28    1
    23    27    29   ar
    24    29    30   ar
    25    30    31   ar
    26    31    32   ar
    27    32    33    1
    28     5     6   ar
    29     6     7    1
    30    16    17    2
    31    17    18    1
    32    18    10    1
    33    17    13    1
    34     6     1   ar
    35    32    26   ar
    36    21    22    1
@<TRIPOS>MOLECULE
*****
 33 36 0 0 0
SMALL
GASTEIGER

@<TRIPOS>ATOM
      1 C          -8.7895  -17.6467   23.9778 C.ar    1  UNL1        0.0678
      2 C          -8.2228  -16.3274   24.4117 C.ar    1  UNL1        0.0055
      3 C          -6.8215  -15.9513   24.0310 C.ar    1  UNL1        0.0016
      4 C          -5.9868  -16.8946   23.2164 C.ar    1  UNL1        0.0181
      5 C          -6.5536  -18.2140   22.7825 C.ar    1  UNL1        0.0922
      6 C          -7.9549  -18.5900   23.1632 C.ar    1  UNL1        0.1576
      7 F          -8.5215  -19.9093   22.7293 F       1  UNL1       -0.2027
      8 C         -10.1908  -18.0227   24.3585 C.2     1  UNL1        0.2014
      9 O         -10.4817  -18.5334   25.7386 O.2     1  UNL1       -0.2864
     10 C         -10.5460  -15.2927   20.3413 C.2     1  UNL1        0.0974
     11 C         -11.8539  -15.4722   19.6293 C.2     1  UNL1        0.2421
     12 N         -12.8821  -16.4175   20.1762 N.2     1  UNL1       -0.0304
     13 C         -12.6024  -17.1834   21.4352 C.2     1  UNL1        0.3721
     14 N         -13.4175  -18.1785   22.2068 N.2     1  UNL1       -0.0307
     15 C         -12.6134  -18.6140   23.3958 C.2     1  UNL1        0.2390
     16 C         -11.3012  -17.8881   23.3591 C.2     1  UNL1        0.0895
     17 C         -11.2945  -17.0039   22.1473 C.2     1  UNL1        0.0782
     18 C         -10.2663  -16.0586   21.6004 C.3     1  UNL1        0.0751
     19 N          -8.4896  -13.4021   19.2475 N.1     1  UNL1       -0.1910
     20 C          -9.5178  -14.3474   19.7944 C.1     1  UNL1        0.1003
     21 N          -5.7189  -19.1572   21.9679 N.pl3   1  UNL1       -0.2127
     22 H          -6.0273  -20.0793   21.8132 H       1  UNL1        0.1738
     23 S          -4.4144  -18.6956   21.3891 S.O2    1  UNL1        0.0780
     24 O          -3.7048  -19.1403   22.6335 O.2     1  UNL1       -0.1498
     25 O          -5.1239  -18.2509   20.1446 O.2     1  UNL1       -0.1498
     26 C          -3.1098  -18.2340   20.8101 C.ar    1  UNL1        0.1797
     27 C          -2.3772  -17.0838   21.4349 C.ar    1  UNL1        0.1611
     28 F          -2.9491  -16.3952   22.6386 F       1  UNL1       -0.2027
     29 C          -1.0727  -16.6222   20.8561 C.ar    1  UNL1        0.0312
     30 C          -0.5007  -17.3107   19.6524 C.ar    1  UNL1        0.0047
     31 C          -1.2333  -18.4609   19.0276 C.ar    1  UNL1        0.0312
     32 C          -2.5378  -18.9226   19.6065 C.ar    1  UNL1        0.1611
     33 F          -3.2704  -20.0728   18.9818 F       1  UNL1       -0.2027
@<TRIPOS>BOND
     1    19    20    3
     2    20    10    1
     3    10    11    2
     4    11    12    1
     5    12    13    2
     6    13    14    1
     7    14    15    2
     8    15    16    1
     9    16     8    1
    10     8     9    2
    11     8     1    1
    12     1     2   ar
    13     2     3   ar
    14     3     4   ar
    15     4     5   ar
    16     5    21    1
    17    21    23    1
    18    23    24    2
    19    23    25    2
    20    23    26    1
    21    26    27   ar
    22    27    28    1
    23    27    29   ar
    24    29    30   ar
    25    30    31   ar
    26    31    32   ar
    27    32    33    1
    28     5     6   ar
    29     6     7    1
    30    16    17    2
    31    17    18    1
    32    18    10    1
    33    17    13    1
    34     6     1   ar
    35    32    26   ar
    36    21    22    1
@<TRIPOS>MOLECULE
*****
 33 36 0 0 0
SMALL
GASTEIGER

@<TRIPOS>ATOM
      1 C           3.7657   -1.4793   19.1679 C.ar    1  UNL1        0.0678
      2 C           4.9058   -0.8127   18.4567 C.ar    1  UNL1        0.0055
      3 C           4.7957    0.6259   18.0465 C.ar    1  UNL1        0.0016
      4 C           3.5454    1.3980   18.3475 C.ar    1  UNL1        0.0181
      5 C           2.4053    0.7314   19.0587 C.ar    1  UNL1        0.0922
      6 C           2.5153   -0.7072   19.4689 C.ar    1  UNL1        0.1576
      7 F           1.3751   -1.3736   20.1800 F       1  UNL1       -0.2027
      8 C           3.8758   -2.9179   19.5781 C.2     1  UNL1        0.2014
      9 O           2.8492   -3.9098   19.1175 O.2     1  UNL1       -0.2864
     10 C           4.7987   -2.0836   24.2865 C.2     1  UNL1        0.0974
     11 C           6.0672   -2.7327   24.7549 C.2     1  UNL1        0.2421
     12 N           6.8971   -3.5354   23.7973 N.2     1  UNL1       -0.0304
     13 C           6.4583   -3.6890   22.3712 C.2     1  UNL1        0.3721
     14 N           7.0651   -4.4147   21.2070 N.2     1  UNL1       -0.0307
     15 C           6.1715   -4.2142   20.0190 C.2     1  UNL1        0.2390
     16 C           5.0125   -3.3645   20.4489 C.2     1  UNL1        0.0895
     17 C           5.1898   -3.0400   21.9027 C.2     1  UNL1        0.0782
     18 C           4.3600   -2.2373   22.8603 C.3     1  UNL1        0.0751
     19 N           3.1391   -0.4782   26.2017 N.1     1  UNL1       -0.1910
     20 C           3.9689   -1.2809   25.2441 C.1     1  UNL1        0.1003
     21 N           1.1550    1.5036   19.3596 N.pl3   1  UNL1       -0.2127
     22 H           0.6063    1.8584   18.6232 H       1  UNL1        0.1738
     23 S           0.7406    1.7351   20.7825 S.O2    1  UNL1        0.0780
     24 O          -0.4939    0.9136   20.5568 O.2     1  UNL1       -0.1498
     25 O           1.9752    2.5566   21.0083 O.2     1  UNL1       -0.1498
     26 C           0.3263    1.9667   22.2055 C.ar    1  UNL1        0.1797
     27 C          -0.6650    3.0440   22.5321 C.ar    1  UNL1        0.1611
     28 F          -1.2421    3.8897   21.4359 F       1  UNL1       -0.2027
     29 C          -1.0793    3.2756   23.9551 C.ar    1  UNL1        0.0312
     30 C          -0.5023    2.4299   25.0514 C.ar    1  UNL1        0.0047
     31 C           0.4891    1.3526   24.7248 C.ar    1  UNL1        0.0312
     32 C           0.9034    1.1210   23.3019 C.ar    1  UNL1        0.1611
     33 F           1.8947    0.0438   22.9752 F       1  UNL1       -0.2027
@<TRIPOS>BOND
     1    19    20    3
     2    20    10    1
     3    10    11    2
     4    11    12    1
     5    12    13    2
     6    13    14    1
     7    14    15    2
     8    15    16    1
     9    16     8    1
    10     8     9    2
    11     8     1    1
    12     1     2   ar
    13     2     3   ar
    14     3     4   ar
    15     4     5   ar
    16     5    21    1
    17    21    23    1
    18    23    24    2
    19    23    25    2
    20    23    26    1
    21    26    27   ar
    22    27    28    1
    23    27    29   ar
    24    29    30   ar
    25    30    31   ar
    26    31    32   ar
    27    32    33    1
    28     5     6   ar
    29     6     7    1
    30    16    17    2
    31    17    18    1
    32    18    10    1
    33    17    13    1
    34     6     1   ar
    35    32    26   ar
    36    21    22    1
@<TRIPOS>MOLECULE
*****
 33 36 0 0 0
SMALL
GASTEIGER

@<TRIPOS>ATOM
      1 C          -7.2458  -17.8920   23.1258 C.ar    1  UNL1        0.0678
      2 C          -7.6678  -16.6090   23.7784 C.ar    1  UNL1        0.0055
      3 C          -6.6325  -15.6288   24.2446 C.ar    1  UNL1        0.0016
      4 C          -5.1752  -15.9315   24.0583 C.ar    1  UNL1        0.0181
      5 C          -4.7533  -17.2146   23.4057 C.ar    1  UNL1        0.0922
      6 C          -5.7885  -18.1948   22.9395 C.ar    1  UNL1        0.1576
      7 F          -5.3665  -19.4778   22.2869 F       1  UNL1       -0.2027
      8 C          -8.2811  -18.8723   22.6596 C.2     1  UNL1        0.2014
      9 O          -8.1945  -20.3102   23.0776 O.2     1  UNL1       -0.2864
     10 C         -13.0129  -18.2115   23.6029 C.2     1  UNL1        0.0974
     11 C         -13.7841  -17.7371   22.4071 C.2     1  UNL1        0.2421
     12 N         -13.0816  -17.5180   21.1000 N.2     1  UNL1       -0.0304
     13 C         -11.6077  -17.7734   20.9888 C.2     1  UNL1        0.3721
     14 N         -10.6509  -17.6468   19.8405 N.2     1  UNL1       -0.0307
     15 C          -9.2883  -18.0430   20.3266 C.2     1  UNL1        0.2390
     16 C          -9.4029  -18.4145   21.7753 C.2     1  UNL1        0.0895
     17 C         -10.8364  -18.2479   22.1846 C.2     1  UNL1        0.0782
     18 C         -11.5390  -18.4670   23.4916 C.3     1  UNL1        0.0751
     19 N         -14.4180  -18.6496   26.2170 N.1     1  UNL1       -0.1910
     20 C         -13.7154  -18.4306   24.9099 C.1     1  UNL1        0.1003
     21 N          -3.2960  -17.5173   23.2194 N.pl3   1  UNL1       -0.2127
     22 H          -2.7156  -17.6455   24.0042 H       1  UNL1        0.1738
     23 S          -2.7230  -17.6247   21.8373 S.O2    1  UNL1        0.0780
     24 O          -2.5220  -19.0979   22.0351 O.2     1  UNL1       -0.1498
     25 O          -2.9241  -16.1515   21.6394 O.2     1  UNL1       -0.1498
     26 C          -2.1501  -17.7321   20.4551 C.ar    1  UNL1        0.1797
     27 C          -3.0197  -18.1718   19.3149 C.ar    1  UNL1        0.1611
     28 F          -4.4624  -18.5042   19.5566 F       1  UNL1       -0.2027
     29 C          -2.4468  -18.2792   17.9327 C.ar    1  UNL1        0.0312
     30 C          -1.0043  -17.9468   17.6909 C.ar    1  UNL1        0.0047
     31 C          -0.1346  -17.5071   18.8312 C.ar    1  UNL1        0.0312
     32 C          -0.7075  -17.3997   20.2133 C.ar    1  UNL1        0.1611
     33 F           0.1621  -16.9600   21.3536 F       1  UNL1       -0.2027
@<TRIPOS>BOND
     1    19    20    3
     2    20    10    1
     3    10    11    2
     4    11    12    1
     5    12    13    2
     6    13    14    1
     7    14    15    2
     8    15    16    1
     9    16     8    1
    10     8     9    2
    11     8     1    1
    12     1     2   ar
    13     2     3   ar
    14     3     4   ar
    15     4     5   ar
    16     5    21    1
    17    21    23    1
    18    23    24    2
    19    23    25    2
    20    23    26    1
    21    26    27   ar
    22    27    28    1
    23    27    29   ar
    24    29    30   ar
    25    30    31   ar
    26    31    32   ar
    27    32    33    1
    28     5     6   ar
    29     6     7    1
    30    16    17    2
    31    17    18    1
    32    18    10    1
    33    17    13    1
    34     6     1   ar
    35    32    26   ar
    36    21    22    1
@<TRIPOS>MOLECULE
*****
 33 36 0 0 0
SMALL
GASTEIGER

@<TRIPOS>ATOM
      1 C          -7.1307  -16.3117   24.2025 C.ar    1  UNL1        0.0678
      2 C          -6.0729  -15.2676   24.4045 C.ar    1  UNL1        0.0055
      3 C          -4.6922  -15.4834   23.8595 C.ar    1  UNL1        0.0016
      4 C          -4.3692  -16.7434   23.1125 C.ar    1  UNL1        0.0181
      5 C          -5.4271  -17.7877   22.9106 C.ar    1  UNL1        0.0922
      6 C          -6.8078  -17.5718   23.4556 C.ar    1  UNL1        0.1576
      7 F          -7.8655  -18.6161   23.2536 F       1  UNL1       -0.2027
      8 C          -8.5114  -16.0959   24.7476 C.2     1  UNL1        0.2014
      9 O          -8.8417  -14.8244   25.4716 O.2     1  UNL1       -0.2864
     10 C         -11.7308  -16.8093   21.1638 C.2     1  UNL1        0.0974
     11 C         -12.6054  -18.0055   21.3965 C.2     1  UNL1        0.2421
     12 N         -12.4299  -18.8334   22.6350 N.2     1  UNL1       -0.0304
     13 C         -11.3798  -18.4651   23.6407 C.2     1  UNL1        0.3721
     14 N         -10.9770  -19.0871   24.9449 N.2     1  UNL1       -0.0307
     15 C          -9.8535  -18.2753   25.5183 C.2     1  UNL1        0.2390
     16 C          -9.5619  -17.1516   24.5685 C.2     1  UNL1        0.0895
     17 C         -10.5052  -17.2689   23.4081 C.2     1  UNL1        0.0782
     18 C         -10.6807  -16.4410   22.1696 C.3     1  UNL1        0.0751
     19 N         -12.0818  -15.1535   18.6869 N.1     1  UNL1       -0.1910
     20 C         -11.9063  -15.9814   19.9254 C.1     1  UNL1        0.1003
     21 N          -5.1041  -19.0477   22.1636 N.pl3   1  UNL1       -0.2127
     22 H          -4.2561  -19.5178   22.3347 H       1  UNL1        0.1738
     23 S          -6.0730  -19.5915   21.1559 S.O2    1  UNL1        0.0780
     24 O          -6.4499  -20.6865   22.1092 O.2     1  UNL1       -0.1498
     25 O          -5.6961  -18.4965   20.2025 O.2     1  UNL1       -0.1498
     26 C          -7.0419  -20.1354   20.1481 C.ar    1  UNL1        0.1797
     27 C          -8.3504  -19.4401   19.9148 C.ar    1  UNL1        0.1611
     28 F          -8.6901  -18.2011   20.6892 F       1  UNL1       -0.2027
     29 C          -9.3194  -19.9839   18.9071 C.ar    1  UNL1        0.0312
     30 C          -8.9798  -21.2228   18.1327 C.ar    1  UNL1        0.0047
     31 C          -7.6713  -21.9181   18.3660 C.ar    1  UNL1        0.0312
     32 C          -6.7024  -21.3743   19.3737 C.ar    1  UNL1        0.1611
     33 F          -5.3939  -22.0695   19.6071 F       1  UNL1       -0.2027
@<TRIPOS>BOND
     1    19    20    3
     2    20    10    1
     3    10    11    2
     4    11    12    1
     5    12    13    2
     6    13    14    1
     7    14    15    2
     8    15    16    1
     9    16     8    1
    10     8     9    2
    11     8     1    1
    12     1     2   ar
    13     2     3   ar
    14     3     4   ar
    15     4     5   ar
    16     5    21    1
    17    21    23    1
    18    23    24    2
    19    23    25    2
    20    23    26    1
    21    26    27   ar
    22    27    28    1
    23    27    29   ar
    24    29    30   ar
    25    30    31   ar
    26    31    32   ar
    27    32    33    1
    28     5     6   ar
    29     6     7    1
    30    16    17    2
    31    17    18    1
    32    18    10    1
    33    17    13    1
    34     6     1   ar
    35    32    26   ar
    36    21    22    1
