@<TRIPOS>MOLECULE
*****
 20 23 0 0 0
SMALL
GASTEIGER

@<TRIPOS>ATOM
      1 C          -5.0938  -15.9315   24.3002 C.3     1  UNL1        0.0896
      2 N          -5.1539  -17.0805   23.3378 N.3     1  UNL1       -0.2712
      3 C          -3.9825  -17.7170   22.6503 C.3     1  UNL1        0.0725
      4 C          -4.5007  -18.8246   21.7816 C.3     1  UNL1        0.0210
      5 C          -3.8069  -19.7957   20.8729 C.3     1  UNL1        0.0017
      6 C          -4.6048  -20.8147   20.1147 C.3     1  UNL1        0.0001
      7 C          -6.0965  -20.8628   20.2652 C.3     1  UNL1        0.0004
      8 C          -6.7903  -19.8917   21.1739 C.3     1  UNL1        0.0054
      9 C          -5.9923  -18.8727   21.9321 C.3     1  UNL1        0.0349
     10 C          -6.3961  -17.7947   22.8939 C.3     1  UNL1        0.0762
     11 C          -7.4696  -18.8003   22.1824 C.ar    1  UNL1       -0.0215
     12 C          -8.1670  -19.9264   22.8863 C.ar    1  UNL1       -0.0042
     13 C          -9.6442  -19.8541   23.1366 C.ar    1  UNL1       -0.0003
     14 C         -10.4240  -18.6556   22.6830 C.ar    1  UNL1       -0.0000
     15 C         -11.9011  -18.5832   22.9334 C.ar    1  UNL1       -0.0000
     16 C         -12.6808  -17.3848   22.4798 C.ar    1  UNL1       -0.0000
     17 C         -11.9834  -16.2587   21.7759 C.ar    1  UNL1       -0.0000
     18 C         -10.5062  -16.3310   21.5256 C.ar    1  UNL1       -0.0000
     19 C          -9.7265  -17.5295   21.9792 C.ar    1  UNL1       -0.0003
     20 C          -8.2493  -17.6018   21.7288 C.ar    1  UNL1       -0.0042
@<TRIPOS>BOND
     1     1     2    1
     2     2     3    1
     3     4     3    1
     4     4     5    1
     5     5     6    1
     6     6     7    1
     7     7     8    1
     8     8     9    1
     9     9    11    1
    10    11    12   ar
    11    12    13   ar
    12    13    14   ar
    13    14    15   ar
    14    15    16   ar
    15    16    17   ar
    16    17    18   ar
    17    18    19   ar
    18    19    20   ar
    19     9    10    1
    20    10     2    1
    21     9     4    1
    22    20    11   ar
    23    19    14   ar
@<TRIPOS>MOLECULE
*****
 20 23 0 0 0
SMALL
GASTEIGER

@<TRIPOS>ATOM
      1 C         -11.4384  -15.5853   19.1548 C.3     1  UNL1        0.0896
      2 N         -11.4374  -16.4541   20.3776 N.3     1  UNL1       -0.2712
      3 C         -12.5147  -16.5107   21.4198 C.3     1  UNL1        0.0725
      4 C         -12.1020  -17.5103   22.4592 C.3     1  UNL1        0.0210
      5 C         -12.7673  -17.9821   23.7181 C.3     1  UNL1        0.0017
      6 C         -12.1003  -19.0150   24.5772 C.3     1  UNL1        0.0001
      7 C         -10.7679  -19.5763   24.1775 C.3     1  UNL1        0.0004
      8 C         -10.1026  -19.1045   22.9185 C.3     1  UNL1        0.0054
      9 C         -10.7697  -18.0716   22.0595 C.3     1  UNL1        0.0349
     10 C         -10.3589  -17.4187   20.7729 C.3     1  UNL1        0.0762
     11 C          -9.4447  -18.5389   21.5340 C.ar    1  UNL1       -0.0215
     12 C          -9.3754  -19.2955   20.2406 C.ar    1  UNL1       -0.0042
     13 C          -8.0505  -19.7628   19.7152 C.ar    1  UNL1       -0.0003
     14 C          -6.7948  -19.4736   20.4830 C.ar    1  UNL1       -0.0000
     15 C          -5.4699  -19.9409   19.9575 C.ar    1  UNL1       -0.0000
     16 C          -4.2143  -19.6516   20.7254 C.ar    1  UNL1       -0.0000
     17 C          -4.2835  -18.8950   22.0188 C.ar    1  UNL1       -0.0000
     18 C          -5.6084  -18.4277   22.5442 C.ar    1  UNL1       -0.0000
     19 C          -6.8641  -18.7170   21.7764 C.ar    1  UNL1       -0.0003
     20 C          -8.1891  -18.2496   22.3019 C.ar    1  UNL1       -0.0042
@<TRIPOS>BOND
     1     1     2    1
     2     2     3    1
     3     4     3    1
     4     4     5    1
     5     5     6    1
     6     6     7    1
     7     7     8    1
     8     8     9    1
     9     9    11    1
    10    11    12   ar
    11    12    13   ar
    12    13    14   ar
    13    14    15   ar
    14    15    16   ar
    15    16    17   ar
    16    17    18   ar
    17    18    19   ar
    18    19    20   ar
    19     9    10    1
    20    10     2    1
    21     9     4    1
    22    20    11   ar
    23    19    14   ar
@<TRIPOS>MOLECULE
*****
 20 23 0 0 0
SMALL
GASTEIGER

@<TRIPOS>ATOM
      1 C         -12.5903  -16.5266   21.1161 C.3     1  UNL1        0.0896
      2 N         -11.3196  -17.3171   21.0142 N.3     1  UNL1       -0.2712
      3 C         -10.8727  -18.1189   19.8278 C.3     1  UNL1        0.0725
      4 C          -9.5496  -18.7419   20.1612 C.3     1  UNL1        0.0210
      5 C          -8.6345  -19.6348   19.3768 C.3     1  UNL1        0.0017
      6 C          -7.3486  -20.1111   19.9848 C.3     1  UNL1        0.0001
      7 C          -6.9777  -19.6944   21.3772 C.3     1  UNL1        0.0004
      8 C          -7.8928  -18.8014   22.1617 C.3     1  UNL1        0.0054
      9 C          -9.1787  -18.3252   21.5536 C.3     1  UNL1        0.0349
     10 C         -10.2726  -17.4446   22.0809 C.3     1  UNL1        0.0762
     11 C          -8.9427  -17.8282   22.9491 C.ar    1  UNL1       -0.0215
     12 C          -9.8184  -18.3004   24.0716 C.ar    1  UNL1       -0.0042
     13 C          -9.5825  -17.8034   25.4670 C.ar    1  UNL1       -0.0003
     14 C          -8.4707  -16.8341   25.7400 C.ar    1  UNL1       -0.0000
     15 C          -8.2348  -16.3370   27.1354 C.ar    1  UNL1       -0.0000
     16 C          -7.1231  -15.3677   27.4084 C.ar    1  UNL1       -0.0000
     17 C          -6.2473  -14.8955   26.2859 C.ar    1  UNL1       -0.0000
     18 C          -6.4833  -15.3925   24.8904 C.ar    1  UNL1       -0.0000
     19 C          -7.5950  -16.3618   24.6175 C.ar    1  UNL1       -0.0003
     20 C          -7.8310  -16.8589   23.2220 C.ar    1  UNL1       -0.0042
@<TRIPOS>BOND
     1     1     2    1
     2     2     3    1
     3     4     3    1
     4     4     5    1
     5     5     6    1
     6     6     7    1
     7     7     8    1
     8     8     9    1
     9     9    11    1
    10    11    12   ar
    11    12    13   ar
    12    13    14   ar
    13    14    15   ar
    14    15    16   ar
    15    16    17   ar
    16    17    18   ar
    17    18    19   ar
    18    19    20   ar
    19     9    10    1
    20    10     2    1
    21     9     4    1
    22    20    11   ar
    23    19    14   ar
@<TRIPOS>MOLECULE
*****
 20 23 0 0 0
SMALL
GASTEIGER

@<TRIPOS>ATOM
      1 C          -5.9801  -15.1658   25.4069 C.3     1  UNL1        0.0896
      2 N          -5.9820  -16.2054   24.3256 N.3     1  UNL1       -0.2712
      3 C          -4.7747  -16.8975   23.7659 C.3     1  UNL1        0.0725
      4 C          -5.2381  -17.8553   22.7085 C.3     1  UNL1        0.0210
      5 C          -4.4929  -18.8057   21.8190 C.3     1  UNL1        0.0017
      6 C          -5.2415  -19.6559   20.8357 C.3     1  UNL1        0.0001
      7 C          -6.7352  -19.5557   20.7419 C.3     1  UNL1        0.0004
      8 C          -7.4804  -18.6052   21.6315 C.3     1  UNL1        0.0054
      9 C          -6.7318  -17.7551   22.6148 C.3     1  UNL1        0.0349
     10 C          -7.1916  -16.7353   23.6142 C.3     1  UNL1        0.0762
     11 C          -8.2172  -17.5467   22.6346 C.ar    1  UNL1       -0.0215
     12 C          -8.8430  -16.5228   21.7346 C.ar    1  UNL1       -0.0042
     13 C         -10.3283  -16.3144   21.7544 C.ar    1  UNL1       -0.0003
     14 C         -11.1879  -17.1299   22.6743 C.ar    1  UNL1       -0.0000
     15 C         -12.6732  -16.9215   22.6941 C.ar    1  UNL1       -0.0000
     16 C         -13.5327  -17.7370   23.6139 C.ar    1  UNL1       -0.0000
     17 C         -12.9069  -18.7610   24.5139 C.ar    1  UNL1       -0.0000
     18 C         -11.4216  -18.9694   24.4941 C.ar    1  UNL1       -0.0000
     19 C         -10.5621  -18.1538   23.5743 C.ar    1  UNL1       -0.0003
     20 C          -9.0767  -18.3622   23.5544 C.ar    1  UNL1       -0.0042
@<TRIPOS>BOND
     1     1     2    1
     2     2     3    1
     3     4     3    1
     4     4     5    1
     5     5     6    1
     6     6     7    1
     7     7     8    1
     8     8     9    1
     9     9    11    1
    10    11    12   ar
    11    12    13   ar
    12    13    14   ar
    13    14    15   ar
    14    15    16   ar
    15    16    17   ar
    16    17    18   ar
    17    18    19   ar
    18    19    20   ar
    19     9    10    1
    20    10     2    1
    21     9     4    1
    22    20    11   ar
    23    19    14   ar
@<TRIPOS>MOLECULE
*****
 20 23 0 0 0
SMALL
GASTEIGER

@<TRIPOS>ATOM
      1 C         -14.4169   -2.0289   18.6694 C.3     1  UNL1        0.0896
      2 N         -13.4319   -3.1598   18.6969 N.3     1  UNL1       -0.2712
      3 C         -11.9661   -3.0452   18.9941 C.3     1  UNL1        0.0725
      4 C         -11.3680   -4.4184   18.9129 C.3     1  UNL1        0.0210
      5 C          -9.9668   -4.9162   19.1103 C.3     1  UNL1        0.0017
      6 C          -9.6618   -6.3772   18.9604 C.3     1  UNL1        0.0001
      7 C         -10.7579   -7.3404   18.6130 C.3     1  UNL1        0.0004
      8 C         -12.1591   -6.8427   18.4155 C.3     1  UNL1        0.0054
      9 C         -12.4641   -5.3817   18.5655 C.3     1  UNL1        0.0349
     10 C         -13.7397   -4.6038   18.4320 C.3     1  UNL1        0.0762
     11 C         -13.6572   -6.2214   18.2171 C.ar    1  UNL1       -0.0215
     12 C         -14.0028   -6.4736   16.7794 C.ar    1  UNL1       -0.0042
     13 C         -15.1959   -7.3133   16.4310 C.ar    1  UNL1       -0.0003
     14 C         -16.0435   -7.9008   17.5203 C.ar    1  UNL1       -0.0000
     15 C         -17.2365   -8.7405   17.1719 C.ar    1  UNL1       -0.0000
     16 C         -18.0840   -9.3280   18.2612 C.ar    1  UNL1       -0.0000
     17 C         -17.7384   -9.0758   19.6989 C.ar    1  UNL1       -0.0000
     18 C         -16.5453   -8.2361   20.0473 C.ar    1  UNL1       -0.0000
     19 C         -15.6979   -7.6486   18.9580 C.ar    1  UNL1       -0.0003
     20 C         -14.5047   -6.8089   19.3064 C.ar    1  UNL1       -0.0042
@<TRIPOS>BOND
     1     1     2    1
     2     2     3    1
     3     4     3    1
     4     4     5    1
     5     5     6    1
     6     6     7    1
     7     7     8    1
     8     8     9    1
     9     9    11    1
    10    11    12   ar
    11    12    13   ar
    12    13    14   ar
    13    14    15   ar
    14    15    16   ar
    15    16    17   ar
    16    17    18   ar
    17    18    19   ar
    18    19    20   ar
    19     9    10    1
    20    10     2    1
    21     9     4    1
    22    20    11   ar
    23    19    14   ar
@<TRIPOS>MOLECULE
*****
 20 23 0 0 0
SMALL
GASTEIGER

@<TRIPOS>ATOM
      1 C          -9.6631   -7.6172   18.8364 C.3     1  UNL1        0.0896
      2 N         -10.5382   -6.3992   18.8109 N.3     1  UNL1       -0.2712
      3 C         -10.0965   -4.9905   19.0767 C.3     1  UNL1        0.0725
      4 C         -11.2939   -4.0967   18.9452 C.3     1  UNL1        0.0210
      5 C         -11.4609   -2.6137   19.0966 C.3     1  UNL1        0.0017
      6 C         -12.8096   -1.9870   18.9009 C.3     1  UNL1        0.0001
      7 C         -13.9913   -2.8432   18.5539 C.3     1  UNL1        0.0004
      8 C         -13.8244   -4.3262   18.4025 C.3     1  UNL1        0.0054
      9 C         -12.4756   -4.9529   18.5981 C.3     1  UNL1        0.0349
     10 C         -12.0086   -6.3760   18.5151 C.3     1  UNL1        0.0762
     11 C         -13.5594   -5.9318   18.2556 C.ar    1  UNL1       -0.0215
     12 C         -13.7392   -6.3857   16.8373 C.ar    1  UNL1       -0.0042
     13 C         -14.8229   -7.3646   16.4948 C.ar    1  UNL1       -0.0003
     14 C         -15.7269   -7.8896   17.5706 C.ar    1  UNL1       -0.0000
     15 C         -16.8106   -8.8685   17.2281 C.ar    1  UNL1       -0.0000
     16 C         -17.7145   -9.3934   18.3039 C.ar    1  UNL1       -0.0000
     17 C         -17.5347   -8.9395   19.7222 C.ar    1  UNL1       -0.0000
     18 C         -16.4510   -7.9606   20.0647 C.ar    1  UNL1       -0.0000
     19 C         -15.5471   -7.4357   18.9889 C.ar    1  UNL1       -0.0003
     20 C         -14.4633   -6.4567   19.3314 C.ar    1  UNL1       -0.0042
@<TRIPOS>BOND
     1     1     2    1
     2     2     3    1
     3     4     3    1
     4     4     5    1
     5     5     6    1
     6     6     7    1
     7     7     8    1
     8     8     9    1
     9     9    11    1
    10    11    12   ar
    11    12    13   ar
    12    13    14   ar
    13    14    15   ar
    14    15    16   ar
    15    16    17   ar
    16    17    18   ar
    17    18    19   ar
    18    19    20   ar
    19     9    10    1
    20    10     2    1
    21     9     4    1
    22    20    11   ar
    23    19    14   ar
@<TRIPOS>MOLECULE
*****
 20 23 0 0 0
SMALL
GASTEIGER

@<TRIPOS>ATOM
      1 C          -9.7116   -7.1671   18.9375 C.3     1  UNL1        0.0896
      2 N         -10.4488   -5.8630   18.8599 N.3     1  UNL1       -0.2712
      3 C          -9.8269   -4.4981   18.8478 C.3     1  UNL1        0.0725
      4 C         -10.9310   -3.4864   18.7612 C.3     1  UNL1        0.0210
      5 C         -10.9173   -1.9872   18.7147 C.3     1  UNL1        0.0017
      6 C         -12.2079   -1.2278   18.6268 C.3     1  UNL1        0.0001
      7 C         -13.5121   -1.9675   18.5853 C.3     1  UNL1        0.0004
      8 C         -13.5259   -3.4668   18.6318 C.3     1  UNL1        0.0054
      9 C         -12.2353   -4.2261   18.7197 C.3     1  UNL1        0.0349
     10 C         -11.9373   -5.6950   18.7808 C.3     1  UNL1        0.0762
     11 C         -13.4554   -5.0982   18.6867 C.ar    1  UNL1       -0.0215
     12 C         -14.1399   -5.4790   19.9659 C.ar    1  UNL1       -0.0042
     13 C         -15.3600   -6.3510   19.9328 C.ar    1  UNL1       -0.0003
     14 C         -15.8954   -6.8423   18.6205 C.ar    1  UNL1       -0.0000
     15 C         -17.1155   -7.7143   18.5875 C.ar    1  UNL1       -0.0000
     16 C         -17.6509   -8.2055   17.2753 C.ar    1  UNL1       -0.0000
     17 C         -16.9663   -7.8246   15.9961 C.ar    1  UNL1       -0.0000
     18 C         -15.7463   -6.9526   16.0291 C.ar    1  UNL1       -0.0000
     19 C         -15.2109   -6.4615   17.3413 C.ar    1  UNL1       -0.0003
     20 C         -13.9908   -5.5894   17.3744 C.ar    1  UNL1       -0.0042
@<TRIPOS>BOND
     1     1     2    1
     2     2     3    1
     3     4     3    1
     4     4     5    1
     5     5     6    1
     6     6     7    1
     7     7     8    1
     8     8     9    1
     9     9    11    1
    10    11    12   ar
    11    12    13   ar
    12    13    14   ar
    13    14    15   ar
    14    15    16   ar
    15    16    17   ar
    16    17    18   ar
    17    18    19   ar
    18    19    20   ar
    19     9    10    1
    20    10     2    1
    21     9     4    1
    22    20    11   ar
    23    19    14   ar
@<TRIPOS>MOLECULE
*****
 20 23 0 0 0
SMALL
GASTEIGER

@<TRIPOS>ATOM
      1 C           3.3142   -0.5509   24.5997 C.3     1  UNL1        0.0896
      2 N           3.5693   -1.2452   23.2948 N.3     1  UNL1       -0.2712
      3 C           4.3398   -2.5189   23.1096 C.3     1  UNL1        0.0725
      4 C           4.3454   -2.8486   21.6462 C.3     1  UNL1        0.0210
      5 C           4.9498   -3.9848   20.8757 C.3     1  UNL1        0.0017
      6 C           4.7872   -4.0511   19.3860 C.3     1  UNL1        0.0001
      7 C           4.0202   -2.9813   18.6668 C.3     1  UNL1        0.0004
      8 C           3.4157   -1.8451   19.4374 C.3     1  UNL1        0.0054
      9 C           3.5784   -1.7788   20.9271 C.3     1  UNL1        0.0349
     10 C           3.0987   -0.7878   21.9459 C.3     1  UNL1        0.0762
     11 C           2.7889   -0.6422   20.3483 C.ar    1  UNL1       -0.0215
     12 C           1.2913   -0.7147   20.3049 C.ar    1  UNL1       -0.0042
     13 C           0.5018    0.4218   19.7261 C.ar    1  UNL1       -0.0003
     14 C           1.2099    1.6309   19.1907 C.ar    1  UNL1       -0.0000
     15 C           0.4204    2.7675   18.6120 C.ar    1  UNL1       -0.0000
     16 C           1.1286    3.9765   18.0766 C.ar    1  UNL1       -0.0000
     17 C           2.6262    4.0491   18.1200 C.ar    1  UNL1       -0.0000
     18 C           3.4157    2.9126   18.6988 C.ar    1  UNL1       -0.0000
     19 C           2.7075    1.7035   19.2341 C.ar    1  UNL1       -0.0003
     20 C           3.4970    0.5669   19.8129 C.ar    1  UNL1       -0.0042
@<TRIPOS>BOND
     1     1     2    1
     2     2     3    1
     3     4     3    1
     4     4     5    1
     5     5     6    1
     6     6     7    1
     7     7     8    1
     8     8     9    1
     9     9    11    1
    10    11    12   ar
    11    12    13   ar
    12    13    14   ar
    13    14    15   ar
    14    15    16   ar
    15    16    17   ar
    16    17    18   ar
    17    18    19   ar
    18    19    20   ar
    19     9    10    1
    20    10     2    1
    21     9     4    1
    22    20    11   ar
    23    19    14   ar
@<TRIPOS>MOLECULE
*****
 20 23 0 0 0
SMALL
GASTEIGER

@<TRIPOS>ATOM
      1 C           7.6112    0.3156   20.4456 C.3     1  UNL1        0.0896
      2 N           6.7070   -0.8410   20.1380 N.3     1  UNL1       -0.2712
      3 C           7.1180   -2.2805   20.0430 C.3     1  UNL1        0.0725
      4 C           5.8980   -3.0903   19.7176 C.3     1  UNL1        0.0210
      5 C           5.6974   -4.5614   19.5042 C.3     1  UNL1        0.0017
      6 C           4.3318   -5.0936   19.1847 C.3     1  UNL1        0.0001
      7 C           3.1669   -4.1547   19.0785 C.3     1  UNL1        0.0004
      8 C           3.3675   -2.6835   19.2919 C.3     1  UNL1        0.0054
      9 C           4.7331   -2.1514   19.6114 C.3     1  UNL1        0.0349
     10 C           5.2330   -0.7612   19.8712 C.3     1  UNL1        0.0762
     11 C           3.6690   -1.0966   19.5380 C.ar    1  UNL1       -0.0215
     12 C           3.3400   -0.4535   18.2234 C.ar    1  UNL1       -0.0042
     13 C           2.2760    0.6013   18.1499 C.ar    1  UNL1       -0.0003
     14 C           1.5410    1.0129   19.3911 C.ar    1  UNL1       -0.0000
     15 C           0.4770    2.0676   19.3176 C.ar    1  UNL1       -0.0000
     16 C          -0.2579    2.4792   20.5587 C.ar    1  UNL1       -0.0000
     17 C           0.0711    1.8361   21.8733 C.ar    1  UNL1       -0.0000
     18 C           1.1351    0.7814   21.9468 C.ar    1  UNL1       -0.0000
     19 C           1.8700    0.3698   20.7057 C.ar    1  UNL1       -0.0003
     20 C           2.9341   -0.6850   20.7791 C.ar    1  UNL1       -0.0042
@<TRIPOS>BOND
     1     1     2    1
     2     2     3    1
     3     4     3    1
     4     4     5    1
     5     5     6    1
     6     6     7    1
     7     7     8    1
     8     8     9    1
     9     9    11    1
    10    11    12   ar
    11    12    13   ar
    12    13    14   ar
    13    14    15   ar
    14    15    16   ar
    15    16    17   ar
    16    17    18   ar
    17    18    19   ar
    18    19    20   ar
    19     9    10    1
    20    10     2    1
    21     9     4    1
    22    20    11   ar
    23    19    14   ar
