@<TRIPOS>MOLECULE
*****
 33 36 0 0 0
SMALL
GASTEIGER

@<TRIPOS>ATOM
      1 C           3.8850   -1.8756   18.7249 C.ar    1  UNL1        0.0644
      2 C           4.1357   -0.8790   17.6322 C.ar    1  UNL1        0.0155
      3 C           3.3670    0.4087   17.6007 C.ar    1  UNL1       -0.0032
      4 C           2.3475    0.6997   18.6619 C.ar    1  UNL1       -0.0246
      5 C           2.0969   -0.2968   19.7544 C.ar    1  UNL1       -0.0234
      6 C           2.8655   -1.5845   19.7860 C.ar    1  UNL1        0.0113
      7 C           1.1333   -0.2056   20.9005 C.3     1  UNL1        0.0434
      8 C           0.1826    0.9048   21.2369 C.3     1  UNL1        0.0771
      9 N          -0.0394    2.1981   20.5104 N.3     1  UNL1       -0.2671
     10 C           0.6344    2.7006   19.2680 C.3     1  UNL1        0.0771
     11 C           1.6967    2.0338   18.4453 C.3     1  UNL1        0.0434
     12 N           4.6538   -3.1632   18.7564 N.pl3   1  UNL1       -0.2150
     13 H           4.6549   -3.7552   17.9698 H       1  UNL1        0.1737
     14 S           5.4208   -3.5488   19.9864 S.O2    1  UNL1        0.0736
     15 O           6.4216   -2.4686   19.7010 O.2     1  UNL1       -0.1499
     16 O           4.4199   -4.6290   20.2719 O.2     1  UNL1       -0.1499
     17 C           7.7217   -4.7057   23.6766 C.ar    1  UNL1        0.1385
     18 C           8.3449   -4.8694   22.3221 C.ar    1  UNL1        0.0383
     19 C           7.5780   -4.4838   21.0920 C.ar    1  UNL1        0.0233
     20 C           6.1877   -3.9344   21.2165 C.ar    1  UNL1        0.1254
     21 C           5.5645   -3.7707   22.5711 C.ar    1  UNL1        0.0233
     22 C           6.3315   -4.1563   23.8011 C.ar    1  UNL1        0.0383
     23 O           8.4886   -5.0913   24.9067 O.3     1  UNL1       -0.4792
     24 C           8.4391   -7.6545   25.3282 C.3     1  UNL1        0.0472
     25 C           8.0451   -6.2641   25.7301 C.3     1  UNL1        0.1661
     26 C           7.2075   -6.0465   26.9553 C.3     1  UNL1        0.0472
     27 C          -1.0718    3.1096   21.1048 C.3     1  UNL1        0.1180
     28 C          -2.3903    3.3003   20.4153 C.ar    1  UNL1        0.0693
     29 C          -2.6171    4.0563   19.1398 C.ar    1  UNL1        0.0379
     30 C          -4.0804    3.9916   18.8166 C.ar    1  UNL1        0.1211
     31 N          -4.7580    3.1956   19.8922 N.ar    1  UNL1       -0.1713
     32 N          -3.7135    2.7683   20.8804 N.ar    1  UNL1       -0.2784
     33 H          -3.8691    2.2327   21.6917 H       1  UNL1        0.1886
@<TRIPOS>BOND
     1    24    25    1
     2    25    26    1
     3    25    23    1
     4    23    17    1
     5    17    18   ar
     6    18    19   ar
     7    19    20   ar
     8    20    14    1
     9    14    15    2
    10    14    16    2
    11    14    12    1
    12    12     1    1
    13     1     2   ar
    14     2     3   ar
    15     3     4   ar
    16     4     5   ar
    17     5     6   ar
    18     5     7    1
    19     7     8    1
    20     8     9    1
    21     9    27    1
    22    27    28    1
    23    28    29   ar
    24    29    30   ar
    25    30    31   ar
    26    31    32   ar
    27     9    10    1
    28    10    11    1
    29    20    21   ar
    30    21    22   ar
    31    22    17   ar
    32     6     1   ar
    33    32    28   ar
    34    11     4    1
    35    12    13    1
    36    32    33    1
@<TRIPOS>MOLECULE
*****
 33 36 0 0 0
SMALL
GASTEIGER

@<TRIPOS>ATOM
      1 C           7.4457   -4.5953   23.3687 C.ar    1  UNL1        0.0644
      2 C           8.0808   -5.9536   23.4105 C.ar    1  UNL1        0.0155
      3 C           8.2526   -6.6612   24.7220 C.ar    1  UNL1       -0.0032
      4 C           7.7893   -6.0104   25.9916 C.ar    1  UNL1       -0.0246
      5 C           7.1542   -4.6522   25.9497 C.ar    1  UNL1       -0.0234
      6 C           6.9824   -3.9446   24.6383 C.ar    1  UNL1        0.0113
      7 C           6.6266   -3.8309   27.0887 C.3     1  UNL1        0.0434
      8 C           6.6039   -4.1652   28.5509 C.3     1  UNL1        0.0771
      9 N           7.1031   -5.4031   29.2350 N.3     1  UNL1       -0.2671
     10 C           7.7483   -6.6127   28.6262 C.3     1  UNL1        0.0771
     11 C           8.0537   -6.8829   27.1827 C.3     1  UNL1        0.0434
     12 N           7.2739   -3.8878   22.0572 N.pl3   1  UNL1       -0.2150
     13 H           7.9974   -3.9057   21.3898 H       1  UNL1        0.1737
     14 S           5.9997   -3.1531   21.7628 S.O2    1  UNL1        0.0736
     15 O           5.2755   -4.4604   21.6346 O.2     1  UNL1       -0.1499
     16 O           6.7239   -1.8458   21.8909 O.2     1  UNL1       -0.1499
     17 C           2.1772   -0.9490   20.8793 C.ar    1  UNL1        0.1385
     18 C           2.8186   -0.8266   22.2296 C.ar    1  UNL1        0.0383
     19 C           4.0928   -1.5613   22.5242 C.ar    1  UNL1        0.0233
     20 C           4.7256   -2.4184   21.4683 C.ar    1  UNL1        0.1254
     21 C           4.0841   -2.5408   20.1178 C.ar    1  UNL1        0.0233
     22 C           2.8100   -1.8061   19.8233 C.ar    1  UNL1        0.0383
     23 O           0.9031   -0.2143   20.5847 O.3     1  UNL1       -0.4792
     24 C           1.0267    1.2083   18.4142 C.3     1  UNL1        0.0472
     25 C           0.9482    1.1246   19.9098 C.3     1  UNL1        0.1661
     26 C           0.9150    2.3797   20.7305 C.3     1  UNL1        0.0472
     27 C           6.9348   -5.4360   30.7252 C.3     1  UNL1        0.1180
     28 C           6.9532   -4.1580   31.5105 C.ar    1  UNL1        0.0693
     29 C           8.1638   -3.3245   31.8099 C.ar    1  UNL1        0.0379
     30 C           7.7229   -2.1406   32.6186 C.ar    1  UNL1        0.1211
     31 N           6.2398   -2.2424   32.8190 N.ar    1  UNL1       -0.1713
     32 N           5.7641   -3.4893   32.1341 N.ar    1  UNL1       -0.2784
     33 H           4.8346   -3.8120   32.0999 H       1  UNL1        0.1886
@<TRIPOS>BOND
     1    24    25    1
     2    25    26    1
     3    25    23    1
     4    23    17    1
     5    17    18   ar
     6    18    19   ar
     7    19    20   ar
     8    20    14    1
     9    14    15    2
    10    14    16    2
    11    14    12    1
    12    12     1    1
    13     1     2   ar
    14     2     3   ar
    15     3     4   ar
    16     4     5   ar
    17     5     6   ar
    18     5     7    1
    19     7     8    1
    20     8     9    1
    21     9    27    1
    22    27    28    1
    23    28    29   ar
    24    29    30   ar
    25    30    31   ar
    26    31    32   ar
    27     9    10    1
    28    10    11    1
    29    20    21   ar
    30    21    22   ar
    31    22    17   ar
    32     6     1   ar
    33    32    28   ar
    34    11     4    1
    35    12    13    1
    36    32    33    1
@<TRIPOS>MOLECULE
*****
 33 36 0 0 0
SMALL
GASTEIGER

@<TRIPOS>ATOM
      1 C           7.9277   -4.6137   21.8891 C.ar    1  UNL1        0.0644
      2 C           8.6384   -5.8999   21.5882 C.ar    1  UNL1        0.0155
      3 C           8.9601   -6.8565   22.6979 C.ar    1  UNL1       -0.0032
      4 C           8.5710   -6.5268   24.1086 C.ar    1  UNL1       -0.0246
      5 C           7.8603   -5.2407   24.4095 C.ar    1  UNL1       -0.0234
      6 C           7.5386   -4.2841   23.2998 C.ar    1  UNL1        0.0113
      7 C           7.3867   -4.7217   25.7348 C.3     1  UNL1        0.0434
      8 C           7.5070   -5.3608   27.0866 C.3     1  UNL1        0.0771
      9 N           8.1304   -6.6766   27.4468 N.3     1  UNL1       -0.2671
     10 C           8.7877   -7.6784   26.5443 C.3     1  UNL1        0.0771
     11 C           8.9838   -7.6118   25.0587 C.3     1  UNL1        0.0434
     12 N           7.6060   -3.6572   20.7793 N.pl3   1  UNL1       -0.2150
     13 H           8.2914   -3.4322   20.1093 H       1  UNL1        0.1737
     14 S           6.2402   -3.0436   20.6905 S.O2    1  UNL1        0.0736
     15 O           6.8151   -1.7097   21.0650 O.2     1  UNL1       -0.1499
     16 O           5.6653   -4.3775   20.3159 O.2     1  UNL1       -0.1499
     17 C           2.1426   -1.2027   20.4238 C.ar    1  UNL1        0.1385
     18 C           2.9317   -1.0956   21.6950 C.ar    1  UNL1        0.0383
     19 C           4.2975   -1.7092   21.7839 C.ar    1  UNL1        0.0233
     20 C           4.8743   -2.4300   20.6016 C.ar    1  UNL1        0.1254
     21 C           4.0852   -2.5371   19.3304 C.ar    1  UNL1        0.0233
     22 C           2.7193   -1.9234   19.2415 C.ar    1  UNL1        0.0383
     23 O           0.7767   -0.5891   20.3349 O.3     1  UNL1       -0.4792
     24 C           1.0620    1.2239   18.4959 C.3     1  UNL1        0.0472
     25 C           0.6206    0.8299   19.8743 C.3     1  UNL1        0.1661
     26 C           0.0233    1.8550   20.7921 C.3     1  UNL1        0.0472
     27 C           8.0915   -7.0385   28.9019 C.3     1  UNL1        0.1180
     28 C           7.9271   -5.9659   29.9376 C.ar    1  UNL1        0.0693
     29 C           8.9848   -4.9993   30.3815 C.ar    1  UNL1        0.0379
     30 C           8.3875   -4.1076   31.4293 C.ar    1  UNL1        0.1211
     31 N           6.9607   -4.5230   31.6330 N.ar    1  UNL1       -0.1713
     32 N           6.6761   -5.6715   30.7111 N.ar    1  UNL1       -0.2784
     33 H           5.8188   -6.1484   30.6282 H       1  UNL1        0.1886
@<TRIPOS>BOND
     1    24    25    1
     2    25    26    1
     3    25    23    1
     4    23    17    1
     5    17    18   ar
     6    18    19   ar
     7    19    20   ar
     8    20    14    1
     9    14    15    2
    10    14    16    2
    11    14    12    1
    12    12     1    1
    13     1     2   ar
    14     2     3   ar
    15     3     4   ar
    16     4     5   ar
    17     5     6   ar
    18     5     7    1
    19     7     8    1
    20     8     9    1
    21     9    27    1
    22    27    28    1
    23    28    29   ar
    24    29    30   ar
    25    30    31   ar
    26    31    32   ar
    27     9    10    1
    28    10    11    1
    29    20    21   ar
    30    21    22   ar
    31    22    17   ar
    32     6     1   ar
    33    32    28   ar
    34    11     4    1
    35    12    13    1
    36    32    33    1
@<TRIPOS>MOLECULE
*****
 33 36 0 0 0
SMALL
GASTEIGER

@<TRIPOS>ATOM
      1 C          -0.4500    2.6929   22.0791 C.ar    1  UNL1        0.0644
      2 C          -1.6541    3.4627   22.5347 C.ar    1  UNL1        0.0155
      3 C          -1.9980    3.5226   23.9936 C.ar    1  UNL1       -0.0032
      4 C          -1.1379    2.8127   24.9967 C.ar    1  UNL1       -0.0246
      5 C           0.0661    2.0430   24.5410 C.ar    1  UNL1       -0.0234
      6 C           0.4101    1.9830   23.0822 C.ar    1  UNL1        0.0113
      7 C           1.0499    1.2695   25.3682 C.3     1  UNL1        0.0434
      8 C           1.0724    1.0750   26.8554 C.3     1  UNL1        0.0771
      9 N           0.1169    1.6057   27.8826 N.3     1  UNL1       -0.2671
     10 C          -1.0972    2.4621   27.6765 C.3     1  UNL1        0.0771
     11 C          -1.6557    2.9993   26.3921 C.3     1  UNL1        0.0434
     12 N          -0.1061    2.6331   20.6203 N.pl3   1  UNL1       -0.2150
     13 H          -0.5055    3.2787   19.9934 H       1  UNL1        0.1737
     14 S           0.8465    1.5896   20.1165 S.O2    1  UNL1        0.0736
     15 O          -0.2072    0.5382   20.3022 O.2     1  UNL1       -0.1499
     16 O           1.9001    2.6410   19.9309 O.2     1  UNL1       -0.1499
     17 C           3.7041   -1.5410   18.6053 C.ar    1  UNL1        0.1385
     18 C           2.9735   -1.7537   19.8979 C.ar    1  UNL1        0.0383
     19 C           2.0209   -0.7103   20.4017 C.ar    1  UNL1        0.0233
     20 C           1.7990    0.5460   19.6128 C.ar    1  UNL1        0.1254
     21 C           2.5296    0.7589   18.3201 C.ar    1  UNL1        0.0233
     22 C           3.4822   -0.2847   17.8164 C.ar    1  UNL1        0.0383
     23 O           4.6567   -2.5844   18.1015 O.3     1  UNL1       -0.4792
     24 C           6.2116   -3.5107   19.9655 C.3     1  UNL1        0.0472
     25 C           5.0812   -3.7085   18.9995 C.3     1  UNL1        0.1661
     26 C           4.3754   -5.0303   18.9316 C.3     1  UNL1        0.0472
     27 C           0.4149    1.2304   29.3040 C.3     1  UNL1        0.1180
     28 C           0.6767    2.2997   30.3230 C.ar    1  UNL1        0.0693
     29 C           1.3939    3.5942   30.0783 C.ar    1  UNL1        0.0379
     30 C           1.4276    4.3566   31.3696 C.ar    1  UNL1        0.1211
     31 N           0.7315    3.5333   32.4124 N.ar    1  UNL1       -0.1713
     32 N           0.2673    2.2619   31.7655 N.ar    1  UNL1       -0.2784
     33 H          -0.2204    1.5311   32.2098 H       1  UNL1        0.1886
@<TRIPOS>BOND
     1    24    25    1
     2    25    26    1
     3    25    23    1
     4    23    17    1
     5    17    18   ar
     6    18    19   ar
     7    19    20   ar
     8    20    14    1
     9    14    15    2
    10    14    16    2
    11    14    12    1
    12    12     1    1
    13     1     2   ar
    14     2     3   ar
    15     3     4   ar
    16     4     5   ar
    17     5     6   ar
    18     5     7    1
    19     7     8    1
    20     8     9    1
    21     9    27    1
    22    27    28    1
    23    28    29   ar
    24    29    30   ar
    25    30    31   ar
    26    31    32   ar
    27     9    10    1
    28    10    11    1
    29    20    21   ar
    30    21    22   ar
    31    22    17   ar
    32     6     1   ar
    33    32    28   ar
    34    11     4    1
    35    12    13    1
    36    32    33    1
@<TRIPOS>MOLECULE
*****
 33 36 0 0 0
SMALL
GASTEIGER

@<TRIPOS>ATOM
      1 C         -12.6422   -3.4606   18.3713 C.ar    1  UNL1        0.0644
      2 C         -11.7830   -2.4171   17.7210 C.ar    1  UNL1        0.0155
      3 C         -12.1871   -0.9734   17.7736 C.ar    1  UNL1       -0.0032
      4 C         -13.4504   -0.5734   18.4766 C.ar    1  UNL1       -0.0246
      5 C         -14.3095   -1.6169   19.1268 C.ar    1  UNL1       -0.0234
      6 C         -13.9055   -3.0604   19.0742 C.ar    1  UNL1        0.0113
      7 C         -15.5979   -1.4353   19.8733 C.3     1  UNL1        0.0434
      8 C         -16.3452   -0.1653   20.1539 C.3     1  UNL1        0.0771
      9 N         -15.9888    1.2366   19.7572 N.3     1  UNL1       -0.2671
     10 C         -14.7970    1.7150   18.9820 C.3     1  UNL1        0.0771
     11 C         -13.6673    0.9095   18.4121 C.3     1  UNL1        0.0434
     12 N         -12.2381   -4.9041   18.3187 N.pl3   1  UNL1       -0.2150
     13 H         -11.2914   -5.1462   18.1988 H       1  UNL1        0.1737
     14 S         -13.2764   -5.9788   18.4488 S.O2    1  UNL1        0.0736
     15 O         -13.6128   -5.8299   16.9946 O.2     1  UNL1       -0.1499
     16 O         -12.9400   -6.1277   19.9030 O.2     1  UNL1       -0.1499
     17 C         -16.3914   -9.2029   18.8392 C.ar    1  UNL1        0.1385
     18 C         -16.6096   -7.8669   19.4854 C.ar    1  UNL1        0.0383
     19 C         -15.5713   -6.7922   19.3553 C.ar    1  UNL1        0.0233
     20 C         -14.3147   -7.0535   18.5790 C.ar    1  UNL1        0.1254
     21 C         -14.0965   -8.3895   17.9327 C.ar    1  UNL1        0.0233
     22 C         -15.1348   -9.4642   18.0628 C.ar    1  UNL1        0.0383
     23 O         -17.4297  -10.2776   18.9693 O.3     1  UNL1       -0.4792
     24 C         -19.8657   -9.4952   19.4204 C.3     1  UNL1        0.0472
     25 C         -18.8270  -10.0334   18.4816 C.3     1  UNL1        0.1661
     26 C         -19.1857  -10.3272   17.0551 C.3     1  UNL1        0.0472
     27 C         -16.9514    2.3011   20.1934 C.3     1  UNL1        0.1180
     28 C         -17.6347    2.1947   21.5246 C.ar    1  UNL1        0.0693
     29 C         -17.1450    2.7795   22.8162 C.ar    1  UNL1        0.0379
     30 C         -18.1353    2.4311   23.8876 C.ar    1  UNL1        0.1211
     31 N         -19.2369    1.6310   23.2583 N.ar    1  UNL1       -0.1713
     32 N         -18.9276    1.4849   21.7977 N.ar    1  UNL1       -0.2784
     33 H         -19.4767    1.0070   21.1349 H       1  UNL1        0.1886
@<TRIPOS>BOND
     1    24    25    1
     2    25    26    1
     3    25    23    1
     4    23    17    1
     5    17    18   ar
     6    18    19   ar
     7    19    20   ar
     8    20    14    1
     9    14    15    2
    10    14    16    2
    11    14    12    1
    12    12     1    1
    13     1     2   ar
    14     2     3   ar
    15     3     4   ar
    16     4     5   ar
    17     5     6   ar
    18     5     7    1
    19     7     8    1
    20     8     9    1
    21     9    27    1
    22    27    28    1
    23    28    29   ar
    24    29    30   ar
    25    30    31   ar
    26    31    32   ar
    27     9    10    1
    28    10    11    1
    29    20    21   ar
    30    21    22   ar
    31    22    17   ar
    32     6     1   ar
    33    32    28   ar
    34    11     4    1
    35    12    13    1
    36    32    33    1
@<TRIPOS>MOLECULE
*****
 33 36 0 0 0
SMALL
GASTEIGER

@<TRIPOS>ATOM
      1 C         -17.6897   -0.3667   20.0440 C.ar    1  UNL1        0.0644
      2 C         -18.6744   -1.4954   20.1235 C.ar    1  UNL1        0.0155
      3 C         -18.1975   -2.9147   20.0312 C.ar    1  UNL1       -0.0032
      4 C         -16.7359   -3.2051   19.8592 C.ar    1  UNL1       -0.0246
      5 C         -15.7513   -2.0764   19.7797 C.ar    1  UNL1       -0.0234
      6 C         -16.2281   -0.6572   19.8720 C.ar    1  UNL1        0.0113
      7 C         -14.2624   -2.1443   19.6108 C.3     1  UNL1        0.0434
      8 C         -13.3904   -3.3579   19.4797 C.3     1  UNL1        0.0771
      9 N         -13.7921   -4.8030   19.4852 N.3     1  UNL1       -0.2671
     10 C         -15.1648   -5.3917   19.6230 C.3     1  UNL1        0.0771
     11 C         -16.4750   -4.6806   19.7895 C.3     1  UNL1        0.0434
     12 N         -18.1665    1.0524   20.1364 N.pl3   1  UNL1       -0.2150
     13 H         -18.9742    1.3331   19.6483 H       1  UNL1        0.1737
     14 S         -17.4128    2.0440   20.9724 S.O2    1  UNL1        0.0736
     15 O         -16.9151    2.7157   19.7269 O.2     1  UNL1       -0.1499
     16 O         -17.9106    1.3722   22.2178 O.2     1  UNL1       -0.1499
     17 C         -15.1517    5.0185   23.4803 C.ar    1  UNL1        0.1385
     18 C         -16.1918    4.1417   24.1122 C.ar    1  UNL1        0.0383
     19 C         -16.9456    3.1502   23.2763 C.ar    1  UNL1        0.0233
     20 C         -16.6591    3.0355   21.8083 C.ar    1  UNL1        0.1254
     21 C         -15.6189    3.9123   21.1764 C.ar    1  UNL1        0.0233
     22 C         -14.8652    4.9038   22.0124 C.ar    1  UNL1        0.0383
     23 O         -14.3980    6.0100   24.3162 O.3     1  UNL1       -0.4792
     24 C         -12.2974    4.5751   24.8442 C.3     1  UNL1        0.0472
     25 C         -12.9099    5.8900   24.4624 C.3     1  UNL1        0.1661
     26 C         -12.0343    7.0849   24.2267 C.3     1  UNL1        0.0472
     27 C         -12.6729   -5.7901   19.3325 C.3     1  UNL1        0.1180
     28 C         -11.5411   -5.5012   18.3914 C.ar    1  UNL1        0.0693
     29 C         -10.1415   -5.1300   18.7832 C.ar    1  UNL1        0.0379
     30 C          -9.3457   -4.9323   17.5272 C.ar    1  UNL1        0.1211
     31 N         -10.2533   -5.1812   16.3592 N.ar    1  UNL1       -0.1713
     32 N         -11.6103   -5.5328   16.8933 N.ar    1  UNL1       -0.2784
     33 H         -12.4064   -5.7468   16.3551 H       1  UNL1        0.1886
@<TRIPOS>BOND
     1    24    25    1
     2    25    26    1
     3    25    23    1
     4    23    17    1
     5    17    18   ar
     6    18    19   ar
     7    19    20   ar
     8    20    14    1
     9    14    15    2
    10    14    16    2
    11    14    12    1
    12    12     1    1
    13     1     2   ar
    14     2     3   ar
    15     3     4   ar
    16     4     5   ar
    17     5     6   ar
    18     5     7    1
    19     7     8    1
    20     8     9    1
    21     9    27    1
    22    27    28    1
    23    28    29   ar
    24    29    30   ar
    25    30    31   ar
    26    31    32   ar
    27     9    10    1
    28    10    11    1
    29    20    21   ar
    30    21    22   ar
    31    22    17   ar
    32     6     1   ar
    33    32    28   ar
    34    11     4    1
    35    12    13    1
    36    32    33    1
@<TRIPOS>MOLECULE
*****
 33 36 0 0 0
SMALL
GASTEIGER

@<TRIPOS>ATOM
      1 C           7.8892   -4.2520   24.8531 C.ar    1  UNL1        0.0644
      2 C           7.2417   -5.5669   25.1722 C.ar    1  UNL1        0.0155
      3 C           6.8788   -5.9000   26.5890 C.ar    1  UNL1       -0.0032
      4 C           7.1635   -4.9181   27.6868 C.ar    1  UNL1       -0.0246
      5 C           7.8110   -3.6033   27.3677 C.ar    1  UNL1       -0.0234
      6 C           8.1739   -3.2702   25.9509 C.ar    1  UNL1        0.0113
      7 C           8.1795   -2.4906   28.3038 C.3     1  UNL1        0.0434
      8 C           7.9914   -2.4181   29.7902 C.3     1  UNL1        0.0771
      9 N           7.3885   -3.4402   30.7075 N.3     1  UNL1       -0.2671
     10 C           6.8246   -4.7874   30.3651 C.3     1  UNL1        0.0771
     11 C           6.7245   -5.4451   29.0208 C.3     1  UNL1        0.0434
     12 N           8.2520   -3.9190   23.4363 N.pl3   1  UNL1       -0.2150
     13 H           9.1675   -4.0796   23.1118 H       1  UNL1        0.1737
     14 S           7.2199   -3.3412   22.5138 S.O2    1  UNL1        0.0736
     15 O           7.5564   -1.9629   23.0006 O.2     1  UNL1       -0.1499
     16 O           6.8834   -4.7196   22.0270 O.2     1  UNL1       -0.1499
     17 C           4.1235   -1.6079   19.7464 C.ar    1  UNL1        0.1385
     18 C           5.2737   -0.7632   20.2081 C.ar    1  UNL1        0.0383
     19 C           6.3059   -1.3408   21.1306 C.ar    1  UNL1        0.0233
     20 C           6.1878   -2.7635   21.5913 C.ar    1  UNL1        0.1254
     21 C           5.0375   -3.6083   21.1296 C.ar    1  UNL1        0.0233
     22 C           4.0053   -3.0306   20.2072 C.ar    1  UNL1        0.0383
     23 O           3.0913   -1.0303   18.8240 O.3     1  UNL1       -0.4792
     24 C           1.6064   -0.3071   20.8295 C.3     1  UNL1        0.0472
     25 C           1.9698   -0.2025   19.3779 C.3     1  UNL1        0.1661
     26 C           1.2115    0.7300   18.4804 C.3     1  UNL1        0.0472
     27 C           7.3434   -3.0657   32.1593 C.3     1  UNL1        0.1180
     28 C           6.0676   -2.5585   32.7638 C.ar    1  UNL1        0.0693
     29 C           5.8096   -1.1567   33.2311 C.ar    1  UNL1        0.0379
     30 C           4.4085   -1.0960   33.7632 C.ar    1  UNL1        0.1211
     31 N           3.8005   -2.4602   33.6248 N.ar    1  UNL1       -0.1713
     32 N           4.8259   -3.3642   33.0071 N.ar    1  UNL1       -0.2784
     33 H           4.7052   -4.3187   32.7981 H       1  UNL1        0.1886
@<TRIPOS>BOND
     1    24    25    1
     2    25    26    1
     3    25    23    1
     4    23    17    1
     5    17    18   ar
     6    18    19   ar
     7    19    20   ar
     8    20    14    1
     9    14    15    2
    10    14    16    2
    11    14    12    1
    12    12     1    1
    13     1     2   ar
    14     2     3   ar
    15     3     4   ar
    16     4     5   ar
    17     5     6   ar
    18     5     7    1
    19     7     8    1
    20     8     9    1
    21     9    27    1
    22    27    28    1
    23    28    29   ar
    24    29    30   ar
    25    30    31   ar
    26    31    32   ar
    27     9    10    1
    28    10    11    1
    29    20    21   ar
    30    21    22   ar
    31    22    17   ar
    32     6     1   ar
    33    32    28   ar
    34    11     4    1
    35    12    13    1
    36    32    33    1
@<TRIPOS>MOLECULE
*****
 33 36 0 0 0
SMALL
GASTEIGER

@<TRIPOS>ATOM
      1 C          -0.3124    2.4681   20.0990 C.ar    1  UNL1        0.0644
      2 C          -0.1721    1.8832   21.4731 C.ar    1  UNL1        0.0155
      3 C           0.8192    0.7855   21.7234 C.ar    1  UNL1       -0.0032
      4 C           1.6702    0.2729   20.5995 C.ar    1  UNL1       -0.0246
      5 C           1.5299    0.8578   19.2255 C.ar    1  UNL1       -0.0234
      6 C           0.5387    1.9554   18.9752 C.ar    1  UNL1        0.0113
      7 C           2.2741    0.4957   17.9744 C.3     1  UNL1        0.0434
      8 C           3.3423   -0.5409   17.7885 C.3     1  UNL1        0.0771
      9 N           3.9301   -1.4712   18.8077 N.3     1  UNL1       -0.2671
     10 C           3.5951   -1.5948   20.2646 C.3     1  UNL1        0.0771
     11 C           2.5893   -0.8186   21.0620 C.3     1  UNL1        0.0434
     12 N          -1.3037    3.5656   19.8487 N.pl3   1  UNL1       -0.2150
     13 H          -1.2988    4.0470   18.9900 H       1  UNL1        0.1737
     14 S          -2.3025    3.9297   20.9070 S.O2    1  UNL1        0.0736
     15 O          -1.3954    5.0238   21.3867 O.2     1  UNL1       -0.1499
     16 O          -3.2096    2.8356   20.4273 O.2     1  UNL1       -0.1499
     17 C          -5.2989    5.0220   24.0817 C.ar    1  UNL1        0.1385
     18 C          -4.4150    6.0791   23.4891 C.ar    1  UNL1        0.0383
     19 C          -3.4162    5.7151   22.4308 C.ar    1  UNL1        0.0233
     20 C          -3.3013    4.2938   21.9652 C.ar    1  UNL1        0.1254
     21 C          -4.1852    3.2366   22.5578 C.ar    1  UNL1        0.0233
     22 C          -5.1840    3.6007   23.6161 C.ar    1  UNL1        0.0383
     23 O          -6.2977    5.3859   25.1399 O.3     1  UNL1       -0.4792
     24 C          -6.7122    6.2132   27.5677 C.3     1  UNL1        0.0472
     25 C          -5.8741    5.4608   26.5770 C.3     1  UNL1        0.1661
     26 C          -4.6125    4.7833   27.0233 C.3     1  UNL1        0.0472
     27 C           4.9938   -2.4008   18.3034 C.3     1  UNL1        0.1180
     28 C           5.9725   -3.0115   19.2623 C.ar    1  UNL1        0.0693
     29 C           7.3123   -2.4479   19.6330 C.ar    1  UNL1        0.0379
     30 C           7.9510   -3.3810   20.6185 C.ar    1  UNL1        0.1211
     31 N           7.0060   -4.5212   20.8570 N.ar    1  UNL1       -0.1713
     32 N           5.7832   -4.2929   20.0187 N.ar    1  UNL1       -0.2784
     33 H           4.9948   -4.8807   19.9731 H       1  UNL1        0.1886
@<TRIPOS>BOND
     1    24    25    1
     2    25    26    1
     3    25    23    1
     4    23    17    1
     5    17    18   ar
     6    18    19   ar
     7    19    20   ar
     8    20    14    1
     9    14    15    2
    10    14    16    2
    11    14    12    1
    12    12     1    1
    13     1     2   ar
    14     2     3   ar
    15     3     4   ar
    16     4     5   ar
    17     5     6   ar
    18     5     7    1
    19     7     8    1
    20     8     9    1
    21     9    27    1
    22    27    28    1
    23    28    29   ar
    24    29    30   ar
    25    30    31   ar
    26    31    32   ar
    27     9    10    1
    28    10    11    1
    29    20    21   ar
    30    21    22   ar
    31    22    17   ar
    32     6     1   ar
    33    32    28   ar
    34    11     4    1
    35    12    13    1
    36    32    33    1
@<TRIPOS>MOLECULE
*****
 33 36 0 0 0
SMALL
GASTEIGER

@<TRIPOS>ATOM
      1 C          -0.6477    1.7095   26.8393 C.ar    1  UNL1        0.0644
      2 C          -1.4725    2.7401   26.1268 C.ar    1  UNL1        0.0155
      3 C          -1.1976    3.0558   24.6863 C.ar    1  UNL1       -0.0032
      4 C          -0.0979    2.3409   23.9585 C.ar    1  UNL1       -0.0246
      5 C           0.7267    1.3104   24.6710 C.ar    1  UNL1       -0.0234
      6 C           0.4519    0.9946   26.1114 C.ar    1  UNL1        0.0113
      7 C           1.8614    0.4876   24.1366 C.3     1  UNL1        0.0434
      8 C           2.4516    0.4922   22.7575 C.3     1  UNL1        0.0771
      9 N           2.0528    1.3207   21.5724 N.3     1  UNL1       -0.2671
     10 C           0.9655    2.3493   21.4736 C.3     1  UNL1        0.0771
     11 C           0.0083    2.8033   22.5355 C.3     1  UNL1        0.0434
     12 N          -0.9226    1.3939   28.2797 N.pl3   1  UNL1       -0.2150
     13 H          -1.8497    1.3697   28.6101 H       1  UNL1        0.1737
     14 S           0.2150    1.1150   29.2167 S.O2    1  UNL1        0.0736
     15 O           0.6413    2.5504   29.1263 O.2     1  UNL1       -0.1499
     16 O          -0.2112   -0.3203   29.3071 O.2     1  UNL1       -0.1499
     17 C           3.6280    0.2785   32.0277 C.ar    1  UNL1        0.1385
     18 C           2.6499    1.3720   32.3400 C.ar    1  UNL1        0.0383
     19 C           1.5123    1.6509   31.4031 C.ar    1  UNL1        0.0233
     20 C           1.3527    0.8362   30.1537 C.ar    1  UNL1        0.1254
     21 C           2.3308   -0.2574   29.8414 C.ar    1  UNL1        0.0233
     22 C           3.4685   -0.5362   30.7784 C.ar    1  UNL1        0.0383
     23 O           4.7657   -0.0005   32.9647 O.3     1  UNL1       -0.4792
     24 C           4.2689   -2.4273   33.7481 C.3     1  UNL1        0.0472
     25 C           4.5986   -0.9999   34.0706 C.3     1  UNL1        0.1661
     26 C           4.7611   -0.5721   35.4991 C.3     1  UNL1        0.0472
     27 C           2.8464    1.0903   20.3206 C.3     1  UNL1        0.1180
     28 C           3.3828   -0.2765   20.0135 C.ar    1  UNL1        0.0693
     29 C           4.8304   -0.6457   19.8780 C.ar    1  UNL1        0.0379
     30 C           4.9079   -2.1114   19.5687 C.ar    1  UNL1        0.1211
     31 N           3.5084   -2.6481   19.5130 N.ar    1  UNL1       -0.1713
     32 N           2.5657   -1.5141   19.7879 N.ar    1  UNL1       -0.2784
     33 H           1.5833   -1.5719   19.8155 H       1  UNL1        0.1886
@<TRIPOS>BOND
     1    24    25    1
     2    25    26    1
     3    25    23    1
     4    23    17    1
     5    17    18   ar
     6    18    19   ar
     7    19    20   ar
     8    20    14    1
     9    14    15    2
    10    14    16    2
    11    14    12    1
    12    12     1    1
    13     1     2   ar
    14     2     3   ar
    15     3     4   ar
    16     4     5   ar
    17     5     6   ar
    18     5     7    1
    19     7     8    1
    20     8     9    1
    21     9    27    1
    22    27    28    1
    23    28    29   ar
    24    29    30   ar
    25    30    31   ar
    26    31    32   ar
    27     9    10    1
    28    10    11    1
    29    20    21   ar
    30    21    22   ar
    31    22    17   ar
    32     6     1   ar
    33    32    28   ar
    34    11     4    1
    35    12    13    1
    36    32    33    1
