@<TRIPOS>MOLECULE
*****
 33 34 0 0 0
SMALL
GASTEIGER

@<TRIPOS>ATOM
      1 C         -11.1573  -18.3701   24.5578 C.3     1  UNL1        0.0197
      2 C         -10.9466  -19.8095   24.1923 C.3     1  UNL1        0.0187
      3 C          -9.6873  -20.2293   23.4936 C.3     1  UNL1        0.0722
      4 N          -9.5364  -20.0019   22.0187 N.3     1  UNL1       -0.2712
      5 C         -10.7411  -20.0459   21.1259 C.3     1  UNL1        0.0896
      6 C          -8.1810  -19.7304   21.4365 C.3     1  UNL1        0.0768
      7 C          -6.9470  -20.0713   22.2181 C.3     1  UNL1        0.0438
      8 C          -2.8810  -19.2170   20.4896 C.ar    1  UNL1        0.1724
      9 C          -3.8017  -20.1799   19.8003 C.ar    1  UNL1        0.0397
     10 C          -5.1571  -20.4647   20.3765 C.ar    1  UNL1       -0.0009
     11 C          -5.5916  -19.7866   21.6419 C.ar    1  UNL1       -0.0176
     12 C          -4.6709  -18.8237   22.3311 C.ar    1  UNL1        0.0358
     13 C          -3.3156  -18.5389   21.7549 C.ar    1  UNL1        0.1721
     14 C          -1.3736  -17.9156   18.8210 C.3     1  UNL1        0.2526
     15 O          -1.5256  -18.9323   19.9134 O.3     1  UNL1       -0.4684
     16 O          -2.3948  -17.5760   22.4442 O.3     1  UNL1       -0.4684
     17 C          -2.1708  -16.2094   21.8680 C.3     1  UNL1        0.2526
     18 C         -11.6334  -17.3952   23.5220 C.3     1  UNL1        0.0981
     19 C         -10.2586  -16.7995   23.4507 C.ar    1  UNL1       -0.0065
     20 C          -9.5771  -16.6425   22.1238 C.ar    1  UNL1        0.0000
     21 C          -8.2024  -16.0468   22.0525 C.ar    1  UNL1        0.0398
     22 C          -7.5090  -15.6081   23.3082 C.ar    1  UNL1        0.1724
     23 C          -8.1905  -15.7651   24.6352 C.ar    1  UNL1        0.1721
     24 C          -9.5653  -16.3608   24.7064 C.ar    1  UNL1        0.0367
     25 O          -6.1343  -15.0124   23.2370 O.3     1  UNL1       -0.4684
     26 C          -4.9961  -15.6635   23.9653 C.3     1  UNL1        0.2526
     27 O          -7.4972  -15.3264   25.8910 O.3     1  UNL1       -0.4684
     28 C          -7.9521  -15.8501   27.2209 C.3     1  UNL1        0.2526
     29 C         -12.1095  -16.4203   22.4862 C.3     1  UNL1        0.0169
     30 C         -12.4375  -15.0101   22.8781 C.3     1  UNL1        0.0014
     31 C         -12.2577  -16.8557   21.0584 C.3     1  UNL1        0.0014
     32 C         -13.0082  -17.9909   23.5932 C.1     1  UNL1        0.0752
     33 N         -14.3830  -18.5866   23.6645 N.1     1  UNL1       -0.1956
@<TRIPOS>BOND
     1    14    15    1
     2    15     8    1
     3     8     9   ar
     4     9    10   ar
     5    10    11   ar
     6    11     7    1
     7     7     6    1
     8     6     4    1
     9     4     5    1
    10     4     3    1
    11     3     2    1
    12     2     1    1
    13     1    18    1
    14    18    32    1
    15    32    33    3
    16    18    19    1
    17    19    20   ar
    18    20    21   ar
    19    21    22   ar
    20    22    25    1
    21    25    26    1
    22    22    23   ar
    23    23    27    1
    24    27    28    1
    25    23    24   ar
    26    18    29    1
    27    29    30    1
    28    29    31    1
    29    11    12   ar
    30    12    13   ar
    31    13    16    1
    32    16    17    1
    33    13     8   ar
    34    24    19   ar
@<TRIPOS>MOLECULE
*****
 33 34 0 0 0
SMALL
GASTEIGER

@<TRIPOS>ATOM
      1 C          -8.2561  -17.0601   23.8519 C.3     1  UNL1        0.0197
      2 C          -8.5746  -15.6092   24.0599 C.3     1  UNL1        0.0187
      3 C          -7.4890  -14.6521   24.4545 C.3     1  UNL1        0.0722
      4 N          -6.2498  -15.1606   25.1295 N.3     1  UNL1       -0.2712
      5 C          -6.2433  -15.3895   26.6119 C.3     1  UNL1        0.0896
      6 C          -5.0169  -15.4402   24.3220 C.3     1  UNL1        0.0768
      7 C          -4.4760  -16.8367   24.2382 C.3     1  UNL1        0.0438
      8 C          -2.0465  -18.0981   20.6666 C.ar    1  UNL1        0.1724
      9 C          -1.9445  -16.6943   21.1852 C.ar    1  UNL1        0.0397
     10 C          -2.7544  -16.2738   22.3757 C.ar    1  UNL1       -0.0009
     11 C          -3.6661  -17.2572   23.0477 C.ar    1  UNL1       -0.0176
     12 C          -3.7681  -18.6610   22.5292 C.ar    1  UNL1        0.0358
     13 C          -2.9582  -19.0814   21.3386 C.ar    1  UNL1        0.1721
     14 C          -1.4900  -17.8913   18.1373 C.3     1  UNL1        0.2526
     15 O          -1.2366  -18.5185   19.4761 O.3     1  UNL1       -0.4684
     16 O          -3.0602  -20.4853   20.8201 O.3     1  UNL1       -0.4684
     17 C          -4.0102  -20.8056   19.7044 C.3     1  UNL1        0.2526
     18 C          -9.2803  -18.1068   24.1769 C.3     1  UNL1        0.0981
     19 C          -9.3373  -18.5001   22.7305 C.ar    1  UNL1       -0.0065
     20 C          -8.3488  -19.4859   22.1818 C.ar    1  UNL1        0.0000
     21 C          -8.4058  -19.8792   20.7354 C.ar    1  UNL1        0.0398
     22 C          -9.4512  -19.2867   19.8376 C.ar    1  UNL1        0.1724
     23 C         -10.4397  -18.3009   20.3863 C.ar    1  UNL1        0.1721
     24 C         -10.3827  -17.9076   21.8327 C.ar    1  UNL1        0.0367
     25 O          -9.5082  -19.6800   18.3912 O.3     1  UNL1       -0.4684
     26 C          -8.9972  -21.0221   17.9583 C.3     1  UNL1        0.2526
     27 O         -11.4852  -17.7083   19.4886 O.3     1  UNL1       -0.4684
     28 C         -11.7990  -16.2436   19.5677 C.3     1  UNL1        0.2526
     29 C         -10.3044  -19.1535   24.5018 C.3     1  UNL1        0.0169
     30 C         -11.7498  -18.7740   24.6309 C.3     1  UNL1        0.0014
     31 C          -9.8830  -20.5798   24.6976 C.3     1  UNL1        0.0014
     32 C          -9.2233  -17.7135   25.6233 C.1     1  UNL1        0.0752
     33 N          -9.1663  -17.3202   27.0697 N.1     1  UNL1       -0.1956
@<TRIPOS>BOND
     1    14    15    1
     2    15     8    1
     3     8     9   ar
     4     9    10   ar
     5    10    11   ar
     6    11     7    1
     7     7     6    1
     8     6     4    1
     9     4     5    1
    10     4     3    1
    11     3     2    1
    12     2     1    1
    13     1    18    1
    14    18    32    1
    15    32    33    3
    16    18    19    1
    17    19    20   ar
    18    20    21   ar
    19    21    22   ar
    20    22    25    1
    21    25    26    1
    22    22    23   ar
    23    23    27    1
    24    27    28    1
    25    23    24   ar
    26    18    29    1
    27    29    30    1
    28    29    31    1
    29    11    12   ar
    30    12    13   ar
    31    13    16    1
    32    16    17    1
    33    13     8   ar
    34    24    19   ar
@<TRIPOS>MOLECULE
*****
 33 34 0 0 0
SMALL
GASTEIGER

@<TRIPOS>ATOM
      1 C          -7.3190  -15.7988   23.5665 C.3     1  UNL1        0.0197
      2 C          -6.9672  -17.0503   22.8182 C.3     1  UNL1        0.0187
      3 C          -7.7670  -17.4549   21.6154 C.3     1  UNL1        0.0722
      4 N          -8.1705  -18.8876   21.4304 N.3     1  UNL1       -0.2712
      5 C          -8.9322  -19.3001   20.2057 C.3     1  UNL1        0.0896
      6 C          -7.8125  -19.9080   22.4700 C.3     1  UNL1        0.0768
      7 C          -6.5963  -20.7673   22.2899 C.3     1  UNL1        0.0438
      8 C          -2.9030  -19.0641   20.3640 C.ar    1  UNL1        0.1724
      9 C          -3.7702  -20.0239   19.6046 C.ar    1  UNL1        0.0397
     10 C          -5.0013  -20.5916   20.2466 C.ar    1  UNL1       -0.0009
     11 C          -5.3652  -20.1995   21.6479 C.ar    1  UNL1       -0.0176
     12 C          -4.4980  -19.2397   22.4073 C.ar    1  UNL1        0.0358
     13 C          -3.2669  -18.6720   21.7654 C.ar    1  UNL1        0.1721
     14 C          -1.7738  -17.7784   18.4091 C.3     1  UNL1        0.2526
     15 O          -1.6719  -18.4964   19.7221 O.3     1  UNL1       -0.4684
     16 O          -2.3997  -17.7122   22.5248 O.3     1  UNL1       -0.4684
     17 C          -2.2899  -16.2849   22.0769 C.3     1  UNL1        0.2526
     18 C          -7.6973  -15.8729   25.0161 C.3     1  UNL1        0.0981
     19 C          -8.9877  -16.5417   24.6452 C.ar    1  UNL1       -0.0065
     20 C          -9.3239  -17.8894   25.2114 C.ar    1  UNL1        0.0000
     21 C         -10.6144  -18.5581   24.8404 C.ar    1  UNL1        0.0398
     22 C         -11.5686  -17.8791   23.9032 C.ar    1  UNL1        0.1724
     23 C         -11.2324  -16.5314   23.3370 C.ar    1  UNL1        0.1721
     24 C          -9.9420  -15.8627   23.7079 C.ar    1  UNL1        0.0367
     25 O         -12.8590  -18.5479   23.5322 O.3     1  UNL1       -0.4684
     26 C         -14.1193  -18.2082   24.2713 C.3     1  UNL1        0.2526
     27 O         -12.1867  -15.8524   22.3997 O.3     1  UNL1       -0.4684
     28 C         -12.2477  -16.2686   20.9599 C.3     1  UNL1        0.2526
     29 C          -8.0756  -15.9471   26.4657 C.3     1  UNL1        0.0169
     30 C          -8.9771  -14.9058   27.0598 C.3     1  UNL1        0.0014
     31 C          -7.5524  -17.0626   27.3213 C.3     1  UNL1        0.0014
     32 C          -6.4069  -15.2042   25.3871 C.1     1  UNL1        0.0752
     33 N          -5.1165  -14.5355   25.7581 N.1     1  UNL1       -0.1956
@<TRIPOS>BOND
     1    14    15    1
     2    15     8    1
     3     8     9   ar
     4     9    10   ar
     5    10    11   ar
     6    11     7    1
     7     7     6    1
     8     6     4    1
     9     4     5    1
    10     4     3    1
    11     3     2    1
    12     2     1    1
    13     1    18    1
    14    18    32    1
    15    32    33    3
    16    18    19    1
    17    19    20   ar
    18    20    21   ar
    19    21    22   ar
    20    22    25    1
    21    25    26    1
    22    22    23   ar
    23    23    27    1
    24    27    28    1
    25    23    24   ar
    26    18    29    1
    27    29    30    1
    28    29    31    1
    29    11    12   ar
    30    12    13   ar
    31    13    16    1
    32    16    17    1
    33    13     8   ar
    34    24    19   ar
@<TRIPOS>MOLECULE
*****
 33 34 0 0 0
SMALL
GASTEIGER

@<TRIPOS>ATOM
      1 C          -9.2237  -19.9152   23.3140 C.3     1  UNL1        0.0197
      2 C          -7.9579  -20.0310   22.5176 C.3     1  UNL1        0.0187
      3 C          -7.7706  -19.2014   21.2820 C.3     1  UNL1        0.0722
      4 N          -7.7606  -19.8568   19.9329 N.3     1  UNL1       -0.2712
      5 C          -8.8246  -19.5237   18.9293 C.3     1  UNL1        0.0896
      6 C          -6.6868  -20.8454   19.5872 C.3     1  UNL1        0.0768
      7 C          -5.5178  -21.0355   20.5078 C.3     1  UNL1        0.0438
      8 C          -2.1879  -18.0094   20.5705 C.ar    1  UNL1        0.1724
      9 C          -2.5267  -18.7254   19.2968 C.ar    1  UNL1        0.0397
     10 C          -3.6367  -19.7342   19.2759 C.ar    1  UNL1       -0.0009
     11 C          -4.4079  -20.0268   20.5287 C.ar    1  UNL1       -0.0176
     12 C          -4.0691  -19.3107   21.8024 C.ar    1  UNL1        0.0358
     13 C          -2.9591  -18.3020   21.8233 C.ar    1  UNL1        0.1721
     14 C           0.2908  -17.3815   20.1101 C.3     1  UNL1        0.2526
     15 O          -1.0779  -17.0007   20.5914 O.3     1  UNL1       -0.4684
     16 O          -2.6203  -17.5859   23.0971 O.3     1  UNL1       -0.4684
     17 C          -3.5307  -17.6957   24.2842 C.3     1  UNL1        0.2526
     18 C         -10.2203  -18.8429   22.9867 C.3     1  UNL1        0.0981
     19 C          -9.6149  -17.9597   24.0372 C.ar    1  UNL1       -0.0065
     20 C          -9.8638  -18.2422   25.4891 C.ar    1  UNL1        0.0000
     21 C          -9.2585  -17.3590   26.5396 C.ar    1  UNL1        0.0398
     22 C          -8.4043  -16.1932   26.1381 C.ar    1  UNL1        0.1724
     23 C          -8.1554  -15.9107   24.6862 C.ar    1  UNL1        0.1721
     24 C          -8.7607  -16.7939   23.6357 C.ar    1  UNL1        0.0367
     25 O          -7.7990  -15.3100   27.1886 O.3     1  UNL1       -0.4684
     26 C          -6.3834  -15.5333   27.6316 C.3     1  UNL1        0.2526
     27 O          -7.3011  -14.7448   24.2846 O.3     1  UNL1       -0.4684
     28 C          -5.9094  -14.9752   23.7748 C.3     1  UNL1        0.2526
     29 C         -11.2168  -17.7706   22.6594 C.3     1  UNL1        0.0169
     30 C         -10.9414  -16.8058   21.5444 C.3     1  UNL1        0.0014
     31 C         -12.4889  -17.6632   23.4472 C.3     1  UNL1        0.0014
     32 C         -10.8256  -19.7261   21.9362 C.1     1  UNL1        0.0752
     33 N         -11.4309  -20.6094   20.8858 N.1     1  UNL1       -0.1956
@<TRIPOS>BOND
     1    14    15    1
     2    15     8    1
     3     8     9   ar
     4     9    10   ar
     5    10    11   ar
     6    11     7    1
     7     7     6    1
     8     6     4    1
     9     4     5    1
    10     4     3    1
    11     3     2    1
    12     2     1    1
    13     1    18    1
    14    18    32    1
    15    32    33    3
    16    18    19    1
    17    19    20   ar
    18    20    21   ar
    19    21    22   ar
    20    22    25    1
    21    25    26    1
    22    22    23   ar
    23    23    27    1
    24    27    28    1
    25    23    24   ar
    26    18    29    1
    27    29    30    1
    28    29    31    1
    29    11    12   ar
    30    12    13   ar
    31    13    16    1
    32    16    17    1
    33    13     8   ar
    34    24    19   ar
@<TRIPOS>MOLECULE
*****
 33 34 0 0 0
SMALL
GASTEIGER

@<TRIPOS>ATOM
      1 C          -6.7915  -15.6933   23.9135 C.3     1  UNL1        0.0197
      2 C          -5.8028  -16.7206   23.4477 C.3     1  UNL1        0.0187
      3 C          -4.3354  -16.4101   23.4623 C.3     1  UNL1        0.0722
      4 N          -3.4285  -17.0246   22.4377 N.3     1  UNL1       -0.2712
      5 C          -2.2678  -16.2425   21.8980 C.3     1  UNL1        0.0896
      6 C          -3.6822  -18.4212   21.9527 C.3     1  UNL1        0.0768
      7 C          -4.9145  -19.1552   22.3914 C.3     1  UNL1        0.0438
      8 C          -7.9413  -20.4940   19.3424 C.ar    1  UNL1        0.1724
      9 C          -6.6629  -21.2591   19.5162 C.ar    1  UNL1        0.0397
     10 C          -5.6539  -20.8128   20.5325 C.ar    1  UNL1       -0.0009
     11 C          -5.9234  -19.6015   21.3751 C.ar    1  UNL1       -0.0176
     12 C          -7.2019  -18.8364   21.2013 C.ar    1  UNL1        0.0358
     13 C          -8.2108  -19.2826   20.1850 C.ar    1  UNL1        0.1721
     14 C          -8.6960  -22.1710   17.5072 C.3     1  UNL1        0.2526
     15 O          -8.9502  -20.9402   18.3261 O.3     1  UNL1       -0.4684
     16 O          -9.4892  -18.5174   20.0112 O.3     1  UNL1       -0.4684
     17 C         -10.7979  -19.1494   20.3826 C.3     1  UNL1        0.2526
     18 C          -7.3041  -15.7304   25.3226 C.3     1  UNL1        0.0981
     19 C          -8.5440  -16.4321   24.8531 C.ar    1  UNL1       -0.0065
     20 C          -8.9310  -17.7520   25.4515 C.ar    1  UNL1        0.0000
     21 C         -10.1708  -18.4537   24.9820 C.ar    1  UNL1        0.0398
     22 C         -11.0236  -17.8355   23.9140 C.ar    1  UNL1        0.1724
     23 C         -10.6366  -16.5157   23.3156 C.ar    1  UNL1        0.1721
     24 C          -9.3967  -15.8140   23.7851 C.ar    1  UNL1        0.0367
     25 O         -12.2634  -18.5372   23.4445 O.3     1  UNL1       -0.4684
     26 C         -13.6122  -18.0556   23.8902 C.3     1  UNL1        0.2526
     27 O         -11.4894  -15.8974   22.2476 O.3     1  UNL1       -0.4684
     28 C         -10.9248  -15.6661   20.8773 C.3     1  UNL1        0.2526
     29 C          -7.8168  -15.7676   26.7318 C.3     1  UNL1        0.0169
     30 C          -7.1481  -16.6424   27.7504 C.3     1  UNL1        0.0014
     31 C          -8.9982  -14.9299   27.1225 C.3     1  UNL1        0.0014
     32 C          -6.0643  -15.0287   25.7922 C.1     1  UNL1        0.0752
     33 N          -4.8245  -14.3271   26.2617 N.1     1  UNL1       -0.1956
@<TRIPOS>BOND
     1    14    15    1
     2    15     8    1
     3     8     9   ar
     4     9    10   ar
     5    10    11   ar
     6    11     7    1
     7     7     6    1
     8     6     4    1
     9     4     5    1
    10     4     3    1
    11     3     2    1
    12     2     1    1
    13     1    18    1
    14    18    32    1
    15    32    33    3
    16    18    19    1
    17    19    20   ar
    18    20    21   ar
    19    21    22   ar
    20    22    25    1
    21    25    26    1
    22    22    23   ar
    23    23    27    1
    24    27    28    1
    25    23    24   ar
    26    18    29    1
    27    29    30    1
    28    29    31    1
    29    11    12   ar
    30    12    13   ar
    31    13    16    1
    32    16    17    1
    33    13     8   ar
    34    24    19   ar
@<TRIPOS>MOLECULE
*****
 33 34 0 0 0
SMALL
GASTEIGER

@<TRIPOS>ATOM
      1 C          -9.9228  -19.2588   23.3228 C.3     1  UNL1        0.0197
      2 C          -8.9439  -20.0351   22.4927 C.3     1  UNL1        0.0187
      3 C          -7.9405  -19.3118   21.6443 C.3     1  UNL1        0.0722
      4 N          -7.5545  -19.8639   20.3041 N.3     1  UNL1       -0.2712
      5 C          -8.3771  -19.5370   19.0931 C.3     1  UNL1        0.0896
      6 C          -6.3460  -20.7430   20.1749 C.3     1  UNL1        0.0768
      7 C          -5.2516  -20.6687   21.1981 C.3     1  UNL1        0.0438
      8 C          -1.9031  -17.7041   20.7001 C.ar    1  UNL1        0.1724
      9 C          -2.5609  -17.8748   22.0372 C.ar    1  UNL1        0.0397
     10 C          -3.6771  -18.8630   22.2032 C.ar    1  UNL1       -0.0009
     11 C          -4.1355  -19.6805   21.0321 C.ar    1  UNL1       -0.0176
     12 C          -3.4776  -19.5097   19.6949 C.ar    1  UNL1        0.0358
     13 C          -2.3614  -18.5215   19.5289 C.ar    1  UNL1        0.1721
     14 C           0.5825  -17.1893   20.1461 C.3     1  UNL1        0.2526
     15 O          -0.7869  -16.7158   20.5341 O.3     1  UNL1       -0.4684
     16 O          -1.7036  -18.3507   18.1916 O.3     1  UNL1       -0.4684
     17 C          -2.1347  -17.2403   17.2801 C.3     1  UNL1        0.2526
     18 C         -10.3092  -17.8665   22.9203 C.3     1  UNL1        0.0981
     19 C          -9.4727  -17.3120   24.0352 C.ar    1  UNL1       -0.0065
     20 C          -9.7616  -17.7014   25.4546 C.ar    1  UNL1        0.0000
     21 C          -8.9252  -17.1469   26.5695 C.ar    1  UNL1        0.0398
     22 C          -7.7998  -16.2031   26.2649 C.ar    1  UNL1        0.1724
     23 C          -7.5109  -15.8138   24.8454 C.ar    1  UNL1        0.1721
     24 C          -8.3474  -16.3683   23.7305 C.ar    1  UNL1        0.0367
     25 O          -6.9633  -15.6487   27.3797 O.3     1  UNL1       -0.4684
     26 C          -7.2920  -14.3092   27.9693 C.3     1  UNL1        0.2526
     27 O          -6.3855  -14.8700   24.5407 O.3     1  UNL1       -0.4684
     28 C          -5.0105  -15.4049   24.2702 C.3     1  UNL1        0.2526
     29 C         -10.6956  -16.4741   22.5178 C.3     1  UNL1        0.0169
     30 C         -11.8317  -15.7813   23.2100 C.3     1  UNL1        0.0014
     31 C          -9.9459  -15.7746   21.4229 C.3     1  UNL1        0.0014
     32 C         -11.1457  -18.4209   21.8054 C.1     1  UNL1        0.0752
     33 N         -11.9822  -18.9754   20.6906 N.1     1  UNL1       -0.1956
@<TRIPOS>BOND
     1    14    15    1
     2    15     8    1
     3     8     9   ar
     4     9    10   ar
     5    10    11   ar
     6    11     7    1
     7     7     6    1
     8     6     4    1
     9     4     5    1
    10     4     3    1
    11     3     2    1
    12     2     1    1
    13     1    18    1
    14    18    32    1
    15    32    33    3
    16    18    19    1
    17    19    20   ar
    18    20    21   ar
    19    21    22   ar
    20    22    25    1
    21    25    26    1
    22    22    23   ar
    23    23    27    1
    24    27    28    1
    25    23    24   ar
    26    18    29    1
    27    29    30    1
    28    29    31    1
    29    11    12   ar
    30    12    13   ar
    31    13    16    1
    32    16    17    1
    33    13     8   ar
    34    24    19   ar
@<TRIPOS>MOLECULE
*****
 33 34 0 0 0
SMALL
GASTEIGER

@<TRIPOS>ATOM
      1 C          -6.6377  -15.8637   23.8997 C.3     1  UNL1        0.0197
      2 C          -5.6721  -16.9637   23.5715 C.3     1  UNL1        0.0187
      3 C          -4.3840  -16.6468   22.8713 C.3     1  UNL1        0.0722
      4 N          -3.5349  -17.7559   22.3248 N.3     1  UNL1       -0.2712
      5 C          -2.1666  -18.0006   22.8888 C.3     1  UNL1        0.0896
      6 C          -4.0539  -18.6205   21.2143 C.3     1  UNL1        0.0768
      7 C          -5.0203  -19.7276   21.5148 C.3     1  UNL1        0.0438
      8 C          -9.3181  -19.3736   20.2287 C.ar    1  UNL1        0.1724
      9 C          -8.9151  -18.9725   21.6167 C.ar    1  UNL1        0.0397
     10 C          -7.4825  -19.0905   22.0454 C.ar    1  UNL1       -0.0009
     11 C          -6.4529  -19.6096   21.0861 C.ar    1  UNL1       -0.0176
     12 C          -6.8559  -20.0107   19.6981 C.ar    1  UNL1        0.0358
     13 C          -8.2884  -19.8927   19.2694 C.ar    1  UNL1        0.1721
     14 C         -11.5290  -18.0136   20.1186 C.3     1  UNL1        0.2526
     15 O         -10.7506  -19.2556   19.8000 O.3     1  UNL1       -0.4684
     16 O          -8.6914  -20.2938   17.8812 O.3     1  UNL1       -0.4684
     17 C          -8.9721  -21.7337   17.5684 C.3     1  UNL1        0.2526
     18 C          -7.1894  -15.7398   25.2891 C.3     1  UNL1        0.0981
     19 C          -8.4335  -16.4591   24.8592 C.ar    1  UNL1       -0.0065
     20 C          -9.4123  -15.7837   23.9450 C.ar    1  UNL1        0.0000
     21 C         -10.6564  -16.5030   23.5151 C.ar    1  UNL1        0.0398
     22 C         -10.9217  -17.8976   23.9994 C.ar    1  UNL1        0.1724
     23 C          -9.9429  -18.5730   24.9136 C.ar    1  UNL1        0.1721
     24 C          -8.6988  -17.8537   25.3435 C.ar    1  UNL1        0.0367
     25 O         -12.1659  -18.6169   23.5695 O.3     1  UNL1       -0.4684
     26 C         -13.4477  -17.8583   23.3930 C.3     1  UNL1        0.2526
     27 O         -10.2082  -19.9677   25.3979 O.3     1  UNL1       -0.4684
     28 C          -9.6941  -21.1424   24.6197 C.3     1  UNL1        0.2526
     29 C          -7.7411  -15.6159   26.6784 C.3     1  UNL1        0.0169
     30 C          -8.9725  -14.7960   26.9260 C.3     1  UNL1        0.0014
     31 C          -7.0614  -16.3120   27.8201 C.3     1  UNL1        0.0014
     32 C          -5.9453  -15.0205   25.7190 C.1     1  UNL1        0.0752
     33 N          -4.7011  -14.3013   26.1489 N.1     1  UNL1       -0.1956
@<TRIPOS>BOND
     1    14    15    1
     2    15     8    1
     3     8     9   ar
     4     9    10   ar
     5    10    11   ar
     6    11     7    1
     7     7     6    1
     8     6     4    1
     9     4     5    1
    10     4     3    1
    11     3     2    1
    12     2     1    1
    13     1    18    1
    14    18    32    1
    15    32    33    3
    16    18    19    1
    17    19    20   ar
    18    20    21   ar
    19    21    22   ar
    20    22    25    1
    21    25    26    1
    22    22    23   ar
    23    23    27    1
    24    27    28    1
    25    23    24   ar
    26    18    29    1
    27    29    30    1
    28    29    31    1
    29    11    12   ar
    30    12    13   ar
    31    13    16    1
    32    16    17    1
    33    13     8   ar
    34    24    19   ar
@<TRIPOS>MOLECULE
*****
 33 34 0 0 0
SMALL
GASTEIGER

@<TRIPOS>ATOM
      1 C          -7.3244  -15.8367   23.6300 C.3     1  UNL1        0.0197
      2 C          -6.9501  -17.0920   22.8993 C.3     1  UNL1        0.0187
      3 C          -7.7269  -17.5147   21.6877 C.3     1  UNL1        0.0722
      4 N          -7.9873  -18.9699   21.4337 N.3     1  UNL1       -0.2712
      5 C          -9.2363  -19.3949   20.7201 C.3     1  UNL1        0.0896
      6 C          -6.9986  -20.0001   21.8933 C.3     1  UNL1        0.0768
      7 C          -5.8481  -20.3821   21.0100 C.3     1  UNL1        0.0438
      8 C          -2.1713  -17.7921   20.8582 C.ar    1  UNL1        0.1724
      9 C          -2.3818  -18.7288   22.0106 C.ar    1  UNL1        0.0397
     10 C          -3.6074  -19.5921   22.0613 C.ar    1  UNL1       -0.0009
     11 C          -4.6225  -19.5187   20.9594 C.ar    1  UNL1       -0.0176
     12 C          -4.4120  -18.5820   19.8069 C.ar    1  UNL1        0.0358
     13 C          -3.1864  -17.7187   19.7563 C.ar    1  UNL1        0.1721
     14 C           0.2386  -17.3547   19.9914 C.3     1  UNL1        0.2526
     15 O          -0.9457  -16.9288   20.8076 O.3     1  UNL1       -0.4684
     16 O          -2.9759  -16.7820   18.6038 O.3     1  UNL1       -0.4684
     17 C          -2.6369  -17.3258   17.2476 C.3     1  UNL1        0.2526
     18 C          -7.8162  -15.9109   25.0451 C.3     1  UNL1        0.0981
     19 C          -9.1138  -16.4893   24.5639 C.ar    1  UNL1       -0.0065
     20 C         -10.1359  -15.6027   23.9164 C.ar    1  UNL1        0.0000
     21 C         -11.4335  -16.1812   23.4351 C.ar    1  UNL1        0.0398
     22 C         -11.7091  -17.6462   23.6013 C.ar    1  UNL1        0.1724
     23 C         -10.6870  -18.5328   24.2488 C.ar    1  UNL1        0.1721
     24 C          -9.3894  -17.9544   24.7300 C.ar    1  UNL1        0.0367
     25 O         -13.0067  -18.2247   23.1200 O.3     1  UNL1       -0.4684
     26 C         -14.1829  -18.3028   24.0476 C.3     1  UNL1        0.2526
     27 O         -10.9625  -19.9980   24.4150 O.3     1  UNL1       -0.4684
     28 C          -9.8287  -20.9801   24.4060 C.3     1  UNL1        0.2526
     29 C          -8.3080  -15.9851   26.4603 C.3     1  UNL1        0.0169
     30 C          -8.5068  -17.3193   27.1162 C.3     1  UNL1        0.0014
     31 C          -8.6010  -14.7250   27.2195 C.3     1  UNL1        0.0014
     32 C          -6.5186  -15.3325   25.5264 C.1     1  UNL1        0.0752
     33 N          -5.2210  -14.7540   26.0077 N.1     1  UNL1       -0.1956
@<TRIPOS>BOND
     1    14    15    1
     2    15     8    1
     3     8     9   ar
     4     9    10   ar
     5    10    11   ar
     6    11     7    1
     7     7     6    1
     8     6     4    1
     9     4     5    1
    10     4     3    1
    11     3     2    1
    12     2     1    1
    13     1    18    1
    14    18    32    1
    15    32    33    3
    16    18    19    1
    17    19    20   ar
    18    20    21   ar
    19    21    22   ar
    20    22    25    1
    21    25    26    1
    22    22    23   ar
    23    23    27    1
    24    27    28    1
    25    23    24   ar
    26    18    29    1
    27    29    30    1
    28    29    31    1
    29    11    12   ar
    30    12    13   ar
    31    13    16    1
    32    16    17    1
    33    13     8   ar
    34    24    19   ar
@<TRIPOS>MOLECULE
*****
 33 34 0 0 0
SMALL
GASTEIGER

@<TRIPOS>ATOM
      1 C           3.7293   -2.4328   18.4977 C.3     1  UNL1        0.0197
      2 C           4.3712   -3.6888   19.0081 C.3     1  UNL1        0.0187
      3 C           4.1888   -4.0957   20.4402 C.3     1  UNL1        0.0722
      4 N           5.1365   -3.5939   21.4891 N.3     1  UNL1       -0.2712
      5 C           6.6125   -3.5817   21.2222 C.3     1  UNL1        0.0896
      6 C           4.6082   -3.1042   22.8048 C.3     1  UNL1        0.0768
      7 C           5.0035   -1.7501   23.3147 C.3     1  UNL1        0.0438
      8 C           2.9794   -0.0354   26.9495 C.ar    1  UNL1        0.1724
      9 C           4.0109   -1.1134   27.1040 C.ar    1  UNL1        0.0397
     10 C           4.6856   -1.6850   25.8924 C.ar    1  UNL1       -0.0009
     11 C           4.3288   -1.1785   24.5263 C.ar    1  UNL1       -0.0176
     12 C           3.2974   -0.1005   24.3718 C.ar    1  UNL1        0.0358
     13 C           2.6226    0.4711   25.5834 C.ar    1  UNL1        0.1721
     14 C           1.0979   -0.1426   28.7379 C.3     1  UNL1        0.2526
     15 O           2.3047    0.5362   28.1611 O.3     1  UNL1       -0.4684
     16 O           1.5911    1.5491   25.4289 O.3     1  UNL1       -0.4684
     17 C           0.1638    1.1862   25.1445 C.3     1  UNL1        0.2526
     18 C           4.4273   -1.1149   18.6588 C.3     1  UNL1        0.0981
     19 C           3.1619   -0.5097   19.1902 C.ar    1  UNL1       -0.0065
     20 C           2.7259   -0.7971   20.5963 C.ar    1  UNL1        0.0000
     21 C           1.4604   -0.1919   21.1277 C.ar    1  UNL1        0.0398
     22 C           0.6310    0.7008   20.2530 C.ar    1  UNL1        0.1724
     23 C           1.0670    0.9882   18.8468 C.ar    1  UNL1        0.1721
     24 C           2.3324    0.3829   18.3154 C.ar    1  UNL1        0.0367
     25 O          -0.6345    1.3060   20.7843 O.3     1  UNL1       -0.4684
     26 C          -0.5829    2.5824   21.5704 C.3     1  UNL1        0.2526
     27 O           0.2376    1.8808   17.9720 O.3     1  UNL1       -0.4684
     28 C           0.3733    3.3709   18.0777 C.3     1  UNL1        0.2526
     29 C           5.1253    0.2030   18.8199 C.3     1  UNL1        0.0169
     30 C           5.5182    0.6815   20.1861 C.3     1  UNL1        0.0014
     31 C           5.4303    1.0424   17.6147 C.3     1  UNL1        0.0014
     32 C           5.6928   -1.7201   18.1274 C.1     1  UNL1        0.0752
     33 N           6.9582   -2.3254   17.5961 N.1     1  UNL1       -0.1956
@<TRIPOS>BOND
     1    14    15    1
     2    15     8    1
     3     8     9   ar
     4     9    10   ar
     5    10    11   ar
     6    11     7    1
     7     7     6    1
     8     6     4    1
     9     4     5    1
    10     4     3    1
    11     3     2    1
    12     2     1    1
    13     1    18    1
    14    18    32    1
    15    32    33    3
    16    18    19    1
    17    19    20   ar
    18    20    21   ar
    19    21    22   ar
    20    22    25    1
    21    25    26    1
    22    22    23   ar
    23    23    27    1
    24    27    28    1
    25    23    24   ar
    26    18    29    1
    27    29    30    1
    28    29    31    1
    29    11    12   ar
    30    12    13   ar
    31    13    16    1
    32    16    17    1
    33    13     8   ar
    34    24    19   ar
