@<TRIPOS>MOLECULE
*****
 28 30 0 0 0
SMALL
GASTEIGER

@<TRIPOS>ATOM
      1 C          -6.8543  -16.5784   23.6338 C.ar    1  UNL1        0.0550
      2 C          -6.5370  -15.7200   24.8222 C.ar    1  UNL1        0.0046
      3 C          -5.1264  -15.6248   25.3235 C.ar    1  UNL1        0.0015
      4 C          -4.0331  -16.3881   24.6364 C.ar    1  UNL1        0.0199
      5 C          -4.3504  -17.2465   23.4479 C.ar    1  UNL1        0.1221
      6 C          -5.7609  -17.3417   22.9466 C.ar    1  UNL1        0.0244
      7 N          -9.0895  -17.8884   23.4394 N.am    1  UNL1       -0.2804
      8 C          -8.2648  -16.6736   23.1325 C.2     1  UNL1        0.2495
      9 O          -8.8506  -15.5540   22.3241 O.2     1  UNL1       -0.2698
     10 H          -8.7050  -18.6232   23.9699 H       1  UNL1        0.1552
     11 C         -14.1950  -18.1042   24.3812 C.3     1  UNL1        0.0334
     12 C         -13.0528  -18.0914   23.4090 C.ar    1  UNL1        0.0068
     13 C         -11.6423  -17.9963   23.9102 C.ar    1  UNL1        0.0126
     14 C         -10.5000  -17.9835   22.9381 C.ar    1  UNL1        0.0504
     15 C         -10.7683  -18.0659   21.4646 C.ar    1  UNL1        0.0170
     16 C         -12.1789  -18.1611   20.9633 C.ar    1  UNL1        0.0306
     17 C         -13.3211  -18.1738   21.9355 C.ar    1  UNL1        0.1362
     18 F         -14.7317  -18.2690   21.4341 F       1  UNL1       -0.2045
     19 S          -3.2572  -18.0098   22.7608 S.O2    1  UNL1        0.0603
     20 O          -2.4918  -16.7351   22.5627 O.2     1  UNL1       -0.1530
     21 O          -4.0226  -19.2844   22.9589 O.2     1  UNL1       -0.1530
     22 N          -2.1638  -18.7730   22.0736 N.3     1  UNL1       -0.1782
     23 H          -2.4379  -19.7554   22.0859 H       1  UNL1        0.1488
     24 C          -1.7954  -18.4440   20.6572 C.3     1  UNL1        0.1075
     25 C          -2.7550  -18.2058   19.5292 C.3     1  UNL1        0.0520
     26 C          -1.9553  -17.9100   18.2950 C.3     1  UNL1        0.1437
     27 O          -0.5015  -17.9654   18.6603 O.3     1  UNL1       -0.3522
     28 C          -0.4027  -18.2955   20.1203 C.3     1  UNL1        0.1595
@<TRIPOS>BOND
     1    11    12    1
     2    12    13   ar
     3    13    14   ar
     4    14     7    1
     5     7     8   am
     6     8     9    2
     7     8     1    1
     8     1     2   ar
     9     2     3   ar
    10     3     4   ar
    11     4     5   ar
    12     5    19    1
    13    19    20    2
    14    19    21    2
    15    19    22    1
    16    24    22    1
    17    24    25    1
    18    25    26    1
    19    26    27    1
    20    27    28    1
    21     5     6   ar
    22    14    15   ar
    23    15    16   ar
    24    16    17   ar
    25    17    18    1
    26    17    12   ar
    27     6     1   ar
    28    28    24    1
    29     7    10    1
    30    22    23    1
@<TRIPOS>MOLECULE
*****
 28 30 0 0 0
SMALL
GASTEIGER

@<TRIPOS>ATOM
      1 C          -7.2769  -16.0996   24.5745 C.ar    1  UNL1        0.0550
      2 C          -7.0103  -15.4126   25.8810 C.ar    1  UNL1        0.0046
      3 C          -5.6000  -15.2311   26.3589 C.ar    1  UNL1        0.0015
      4 C          -4.4565  -15.7365   25.5302 C.ar    1  UNL1        0.0199
      5 C          -4.7231  -16.4235   24.2237 C.ar    1  UNL1        0.1221
      6 C          -6.1333  -16.6051   23.7459 C.ar    1  UNL1        0.0244
      7 N          -9.0617  -17.5036   23.3123 N.am    1  UNL1       -0.2804
      8 C          -8.6871  -16.2812   24.0967 C.2     1  UNL1        0.2495
      9 O          -9.7228  -15.2402   24.4033 O.2     1  UNL1       -0.2698
     10 H          -8.3820  -18.1868   23.1111 H       1  UNL1        0.1552
     11 C         -14.0998  -18.2536   24.3398 C.3     1  UNL1        0.0334
     12 C         -12.9910  -18.0601   23.3482 C.ar    1  UNL1        0.0068
     13 C         -11.5808  -17.8786   23.8260 C.ar    1  UNL1        0.0126
     14 C         -10.4720  -17.6851   22.8345 C.ar    1  UNL1        0.0504
     15 C         -10.7734  -17.6732   21.3651 C.ar    1  UNL1        0.0170
     16 C         -12.1836  -17.8547   20.8874 C.ar    1  UNL1        0.0306
     17 C         -13.2924  -18.0481   21.8789 C.ar    1  UNL1        0.1362
     18 F         -14.7027  -18.2296   21.4011 F       1  UNL1       -0.2045
     19 S          -3.5795  -16.9290   23.3950 S.O2    1  UNL1        0.0603
     20 O          -3.5273  -18.1756   24.2275 O.2     1  UNL1       -0.1530
     21 O          -3.6318  -15.6823   22.5625 O.2     1  UNL1       -0.1530
     22 N          -2.4359  -17.4345   22.5663 N.3     1  UNL1       -0.1782
     23 H          -1.9405  -18.1208   23.1356 H       1  UNL1        0.1488
     24 C          -2.7000  -18.0822   21.2394 C.3     1  UNL1        0.1075
     25 C          -3.5586  -19.2893   21.0028 C.3     1  UNL1        0.0520
     26 C          -3.5411  -19.5896   19.5332 C.3     1  UNL1        0.1437
     27 O          -2.6718  -18.5682   18.8616 O.3     1  UNL1       -0.3522
     28 C          -2.1520  -17.6366   19.9161 C.3     1  UNL1        0.1595
@<TRIPOS>BOND
     1    11    12    1
     2    12    13   ar
     3    13    14   ar
     4    14     7    1
     5     7     8   am
     6     8     9    2
     7     8     1    1
     8     1     2   ar
     9     2     3   ar
    10     3     4   ar
    11     4     5   ar
    12     5    19    1
    13    19    20    2
    14    19    21    2
    15    19    22    1
    16    24    22    1
    17    24    25    1
    18    25    26    1
    19    26    27    1
    20    27    28    1
    21     5     6   ar
    22    14    15   ar
    23    15    16   ar
    24    16    17   ar
    25    17    18    1
    26    17    12   ar
    27     6     1   ar
    28    28    24    1
    29     7    10    1
    30    22    23    1
@<TRIPOS>MOLECULE
*****
 28 30 0 0 0
SMALL
GASTEIGER

@<TRIPOS>ATOM
      1 C         -12.8521   -6.8652   18.3101 C.ar    1  UNL1        0.0550
      2 C         -11.6954   -7.8178   18.2416 C.ar    1  UNL1        0.0046
      3 C         -10.2916   -7.3030   18.3629 C.ar    1  UNL1        0.0015
      4 C         -10.0446   -5.8358   18.5526 C.ar    1  UNL1        0.0199
      5 C         -11.2013   -4.8832   18.6211 C.ar    1  UNL1        0.1221
      6 C         -12.6050   -5.3979   18.4998 C.ar    1  UNL1        0.0244
      7 N         -14.8486   -8.2081   19.2901 N.am    1  UNL1       -0.2804
      8 C         -14.2557   -7.3799   18.1889 C.2     1  UNL1        0.2495
      9 O         -15.0666   -7.0664   16.9665 O.2     1  UNL1       -0.2698
     10 H         -14.3164   -8.4139   20.0924 H       1  UNL1        0.1552
     11 C         -19.8944   -7.8405   20.4752 C.3     1  UNL1        0.0334
     12 C         -18.7752   -8.5390   19.7614 C.ar    1  UNL1        0.0068
     13 C         -17.3716   -8.0243   19.8826 C.ar    1  UNL1        0.0126
     14 C         -16.2524   -8.7228   19.1688 C.ar    1  UNL1        0.0504
     15 C         -16.5369   -9.9359   18.3337 C.ar    1  UNL1        0.0170
     16 C         -17.9406  -10.4506   18.2125 C.ar    1  UNL1        0.0306
     17 C         -19.0598   -9.7521   18.9263 C.ar    1  UNL1        0.1362
     18 F         -20.4635  -10.2668   18.8051 F       1  UNL1       -0.2045
     19 S         -10.9543   -3.4159   18.8108 S.O2    1  UNL1        0.0603
     20 O          -9.5966   -3.5643   18.1907 O.2     1  UNL1       -0.1530
     21 O         -12.3121   -3.2675   19.4308 O.2     1  UNL1       -0.1530
     22 N         -10.7073   -1.9485   19.0005 N.3     1  UNL1       -0.1782
     23 H          -9.6955   -1.8200   19.0170 H       1  UNL1        0.1488
     24 C         -11.2529   -0.9621   18.0110 C.3     1  UNL1        0.1075
     25 C         -12.3920   -0.0149   18.2468 C.3     1  UNL1        0.0520
     26 C         -12.5983    0.7830   16.9934 C.3     1  UNL1        0.1437
     27 O         -11.5869    0.3290   15.9830 O.3     1  UNL1       -0.3522
     28 C         -10.7554   -0.7495   16.6119 C.3     1  UNL1        0.1595
@<TRIPOS>BOND
     1    11    12    1
     2    12    13   ar
     3    13    14   ar
     4    14     7    1
     5     7     8   am
     6     8     9    2
     7     8     1    1
     8     1     2   ar
     9     2     3   ar
    10     3     4   ar
    11     4     5   ar
    12     5    19    1
    13    19    20    2
    14    19    21    2
    15    19    22    1
    16    24    22    1
    17    24    25    1
    18    25    26    1
    19    26    27    1
    20    27    28    1
    21     5     6   ar
    22    14    15   ar
    23    15    16   ar
    24    16    17   ar
    25    17    18    1
    26    17    12   ar
    27     6     1   ar
    28    28    24    1
    29     7    10    1
    30    22    23    1
@<TRIPOS>MOLECULE
*****
 28 30 0 0 0
SMALL
GASTEIGER

@<TRIPOS>ATOM
      1 C          -7.7419  -19.5967   20.3855 C.ar    1  UNL1        0.0550
      2 C          -8.5928  -19.9118   19.1910 C.ar    1  UNL1        0.0046
      3 C         -10.0879  -19.8581   19.3001 C.ar    1  UNL1        0.0015
      4 C         -10.7320  -19.4893   20.6035 C.ar    1  UNL1        0.0199
      5 C          -9.8811  -19.1742   21.7980 C.ar    1  UNL1        0.1221
      6 C          -8.3861  -19.2279   21.6890 C.ar    1  UNL1        0.0244
      7 N          -5.4412  -18.3898   20.3847 N.am    1  UNL1       -0.2804
      8 C          -6.2468  -19.6504   20.2765 C.2     1  UNL1        0.2495
      9 O          -5.5574  -20.9648   20.0593 O.2     1  UNL1       -0.2698
     10 H          -5.8936  -17.5271   20.5272 H       1  UNL1        0.1552
     11 C          -1.1072  -17.7517   17.5901 C.3     1  UNL1        0.0334
     12 C          -1.7791  -18.1245   18.8784 C.ar    1  UNL1        0.0068
     13 C          -3.2741  -18.0708   18.9874 C.ar    1  UNL1        0.0126
     14 C          -3.9460  -18.4436   20.2757 C.ar    1  UNL1        0.0504
     15 C          -3.1229  -18.8701   21.4548 C.ar    1  UNL1        0.0170
     16 C          -1.6279  -18.9238   21.3458 C.ar    1  UNL1        0.0306
     17 C          -0.9560  -18.5511   20.0575 C.ar    1  UNL1        0.1362
     18 F           0.5392  -18.6048   19.9485 F       1  UNL1       -0.2045
     19 S         -10.5253  -18.8054   23.1014 S.O2    1  UNL1        0.0603
     20 O         -10.2859  -17.3538   22.8090 O.2     1  UNL1       -0.1530
     21 O         -10.7646  -20.2569   23.3938 O.2     1  UNL1       -0.1530
     22 N         -11.1694  -18.4365   24.4049 N.3     1  UNL1       -0.1782
     23 H         -10.8605  -17.4905   24.6288 H       1  UNL1        0.1488
     24 C         -12.6640  -18.4453   24.5319 C.3     1  UNL1        0.1075
     25 C         -13.6441  -18.1673   23.4308 C.3     1  UNL1        0.0520
     26 C         -15.0267  -18.2838   24.0006 C.3     1  UNL1        0.1437
     27 O         -14.9013  -18.6338   25.4538 O.3     1  UNL1       -0.3522
     28 C         -13.4410  -18.7336   25.7821 C.3     1  UNL1        0.1595
@<TRIPOS>BOND
     1    11    12    1
     2    12    13   ar
     3    13    14   ar
     4    14     7    1
     5     7     8   am
     6     8     9    2
     7     8     1    1
     8     1     2   ar
     9     2     3   ar
    10     3     4   ar
    11     4     5   ar
    12     5    19    1
    13    19    20    2
    14    19    21    2
    15    19    22    1
    16    24    22    1
    17    24    25    1
    18    25    26    1
    19    26    27    1
    20    27    28    1
    21     5     6   ar
    22    14    15   ar
    23    15    16   ar
    24    16    17   ar
    25    17    18    1
    26    17    12   ar
    27     6     1   ar
    28    28    24    1
    29     7    10    1
    30    22    23    1
@<TRIPOS>MOLECULE
*****
 28 30 0 0 0
SMALL
GASTEIGER

@<TRIPOS>ATOM
      1 C          -7.4545  -19.5280   19.7870 C.ar    1  UNL1        0.0550
      2 C          -7.9296  -20.4439   18.6982 C.ar    1  UNL1        0.0046
      3 C          -9.3963  -20.5673   18.4087 C.ar    1  UNL1        0.0015
      4 C         -10.3878  -19.7747   19.2079 C.ar    1  UNL1        0.0199
      5 C          -9.9127  -18.8589   20.2967 C.ar    1  UNL1        0.1221
      6 C          -8.4461  -18.7355   20.5862 C.ar    1  UNL1        0.0244
      7 N          -5.1676  -18.3693   19.3658 N.am    1  UNL1       -0.2804
      8 C          -5.9879  -19.4046   20.0765 C.2     1  UNL1        0.2495
      9 O          -5.3416  -20.3167   21.0768 O.2     1  UNL1       -0.2698
     10 H          -5.5918  -17.7707   18.7093 H       1  UNL1        0.1552
     11 C          -1.2572  -18.1598   22.7811 C.3     1  UNL1        0.0334
     12 C          -1.7458  -18.1412   21.3630 C.ar    1  UNL1        0.0068
     13 C          -3.2123  -18.2645   21.0734 C.ar    1  UNL1        0.0126
     14 C          -3.7010  -18.2459   19.6554 C.ar    1  UNL1        0.0504
     15 C          -2.7230  -18.1039   18.5269 C.ar    1  UNL1        0.0170
     16 C          -1.2565  -17.9806   18.8165 C.ar    1  UNL1        0.0306
     17 C          -0.7678  -17.9992   20.2346 C.ar    1  UNL1        0.1362
     18 F           0.6988  -17.8759   20.5242 F       1  UNL1       -0.2045
     19 S         -10.9041  -18.0663   21.0959 S.O2    1  UNL1        0.0603
     20 O          -9.9922  -16.8765   21.0474 O.2     1  UNL1       -0.1530
     21 O         -11.8161  -19.2562   21.1445 O.2     1  UNL1       -0.1530
     22 N         -11.8957  -17.2738   21.8952 N.3     1  UNL1       -0.1782
     23 H         -12.7019  -17.1155   21.2908 H       1  UNL1        0.1488
     24 C         -12.4245  -17.8199   23.1883 C.3     1  UNL1        0.1075
     25 C         -13.8501  -17.7643   23.6515 C.3     1  UNL1        0.0520
     26 C         -13.9272  -18.4276   24.9948 C.3     1  UNL1        0.1437
     27 O         -12.5493  -18.8931   25.3616 O.3     1  UNL1       -0.3522
     28 C         -11.6206  -18.5175   24.2452 C.3     1  UNL1        0.1595
@<TRIPOS>BOND
     1    11    12    1
     2    12    13   ar
     3    13    14   ar
     4    14     7    1
     5     7     8   am
     6     8     9    2
     7     8     1    1
     8     1     2   ar
     9     2     3   ar
    10     3     4   ar
    11     4     5   ar
    12     5    19    1
    13    19    20    2
    14    19    21    2
    15    19    22    1
    16    24    22    1
    17    24    25    1
    18    25    26    1
    19    26    27    1
    20    27    28    1
    21     5     6   ar
    22    14    15   ar
    23    15    16   ar
    24    16    17   ar
    25    17    18    1
    26    17    12   ar
    27     6     1   ar
    28    28    24    1
    29     7    10    1
    30    22    23    1
@<TRIPOS>MOLECULE
*****
 28 30 0 0 0
SMALL
GASTEIGER

@<TRIPOS>ATOM
      1 C           7.8718   -9.9609   27.6313 C.ar    1  UNL1        0.0550
      2 C           9.2797  -10.4610   27.7640 C.ar    1  UNL1        0.0046
      3 C           9.5360  -11.9014   28.0953 C.ar    1  UNL1        0.0015
      4 C           8.3843  -12.8416   28.2938 C.ar    1  UNL1        0.0199
      5 C           6.9763  -12.3416   28.1611 C.ar    1  UNL1        0.1221
      6 C           6.7201  -10.9013   27.8299 C.ar    1  UNL1        0.0244
      7 N           7.9659   -7.4495   28.2900 N.am    1  UNL1       -0.2804
      8 C           7.6155   -8.5206   27.3001 C.2     1  UNL1        0.2495
      9 O           7.0088   -8.1513   25.9788 O.2     1  UNL1       -0.2698
     10 H           8.3640   -7.6919   29.1572 H       1  UNL1        0.1552
     11 C           9.3598   -3.0746   25.8575 C.3     1  UNL1        0.0334
     12 C           8.4065   -3.8217   26.7425 C.ar    1  UNL1        0.0068
     13 C           8.6628   -5.2620   27.0738 C.ar    1  UNL1        0.0126
     14 C           7.7095   -6.0091   27.9587 C.ar    1  UNL1        0.0504
     15 C           6.5000   -5.3160   28.5124 C.ar    1  UNL1        0.0170
     16 C           6.2438   -3.8757   28.1810 C.ar    1  UNL1        0.0306
     17 C           7.1970   -3.1285   27.2961 C.ar    1  UNL1        0.1362
     18 F           6.9407   -1.6882   26.9648 F       1  UNL1       -0.2045
     19 S           5.8246  -13.2819   28.3597 S.O2    1  UNL1        0.0603
     20 O           5.9910  -13.1717   29.8463 O.2     1  UNL1       -0.1530
     21 O           5.6583  -13.3921   26.8730 O.2     1  UNL1       -0.1530
     22 N           4.6729  -14.2222   28.5582 N.3     1  UNL1       -0.1782
     23 H           4.8035  -14.6592   29.4706 H       1  UNL1        0.1488
     24 C           3.2661  -13.7027   28.5243 C.3     1  UNL1        0.1075
     25 C           2.0426  -14.4935   28.1670 C.3     1  UNL1        0.0520
     26 C           0.8562  -13.5807   28.2636 C.3     1  UNL1        0.1437
     27 O           1.3465  -12.2258   28.6806 O.3     1  UNL1       -0.3522
     28 C           2.8359  -12.3013   28.8417 C.3     1  UNL1        0.1595
@<TRIPOS>BOND
     1    11    12    1
     2    12    13   ar
     3    13    14   ar
     4    14     7    1
     5     7     8   am
     6     8     9    2
     7     8     1    1
     8     1     2   ar
     9     2     3   ar
    10     3     4   ar
    11     4     5   ar
    12     5    19    1
    13    19    20    2
    14    19    21    2
    15    19    22    1
    16    24    22    1
    17    24    25    1
    18    25    26    1
    19    26    27    1
    20    27    28    1
    21     5     6   ar
    22    14    15   ar
    23    15    16   ar
    24    16    17   ar
    25    17    18    1
    26    17    12   ar
    27     6     1   ar
    28    28    24    1
    29     7    10    1
    30    22    23    1
@<TRIPOS>MOLECULE
*****
 28 30 0 0 0
SMALL
GASTEIGER

@<TRIPOS>ATOM
      1 C           1.4789    1.9550   19.2690 C.ar    1  UNL1        0.0550
      2 C           2.2714    3.2060   19.0301 C.ar    1  UNL1        0.0046
      3 C           3.6317    3.1238   18.4031 C.ar    1  UNL1        0.0015
      4 C           4.1994    1.7908   18.0151 C.ar    1  UNL1        0.0199
      5 C           3.4069    0.5398   18.2540 C.ar    1  UNL1        0.1221
      6 C           2.0467    0.6219   18.8809 C.ar    1  UNL1        0.0244
      7 N          -0.6416    3.3299   19.8716 N.am    1  UNL1       -0.2804
      8 C           0.1188    2.0371   19.8960 C.2     1  UNL1        0.2495
      9 O          -0.4812    0.8263   20.5474 O.2     1  UNL1       -0.2698
     10 H          -0.2479    4.1245   19.4441 H       1  UNL1        0.1552
     11 C          -5.8160    3.4005   19.4024 C.3     1  UNL1        0.0334
     12 C          -4.5890    3.4472   20.2639 C.ar    1  UNL1        0.0068
     13 C          -3.2288    3.3652   19.6370 C.ar    1  UNL1        0.0126
     14 C          -2.0018    3.4119   20.4986 C.ar    1  UNL1        0.0504
     15 C          -2.1350    3.5406   21.9871 C.ar    1  UNL1        0.0170
     16 C          -3.4952    3.6227   22.6140 C.ar    1  UNL1        0.0306
     17 C          -4.7222    3.5760   21.7524 C.ar    1  UNL1        0.1362
     18 F          -6.0825    3.6580   22.3794 F       1  UNL1       -0.2045
     19 S           3.9746   -0.7932   17.8660 S.O2    1  UNL1        0.0603
     20 O           4.8307   -0.1271   16.8299 O.2     1  UNL1       -0.1530
     21 O           3.1186   -1.4594   18.9020 O.2     1  UNL1       -0.1530
     22 N           4.5424   -2.1263   17.4779 N.3     1  UNL1       -0.1782
     23 H           5.2768   -1.9457   16.7934 H       1  UNL1        0.1488
     24 C           5.1367   -3.0218   18.5243 C.3     1  UNL1        0.1075
     25 C           6.2722   -2.6742   19.4408 C.3     1  UNL1        0.0520
     26 C           6.5370   -3.8597   20.3209 C.3     1  UNL1        0.1437
     27 O           5.5652   -4.9399   19.9484 O.3     1  UNL1       -0.3522
     28 C           4.6997   -4.4220   18.8381 C.3     1  UNL1        0.1595
@<TRIPOS>BOND
     1    11    12    1
     2    12    13   ar
     3    13    14   ar
     4    14     7    1
     5     7     8   am
     6     8     9    2
     7     8     1    1
     8     1     2   ar
     9     2     3   ar
    10     3     4   ar
    11     4     5   ar
    12     5    19    1
    13    19    20    2
    14    19    21    2
    15    19    22    1
    16    24    22    1
    17    24    25    1
    18    25    26    1
    19    26    27    1
    20    27    28    1
    21     5     6   ar
    22    14    15   ar
    23    15    16   ar
    24    16    17   ar
    25    17    18    1
    26    17    12   ar
    27     6     1   ar
    28    28    24    1
    29     7    10    1
    30    22    23    1
@<TRIPOS>MOLECULE
*****
 28 30 0 0 0
SMALL
GASTEIGER

@<TRIPOS>ATOM
      1 C          -7.4748  -19.5121   20.4086 C.ar    1  UNL1        0.0550
      2 C          -8.4251  -19.9794   19.3463 C.ar    1  UNL1        0.0046
      3 C          -9.9038  -19.9488   19.5967 C.ar    1  UNL1        0.0015
      4 C         -10.4321  -19.4509   20.9093 C.ar    1  UNL1        0.0199
      5 C          -9.4817  -18.9836   21.9716 C.ar    1  UNL1        0.1221
      6 C          -8.0031  -19.0142   21.7212 C.ar    1  UNL1        0.0244
      7 N          -5.1309  -18.4148   20.6371 N.am    1  UNL1       -0.2804
      8 C          -5.9961  -19.5427   20.1582 C.2     1  UNL1        0.2495
      9 O          -5.3827  -20.7012   19.4290 O.2     1  UNL1       -0.2698
     10 H          -5.5335  -17.6545   21.1157 H       1  UNL1        0.1552
     11 C          -1.0936  -17.7353   17.4373 C.3     1  UNL1        0.0334
     12 C          -1.6336  -18.1057   18.7868 C.ar    1  UNL1        0.0068
     13 C          -3.1122  -18.0751   19.0372 C.ar    1  UNL1        0.0126
     14 C          -3.6522  -18.4455   20.3867 C.ar    1  UNL1        0.0504
     15 C          -2.7136  -18.8465   21.4858 C.ar    1  UNL1        0.0170
     16 C          -1.2350  -18.8771   21.2354 C.ar    1  UNL1        0.0306
     17 C          -0.6950  -18.5067   19.8859 C.ar    1  UNL1        0.1362
     18 F           0.7837  -18.5373   19.6355 F       1  UNL1       -0.2045
     19 S         -10.0099  -18.4856   23.2842 S.O2    1  UNL1        0.0603
     20 O         -10.7424  -17.3870   22.5726 O.2     1  UNL1       -0.1530
     21 O          -9.2775  -19.5843   23.9957 O.2     1  UNL1       -0.1530
     22 N         -10.5382  -17.9877   24.5968 N.3     1  UNL1       -0.1782
     23 H         -10.8450  -18.8073   25.1208 H       1  UNL1        0.1488
     24 C          -9.6504  -17.1966   25.5111 C.3     1  UNL1        0.1075
     25 C          -9.0101  -15.8775   25.1945 C.3     1  UNL1        0.0520
     26 C          -8.2109  -15.4514   26.3903 C.3     1  UNL1        0.1437
     27 O          -8.3573  -16.5070   27.4458 O.3     1  UNL1       -0.3522
     28 C          -9.2469  -17.5856   26.9024 C.3     1  UNL1        0.1595
@<TRIPOS>BOND
     1    11    12    1
     2    12    13   ar
     3    13    14   ar
     4    14     7    1
     5     7     8   am
     6     8     9    2
     7     8     1    1
     8     1     2   ar
     9     2     3   ar
    10     3     4   ar
    11     4     5   ar
    12     5    19    1
    13    19    20    2
    14    19    21    2
    15    19    22    1
    16    24    22    1
    17    24    25    1
    18    25    26    1
    19    26    27    1
    20    27    28    1
    21     5     6   ar
    22    14    15   ar
    23    15    16   ar
    24    16    17   ar
    25    17    18    1
    26    17    12   ar
    27     6     1   ar
    28    28    24    1
    29     7    10    1
    30    22    23    1
@<TRIPOS>MOLECULE
*****
 28 30 0 0 0
SMALL
GASTEIGER

@<TRIPOS>ATOM
      1 C           7.1852   -4.3296   22.9720 C.ar    1  UNL1        0.0550
      2 C           8.3576   -5.1265   22.4816 C.ar    1  UNL1        0.0046
      3 C           9.0269   -6.1136   23.3914 C.ar    1  UNL1        0.0015
      4 C           8.5238   -6.3038   24.7917 C.ar    1  UNL1        0.0199
      5 C           7.3515   -5.5069   25.2821 C.ar    1  UNL1        0.1221
      6 C           6.6822   -4.5198   24.3723 C.ar    1  UNL1        0.0244
      7 N           5.5595   -3.8209   21.0103 N.am    1  UNL1       -0.2804
      8 C           6.5159   -3.3426   22.0622 C.2     1  UNL1        0.2495
      9 O           6.8031   -1.8772   22.2043 O.2     1  UNL1       -0.2698
     10 H           5.3711   -4.7827   20.9171 H       1  UNL1        0.1552
     11 C           1.6134   -0.5976   19.9912 C.3     1  UNL1        0.0334
     12 C           2.9172   -1.2222   19.5910 C.ar    1  UNL1        0.0068
     13 C           3.5865   -2.2093   20.5007 C.ar    1  UNL1        0.0126
     14 C           4.8902   -2.8338   20.1005 C.ar    1  UNL1        0.0504
     15 C           5.5247   -2.4712   18.7906 C.ar    1  UNL1        0.0170
     16 C           4.8554   -1.4842   17.8809 C.ar    1  UNL1        0.0306
     17 C           3.5516   -0.8596   18.2811 C.ar    1  UNL1        0.1362
     18 F           2.8823    0.1275   17.3712 F       1  UNL1       -0.2045
     19 S           6.8484   -5.6970   26.6824 S.O2    1  UNL1        0.0603
     20 O           6.8615   -4.2114   26.8888 O.2     1  UNL1       -0.1530
     21 O           6.8353   -7.1826   26.4759 O.2     1  UNL1       -0.1530
     22 N           6.3453   -5.8871   28.0827 N.3     1  UNL1       -0.1782
     23 H           5.8367   -6.7712   28.0954 H       1  UNL1        0.1488
     24 C           7.3128   -5.9277   29.2282 C.3     1  UNL1        0.1075
     25 C           8.7846   -6.2008   29.1300 C.3     1  UNL1        0.0520
     26 C           9.3599   -6.1441   30.5141 C.3     1  UNL1        0.1437
     27 O           8.2438   -5.8361   31.4678 O.3     1  UNL1       -0.3522
     28 C           6.9787   -5.7023   30.6730 C.3     1  UNL1        0.1595
@<TRIPOS>BOND
     1    11    12    1
     2    12    13   ar
     3    13    14   ar
     4    14     7    1
     5     7     8   am
     6     8     9    2
     7     8     1    1
     8     1     2   ar
     9     2     3   ar
    10     3     4   ar
    11     4     5   ar
    12     5    19    1
    13    19    20    2
    14    19    21    2
    15    19    22    1
    16    24    22    1
    17    24    25    1
    18    25    26    1
    19    26    27    1
    20    27    28    1
    21     5     6   ar
    22    14    15   ar
    23    15    16   ar
    24    16    17   ar
    25    17    18    1
    26    17    12   ar
    27     6     1   ar
    28    28    24    1
    29     7    10    1
    30    22    23    1
