@<TRIPOS>MOLECULE
*****
 22 24 0 0 0
SMALL
GASTEIGER

@<TRIPOS>ATOM
      1 C          -8.7180  -18.8092   21.5639 C.ar    1  UNL1        0.0428
      2 C          -9.2518  -19.5871   20.3978 C.ar    1  UNL1        0.0077
      3 C         -10.4029  -19.0488   19.6008 C.ar    1  UNL1        0.0006
      4 C         -11.0201  -17.7325   19.9699 C.ar    1  UNL1        0.0013
      5 C         -10.4864  -16.9545   21.1360 C.ar    1  UNL1        0.0150
      6 C          -9.3353  -17.4928   21.9330 C.ar    1  UNL1        0.0540
      7 N          -8.8015  -16.7148   23.0991 N.pl3   1  UNL1       -0.3043
      8 C          -7.8386  -15.5876   22.8710 C.3     1  UNL1        0.1079
      9 C          -7.3048  -14.8096   24.0371 C.3     1  UNL1        0.0903
     10 N          -7.7340  -15.1588   25.4313 N.3     1  UNL1       -0.2946
     11 C          -8.6970  -16.2861   25.6595 C.3     1  UNL1        0.0903
     12 C          -9.2307  -17.0641   24.4933 C.3     1  UNL1        0.1079
     13 H          -8.1621  -14.3214   25.8261 H       1  UNL1        0.1233
     14 S          -7.5670  -19.3475   22.3609 S.3     1  UNL1       -0.0848
     15 CL         -2.5328  -18.1581   21.8684 Cl      1  UNL1       -0.0813
     16 C          -3.7208  -18.9759   21.4560 C.ar    1  UNL1        0.0687
     17 C          -3.5797  -20.0166   20.3851 C.ar    1  UNL1        0.0123
     18 C          -4.7677  -20.8344   19.9728 C.ar    1  UNL1        0.0014
     19 C          -6.0967  -20.6113   20.6314 C.ar    1  UNL1        0.0074
     20 C          -6.2378  -19.5706   21.7023 C.ar    1  UNL1        0.0409
     21 C          -5.0498  -18.7528   22.1146 C.ar    1  UNL1        0.0741
     22 CL         -5.1910  -17.7120   23.1856 Cl      1  UNL1       -0.0808
@<TRIPOS>BOND
     1    15    16    1
     2    16    17   ar
     3    17    18   ar
     4    18    19   ar
     5    19    20   ar
     6    20    14    1
     7    14     1    1
     8     1     2   ar
     9     2     3   ar
    10     3     4   ar
    11     4     5   ar
    12     5     6   ar
    13     6     7    1
    14     7     8    1
    15     8     9    1
    16     9    10    1
    17    10    11    1
    18    11    12    1
    19    20    21   ar
    20    21    22    1
    21    21    16   ar
    22     6     1   ar
    23    12     7    1
    24    10    13    1
@<TRIPOS>MOLECULE
*****
 22 24 0 0 0
SMALL
GASTEIGER

@<TRIPOS>ATOM
      1 C          -7.2122  -16.1318   24.7404 C.ar    1  UNL1        0.0428
      2 C          -6.1741  -15.4222   25.5583 C.ar    1  UNL1        0.0077
      3 C          -6.4110  -15.1734   27.0185 C.ar    1  UNL1        0.0006
      4 C          -7.6859  -15.6341   27.6607 C.ar    1  UNL1        0.0013
      5 C          -8.7239  -16.3436   26.8427 C.ar    1  UNL1        0.0150
      6 C          -8.4871  -16.5925   25.3826 C.ar    1  UNL1        0.0540
      7 N          -9.5251  -17.3020   24.5647 N.pl3   1  UNL1       -0.3043
      8 C         -10.3091  -16.5491   23.5311 C.3     1  UNL1        0.1079
      9 C         -11.3471  -17.2587   22.7131 C.3     1  UNL1        0.0903
     10 N         -11.6012  -18.7211   22.9288 N.3     1  UNL1       -0.2946
     11 C         -10.8171  -19.4742   23.9625 C.3     1  UNL1        0.0903
     12 C          -9.7791  -18.7646   24.7804 C.3     1  UNL1        0.1079
     13 H         -11.4320  -19.1842   22.0359 H       1  UNL1        0.1233
     14 S          -6.9753  -16.3806   23.2803 S.3     1  UNL1       -0.0848
     15 CL         -6.0494  -20.8194   20.7426 Cl      1  UNL1       -0.0813
     16 C          -5.5593  -19.6744   21.5786 C.ar    1  UNL1        0.0687
     17 C          -4.1163  -19.6039   21.9819 C.ar    1  UNL1        0.0123
     18 C          -3.6262  -18.4590   22.8179 C.ar    1  UNL1        0.0014
     19 C          -4.5792  -17.3846   23.2507 C.ar    1  UNL1        0.0074
     20 C          -6.0222  -17.4551   22.8475 C.ar    1  UNL1        0.0409
     21 C          -6.5123  -18.6000   22.0114 C.ar    1  UNL1        0.0741
     22 CL         -7.9554  -18.6705   21.6082 Cl      1  UNL1       -0.0808
@<TRIPOS>BOND
     1    15    16    1
     2    16    17   ar
     3    17    18   ar
     4    18    19   ar
     5    19    20   ar
     6    20    14    1
     7    14     1    1
     8     1     2   ar
     9     2     3   ar
    10     3     4   ar
    11     4     5   ar
    12     5     6   ar
    13     6     7    1
    14     7     8    1
    15     8     9    1
    16     9    10    1
    17    10    11    1
    18    11    12    1
    19    20    21   ar
    20    21    22    1
    21    21    16   ar
    22     6     1   ar
    23    12     7    1
    24    10    13    1
@<TRIPOS>MOLECULE
*****
 22 24 0 0 0
SMALL
GASTEIGER

@<TRIPOS>ATOM
      1 C          -9.9754  -16.9046   22.4474 C.ar    1  UNL1        0.0428
      2 C         -11.2342  -16.1455   22.7459 C.ar    1  UNL1        0.0077
      3 C         -12.5685  -16.7469   22.4172 C.ar    1  UNL1        0.0006
      4 C         -12.6440  -18.1074   21.7901 C.ar    1  UNL1        0.0013
      5 C         -11.3852  -18.8665   21.4915 C.ar    1  UNL1        0.0150
      6 C         -10.0509  -18.2651   21.8202 C.ar    1  UNL1        0.0540
      7 N          -8.7921  -19.0242   21.5216 N.pl3   1  UNL1       -0.3043
      8 C          -8.0564  -19.7212   22.6275 C.3     1  UNL1        0.1079
      9 C          -6.7976  -20.4803   22.3290 C.3     1  UNL1        0.0903
     10 N          -6.2744  -20.5425   20.9246 N.3     1  UNL1       -0.2946
     11 C          -7.0101  -19.8455   19.8186 C.3     1  UNL1        0.0903
     12 C          -8.2689  -19.0864   20.1171 C.3     1  UNL1        0.1079
     13 H          -6.2280  -21.5294   20.6711 H       1  UNL1        0.1233
     14 S          -8.6411  -16.3032   22.7760 S.3     1  UNL1       -0.0848
     15 CL         -5.0918  -14.8756   26.2923 Cl      1  UNL1       -0.0813
     16 C          -6.4209  -15.4880   25.9629 C.ar    1  UNL1        0.0687
     17 C          -7.3044  -15.9989   27.0621 C.ar    1  UNL1        0.0123
     18 C          -8.6335  -16.6113   26.7326 C.ar    1  UNL1        0.0014
     19 C          -9.0790  -16.7128   25.3040 C.ar    1  UNL1        0.0074
     20 C          -8.1955  -16.2018   24.2048 C.ar    1  UNL1        0.0409
     21 C          -6.8665  -15.5894   24.5342 C.ar    1  UNL1        0.0741
     22 CL         -5.9830  -15.0784   23.4349 Cl      1  UNL1       -0.0808
@<TRIPOS>BOND
     1    15    16    1
     2    16    17   ar
     3    17    18   ar
     4    18    19   ar
     5    19    20   ar
     6    20    14    1
     7    14     1    1
     8     1     2   ar
     9     2     3   ar
    10     3     4   ar
    11     4     5   ar
    12     5     6   ar
    13     6     7    1
    14     7     8    1
    15     8     9    1
    16     9    10    1
    17    10    11    1
    18    11    12    1
    19    20    21   ar
    20    21    22    1
    21    21    16   ar
    22     6     1   ar
    23    12     7    1
    24    10    13    1
@<TRIPOS>MOLECULE
*****
 22 24 0 0 0
SMALL
GASTEIGER

@<TRIPOS>ATOM
      1 C          -7.1996  -16.0450   24.6644 C.ar    1  UNL1        0.0428
      2 C          -6.0796  -15.3696   25.3988 C.ar    1  UNL1        0.0077
      3 C          -6.1823  -15.1419   26.8779 C.ar    1  UNL1        0.0006
      4 C          -7.4050  -15.5895   27.6225 C.ar    1  UNL1        0.0013
      5 C          -8.5251  -16.2649   26.8881 C.ar    1  UNL1        0.0150
      6 C          -8.4224  -16.4926   25.4091 C.ar    1  UNL1        0.0540
      7 N          -9.5425  -17.1680   24.6747 N.pl3   1  UNL1       -0.3043
      8 C          -9.9054  -18.5864   25.0008 C.3     1  UNL1        0.1079
      9 C         -11.0255  -19.2618   24.2665 C.3     1  UNL1        0.0903
     10 N         -11.7826  -18.5188   23.2060 N.3     1  UNL1       -0.2946
     11 C         -11.4197  -17.1004   22.8798 C.3     1  UNL1        0.0903
     12 C         -10.2996  -16.4250   23.6142 C.3     1  UNL1        0.1079
     13 H         -12.7617  -18.5140   23.4919 H       1  UNL1        0.1233
     14 S          -7.0970  -16.2728   23.1854 S.3     1  UNL1       -0.0848
     15 CL         -3.2845  -19.6579   22.1824 Cl      1  UNL1       -0.0813
     16 C          -4.7401  -19.2965   22.1595 C.ar    1  UNL1        0.0687
     17 C          -5.7451  -20.2663   21.6124 C.ar    1  UNL1        0.0123
     18 C          -7.2008  -19.9049   21.5895 C.ar    1  UNL1        0.0014
     19 C          -7.6514  -18.5738   22.1138 C.ar    1  UNL1        0.0074
     20 C          -6.6464  -17.6040   22.6610 C.ar    1  UNL1        0.0409
     21 C          -5.1907  -17.9654   22.6839 C.ar    1  UNL1        0.0741
     22 CL         -4.1857  -16.9955   23.2311 Cl      1  UNL1       -0.0808
@<TRIPOS>BOND
     1    15    16    1
     2    16    17   ar
     3    17    18   ar
     4    18    19   ar
     5    19    20   ar
     6    20    14    1
     7    14     1    1
     8     1     2   ar
     9     2     3   ar
    10     3     4   ar
    11     4     5   ar
    12     5     6   ar
    13     6     7    1
    14     7     8    1
    15     8     9    1
    16     9    10    1
    17    10    11    1
    18    11    12    1
    19    20    21   ar
    20    21    22    1
    21    21    16   ar
    22     6     1   ar
    23    12     7    1
    24    10    13    1
@<TRIPOS>MOLECULE
*****
 22 24 0 0 0
SMALL
GASTEIGER

@<TRIPOS>ATOM
      1 C          -8.9161  -18.6930   21.6010 C.ar    1  UNL1        0.0428
      2 C          -9.5116  -19.3854   20.4111 C.ar    1  UNL1        0.0077
      3 C         -10.5752  -18.7045   19.6016 C.ar    1  UNL1        0.0006
      4 C         -11.0432  -17.3311   19.9822 C.ar    1  UNL1        0.0013
      5 C         -10.4478  -16.6387   21.1721 C.ar    1  UNL1        0.0150
      6 C          -9.3842  -17.3196   21.9815 C.ar    1  UNL1        0.0540
      7 N          -8.7888  -16.6272   23.1715 N.pl3   1  UNL1       -0.3043
      8 C          -9.2177  -17.0131   24.5561 C.3     1  UNL1        0.1079
      9 C          -8.6223  -16.3206   25.7460 C.3     1  UNL1        0.0903
     10 N          -7.5978  -15.2424   25.5514 N.3     1  UNL1       -0.2946
     11 C          -7.1688  -14.8565   24.1668 C.3     1  UNL1        0.0903
     12 C          -7.7643  -15.5489   22.9768 C.3     1  UNL1        0.1079
     13 H          -6.7581  -15.5411   26.0473 H       1  UNL1        0.1233
     14 S          -7.8526  -19.3740   22.4105 S.3     1  UNL1       -0.0848
     15 CL         -3.6630  -20.4457   19.5297 Cl      1  UNL1       -0.0813
     16 C          -4.3103  -19.6839   20.6481 C.ar    1  UNL1        0.0687
     17 C          -3.5101  -18.6963   21.4444 C.ar    1  UNL1        0.0123
     18 C          -4.1574  -17.9345   22.5628 C.ar    1  UNL1        0.0014
     19 C          -5.6049  -18.1604   22.8848 C.ar    1  UNL1        0.0074
     20 C          -6.4050  -19.1480   22.0885 C.ar    1  UNL1        0.0409
     21 C          -5.7578  -19.9098   20.9701 C.ar    1  UNL1        0.0741
     22 CL         -6.5580  -20.8975   20.1737 Cl      1  UNL1       -0.0808
@<TRIPOS>BOND
     1    15    16    1
     2    16    17   ar
     3    17    18   ar
     4    18    19   ar
     5    19    20   ar
     6    20    14    1
     7    14     1    1
     8     1     2   ar
     9     2     3   ar
    10     3     4   ar
    11     4     5   ar
    12     5     6   ar
    13     6     7    1
    14     7     8    1
    15     8     9    1
    16     9    10    1
    17    10    11    1
    18    11    12    1
    19    20    21   ar
    20    21    22    1
    21    21    16   ar
    22     6     1   ar
    23    12     7    1
    24    10    13    1
@<TRIPOS>MOLECULE
*****
 22 24 0 0 0
SMALL
GASTEIGER

@<TRIPOS>ATOM
      1 C          -7.3213  -16.2131   24.1616 C.ar    1  UNL1        0.0428
      2 C          -8.3503  -15.7659   25.1572 C.ar    1  UNL1        0.0077
      3 C          -7.9264  -15.3213   26.5256 C.ar    1  UNL1        0.0006
      4 C          -6.4735  -15.3239   26.8985 C.ar    1  UNL1        0.0013
      5 C          -5.4445  -15.7710   25.9029 C.ar    1  UNL1        0.0150
      6 C          -5.8684  -16.2156   24.5345 C.ar    1  UNL1        0.0540
      7 N          -4.8393  -16.6628   23.5389 N.pl3   1  UNL1       -0.3043
      8 C          -3.8362  -15.6832   23.0058 C.3     1  UNL1        0.1079
      9 C          -2.8072  -16.1304   22.0102 C.3     1  UNL1        0.0903
     10 N          -2.7813  -17.5571   21.5478 N.3     1  UNL1       -0.2946
     11 C          -3.7844  -18.5367   22.0809 C.3     1  UNL1        0.0903
     12 C          -4.8134  -18.0895   23.0765 C.3     1  UNL1        0.1079
     13 H          -1.8586  -17.9249   21.7795 H       1  UNL1        0.1233
     14 S          -7.7452  -16.6577   22.7932 S.3     1  UNL1       -0.0848
     15 CL        -12.5241  -17.9237   21.1933 Cl      1  UNL1       -0.0813
     16 C         -11.2262  -18.3080   21.8398 C.ar    1  UNL1        0.0687
     17 C         -11.0200  -19.7095   22.3327 C.ar    1  UNL1        0.0123
     18 C          -9.7221  -20.0938   22.9792 C.ar    1  UNL1        0.0014
     19 C          -8.6305  -19.0766   23.1327 C.ar    1  UNL1        0.0074
     20 C          -8.8368  -17.6750   22.6397 C.ar    1  UNL1        0.0409
     21 C         -10.1346  -17.2907   21.9933 C.ar    1  UNL1        0.0741
     22 CL        -10.3409  -15.8891   21.5003 Cl      1  UNL1       -0.0808
@<TRIPOS>BOND
     1    15    16    1
     2    16    17   ar
     3    17    18   ar
     4    18    19   ar
     5    19    20   ar
     6    20    14    1
     7    14     1    1
     8     1     2   ar
     9     2     3   ar
    10     3     4   ar
    11     4     5   ar
    12     5     6   ar
    13     6     7    1
    14     7     8    1
    15     8     9    1
    16     9    10    1
    17    10    11    1
    18    11    12    1
    19    20    21   ar
    20    21    22    1
    21    21    16   ar
    22     6     1   ar
    23    12     7    1
    24    10    13    1
@<TRIPOS>MOLECULE
*****
 22 24 0 0 0
SMALL
GASTEIGER

@<TRIPOS>ATOM
      1 C          -7.9643  -17.2500   23.4854 C.ar    1  UNL1        0.0428
      2 C          -8.6012  -16.2178   24.3680 C.ar    1  UNL1        0.0077
      3 C          -7.7646  -15.1306   24.9748 C.ar    1  UNL1        0.0006
      4 C          -6.2912  -15.0756   24.6990 C.ar    1  UNL1        0.0013
      5 C          -5.6543  -16.1078   23.8164 C.ar    1  UNL1        0.0150
      6 C          -6.4908  -17.1949   23.2096 C.ar    1  UNL1        0.0540
      7 N          -5.8540  -18.2271   22.3270 N.pl3   1  UNL1       -0.3043
      8 C          -4.4701  -18.7209   22.6284 C.3     1  UNL1        0.1079
      9 C          -3.8332  -19.7531   21.7458 C.3     1  UNL1        0.0903
     10 N          -4.5802  -20.2915   20.5617 N.3     1  UNL1       -0.2946
     11 C          -5.9642  -19.7976   20.2602 C.3     1  UNL1        0.0903
     12 C          -6.6011  -18.7655   21.1428 C.3     1  UNL1        0.1079
     13 H          -4.6495  -21.3008   20.6913 H       1  UNL1        0.1233
     14 S          -8.8008  -18.3371   22.8785 S.3     1  UNL1       -0.0848
     15 CL        -13.8941  -18.0992   23.8795 Cl      1  UNL1       -0.0813
     16 C         -12.7476  -17.9240   22.9283 C.ar    1  UNL1        0.0687
     17 C         -13.0012  -17.4549   21.5264 C.ar    1  UNL1        0.0123
     18 C         -11.8547  -17.2798   20.5751 C.ar    1  UNL1        0.0014
     19 C         -10.4546  -17.5738   21.0258 C.ar    1  UNL1        0.0074
     20 C         -10.2010  -18.0430   22.4278 C.ar    1  UNL1        0.0409
     21 C         -11.3475  -18.2181   23.3790 C.ar    1  UNL1        0.0741
     22 CL        -11.0938  -18.6874   24.7810 Cl      1  UNL1       -0.0808
@<TRIPOS>BOND
     1    15    16    1
     2    16    17   ar
     3    17    18   ar
     4    18    19   ar
     5    19    20   ar
     6    20    14    1
     7    14     1    1
     8     1     2   ar
     9     2     3   ar
    10     3     4   ar
    11     4     5   ar
    12     5     6   ar
    13     6     7    1
    14     7     8    1
    15     8     9    1
    16     9    10    1
    17    10    11    1
    18    11    12    1
    19    20    21   ar
    20    21    22    1
    21    21    16   ar
    22     6     1   ar
    23    12     7    1
    24    10    13    1
@<TRIPOS>MOLECULE
*****
 22 24 0 0 0
SMALL
GASTEIGER

@<TRIPOS>ATOM
      1 C          -7.3928  -16.1234   24.0045 C.ar    1  UNL1        0.0428
      2 C          -8.4807  -15.7102   24.9509 C.ar    1  UNL1        0.0077
      3 C          -8.1487  -15.3746   26.3747 C.ar    1  UNL1        0.0006
      4 C          -6.7288  -15.4520   26.8520 C.ar    1  UNL1        0.0013
      5 C          -5.6409  -15.8652   25.9056 C.ar    1  UNL1        0.0150
      6 C          -5.9728  -16.2008   24.4819 C.ar    1  UNL1        0.0540
      7 N          -4.8849  -16.6140   23.5354 N.pl3   1  UNL1       -0.3043
      8 C          -4.7693  -18.0461   23.1048 C.3     1  UNL1        0.1079
      9 C          -3.6813  -18.4593   22.1584 C.3     1  UNL1        0.0903
     10 N          -2.7090  -17.4402   21.6426 N.3     1  UNL1       -0.2946
     11 C          -2.8246  -16.0080   22.0732 C.3     1  UNL1        0.0903
     12 C          -3.9125  -15.5948   23.0196 C.3     1  UNL1        0.1079
     13 H          -2.7852  -17.4490   20.6255 H       1  UNL1        0.1233
     14 S          -7.7247  -16.4590   22.5807 S.3     1  UNL1       -0.0848
     15 CL        -11.1178  -20.3641   22.0927 Cl      1  UNL1       -0.0813
     16 C         -10.7932  -18.9038   21.9825 C.ar    1  UNL1        0.0687
     17 C         -11.8406  -17.9357   21.5180 C.ar    1  UNL1        0.0123
     18 C         -11.5160  -16.4753   21.4078 C.ar    1  UNL1        0.0014
     19 C         -10.1441  -15.9831   21.7620 C.ar    1  UNL1        0.0074
     20 C          -9.0967  -16.9512   22.2265 C.ar    1  UNL1        0.0409
     21 C          -9.4213  -18.4115   22.3367 C.ar    1  UNL1        0.0741
     22 CL         -8.3738  -19.3796   22.8012 Cl      1  UNL1       -0.0808
@<TRIPOS>BOND
     1    15    16    1
     2    16    17   ar
     3    17    18   ar
     4    18    19   ar
     5    19    20   ar
     6    20    14    1
     7    14     1    1
     8     1     2   ar
     9     2     3   ar
    10     3     4   ar
    11     4     5   ar
    12     5     6   ar
    13     6     7    1
    14     7     8    1
    15     8     9    1
    16     9    10    1
    17    10    11    1
    18    11    12    1
    19    20    21   ar
    20    21    22    1
    21    21    16   ar
    22     6     1   ar
    23    12     7    1
    24    10    13    1
@<TRIPOS>MOLECULE
*****
 22 24 0 0 0
SMALL
GASTEIGER

@<TRIPOS>ATOM
      1 C          -7.3450  -19.2525   22.2301 C.ar    1  UNL1        0.0428
      2 C          -7.2502  -20.4773   21.3693 C.ar    1  UNL1        0.0077
      3 C          -6.0375  -20.7018   20.5154 C.ar    1  UNL1        0.0006
      4 C          -4.9197  -19.7016   20.5224 C.ar    1  UNL1        0.0013
      5 C          -5.0145  -18.4769   21.3833 C.ar    1  UNL1        0.0150
      6 C          -6.2271  -18.2523   22.2371 C.ar    1  UNL1        0.0540
      7 N          -6.3219  -17.0276   23.0979 N.pl3   1  UNL1       -0.3043
      8 C          -5.1913  -16.6660   24.0149 C.3     1  UNL1        0.1079
      9 C          -5.2861  -15.4413   24.8757 C.3     1  UNL1        0.0903
     10 N          -6.5115  -14.5781   24.8196 N.3     1  UNL1       -0.2946
     11 C          -7.6422  -14.9397   23.9025 C.3     1  UNL1        0.0903
     12 C          -7.5474  -16.1644   23.0417 C.3     1  UNL1        0.1079
     13 H          -6.2017  -13.6441   24.5510 H       1  UNL1        0.1233
     14 S          -8.5576  -19.0280   23.0840 S.3     1  UNL1       -0.0848
     15 CL        -13.6125  -17.8995   23.5016 Cl      1  UNL1       -0.0813
     16 C         -12.3749  -18.0270   22.6638 C.ar    1  UNL1        0.0687
     17 C         -12.4270  -17.7177   21.1970 C.ar    1  UNL1        0.0123
     18 C         -11.1893  -17.8452   20.3591 C.ar    1  UNL1        0.0014
     19 C          -9.8996  -18.2819   20.9881 C.ar    1  UNL1        0.0074
     20 C          -9.8474  -18.5912   22.4549 C.ar    1  UNL1        0.0409
     21 C         -11.0851  -18.4637   23.2928 C.ar    1  UNL1        0.0741
     22 CL        -11.0329  -18.7730   24.7596 Cl      1  UNL1       -0.0808
@<TRIPOS>BOND
     1    15    16    1
     2    16    17   ar
     3    17    18   ar
     4    18    19   ar
     5    19    20   ar
     6    20    14    1
     7    14     1    1
     8     1     2   ar
     9     2     3   ar
    10     3     4   ar
    11     4     5   ar
    12     5     6   ar
    13     6     7    1
    14     7     8    1
    15     8     9    1
    16     9    10    1
    17    10    11    1
    18    11    12    1
    19    20    21   ar
    20    21    22    1
    21    21    16   ar
    22     6     1   ar
    23    12     7    1
    24    10    13    1
