@<TRIPOS>MOLECULE
*****
 38 42 0 0 0
SMALL
GASTEIGER

@<TRIPOS>ATOM
      1 C           6.6831   -3.7388   24.1713 C.3     1  UNL1        0.0950
      2 C           6.6500   -2.2539   24.3812 C.3     1  UNL1        0.0206
      3 N           6.5631   -4.3034   22.7868 N.3     1  UNL1       -0.1790
      4 H           7.4805   -4.2111   22.3506 H       1  UNL1        0.1488
      5 S           5.5665   -3.7268   21.8254 S.O2    1  UNL1        0.0625
      6 O           4.4519   -4.3739   22.5928 O.2     1  UNL1       -0.1529
      7 O           6.6812   -3.0798   21.0581 O.2     1  UNL1       -0.1529
      8 C           4.6348   -5.0625   18.9975 C.3     1  UNL1        0.0554
      9 C           4.1417   -3.7642   19.5642 C.ar    1  UNL1        0.0986
     10 N           3.1337   -2.8519   18.9305 N.ar    1  UNL1       -0.1726
     11 N           2.9390   -1.6740   19.8387 N.ar    1  UNL1       -0.2558
     12 C           3.8266   -1.8584   21.0337 C.ar    1  UNL1        0.0756
     13 C           3.9494   -0.9164   22.1945 C.3     1  UNL1        0.0532
     14 C           4.5699   -3.1502   20.8640 C.ar    1  UNL1        0.1501
     15 C           2.0183   -0.5152   19.5947 C.3     1  UNL1        0.1048
     16 C           2.1523    0.5022   18.5007 C.3     1  UNL1        0.0243
     17 C           1.0188    1.4757   18.6318 C.3     1  UNL1        0.0021
     18 C           0.1841    1.0601   19.8069 C.3     1  UNL1        0.0021
     19 C           0.8019   -0.1705   20.4020 C.3     1  UNL1        0.0243
     20 C           6.8361   -4.6590   25.3460 C.3     1  UNL1        0.1046
     21 N           7.8665   -4.3688   26.3967 N.pl3   1  UNL1       -0.3315
     22 H           8.7766   -4.1013   26.1332 H       1  UNL1        0.1469
     23 C           7.5103   -4.4863   27.8491 C.ar    1  UNL1        0.0477
     24 C           7.6344   -5.8081   28.5473 C.ar    1  UNL1        0.0144
     25 C           7.2782   -5.9255   29.9996 C.ar    1  UNL1        0.0028
     26 C           6.7978   -4.7212   30.7538 C.ar    1  UNL1        0.0193
     27 C           6.6736   -3.3994   30.0556 C.ar    1  UNL1        0.0855
     28 C           7.0299   -3.2819   28.6033 C.ar    1  UNL1        0.0517
     29 C           6.8080   -1.8585   28.1852 C.ar    1  UNL1        0.1232
     30 N           6.3147   -1.0963   29.3792 N.ar    1  UNL1       -0.1634
     31 N           6.2316   -2.0486   30.5351 N.ar    1  UNL1       -0.2281
     32 C           5.7850   -1.7096   31.9264 C.ar    1  UNL1        0.1021
     33 C           6.5778   -0.7418   32.7538 C.ar    1  UNL1        0.0247
     34 C           6.1312   -0.4028   34.1450 C.ar    1  UNL1        0.0512
     35 C           4.8916   -1.0317   34.7089 C.ar    1  UNL1        0.2224
     36 F           4.4449   -0.6927   36.1002 F       1  UNL1       -0.1832
     37 N           4.0987   -1.9995   33.8815 N.ar    1  UNL1       -0.2149
     38 C           4.5454   -2.3384   32.4903 C.ar    1  UNL1        0.1203
@<TRIPOS>BOND
     1     8     9    1
     2     9    10   ar
     3    10    11   ar
     4    11    15    1
     5    15    16    1
     6    16    17    1
     7    17    18    1
     8    18    19    1
     9    11    12   ar
    10    12    13    1
    11    12    14   ar
    12    14     5    1
    13     5     6    2
    14     5     7    2
    15     5     3    1
    16     3     1    1
    17     1     2    1
    18     1    20    1
    19    20    21    1
    20    21    23    1
    21    23    24   ar
    22    24    25   ar
    23    25    26   ar
    24    26    27   ar
    25    27    28   ar
    26    28    29   ar
    27    29    30   ar
    28    30    31   ar
    29    31    32    1
    30    32    33   ar
    31    33    34   ar
    32    34    35   ar
    33    35    36    1
    34    35    37   ar
    35    37    38   ar
    36    14     9   ar
    37    28    23   ar
    38    38    32   ar
    39    19    15    1
    40    31    27   ar
    41     3     4    1
    42    21    22    1
@<TRIPOS>MOLECULE
*****
 38 42 0 0 0
SMALL
GASTEIGER

@<TRIPOS>ATOM
      1 C           0.9578    1.7269   24.5143 C.3     1  UNL1        0.0950
      2 C          -0.2244    1.6879   25.4366 C.3     1  UNL1        0.0206
      3 N           0.8052    2.2631   23.1216 N.3     1  UNL1       -0.1790
      4 H          -0.1939    2.3965   22.9653 H       1  UNL1        0.1488
      5 S           1.3250    1.4774   21.9544 S.O2    1  UNL1        0.0625
      6 O           0.1022    0.6096   21.9940 O.2     1  UNL1       -0.1529
      7 O           2.5477    2.3453   21.9147 O.2     1  UNL1       -0.1529
      8 C           0.7859    2.1386   18.8045 C.3     1  UNL1        0.0554
      9 C           1.5970    0.9957   19.3393 C.ar    1  UNL1        0.0986
     10 N           2.3027   -0.0440   18.5201 N.ar    1  UNL1       -0.1726
     11 N           2.9866   -0.9905   19.4616 N.ar    1  UNL1       -0.2558
     12 C           2.7036   -0.5357   20.8627 C.ar    1  UNL1        0.0756
     13 C           3.1934   -1.1931   22.1189 C.3     1  UNL1        0.0532
     14 C           1.8448    0.6918   20.7871 C.ar    1  UNL1        0.1501
     15 C           3.8091   -2.1823   19.0707 C.3     1  UNL1        0.1048
     16 C           5.1679   -2.1462   18.4364 C.3     1  UNL1        0.0243
     17 C           5.6158   -3.5611   18.2191 C.3     1  UNL1        0.0021
     18 C           4.5337   -4.4719   18.7191 C.3     1  UNL1        0.0021
     19 C           3.4171   -3.6197   19.2454 C.3     1  UNL1        0.0243
     20 C           2.2926    1.2299   24.9845 C.3     1  UNL1        0.1046
     21 N           2.4073   -0.1236   25.6209 N.pl3   1  UNL1       -0.3315
     22 H           1.8702   -0.8749   25.2799 H       1  UNL1        0.1469
     23 C           3.3403   -0.3322   26.7767 C.ar    1  UNL1        0.0477
     24 C           4.7890   -0.6302   26.5269 C.ar    1  UNL1        0.0144
     25 C           5.7220   -0.8388   27.6827 C.ar    1  UNL1        0.0028
     26 C           5.2062   -0.7496   29.0884 C.ar    1  UNL1        0.0193
     27 C           3.7575   -0.4516   29.3383 C.ar    1  UNL1        0.0855
     28 C           2.8246   -0.2430   28.1825 C.ar    1  UNL1        0.0517
     29 C           1.4575    0.0341   28.7343 C.ar    1  UNL1        0.1232
     30 N           1.5456   -0.0033   30.2312 N.ar    1  UNL1       -0.1634
     31 N           2.9671   -0.3035   30.6045 N.ar    1  UNL1       -0.2281
     32 C           3.5039   -0.4329   31.9992 C.ar    1  UNL1        0.1021
     33 C           4.1262   -1.7222   32.4467 C.ar    1  UNL1        0.0247
     34 C           4.6631   -1.8515   33.8414 C.ar    1  UNL1        0.0512
     35 C           4.5776   -0.6915   34.7885 C.ar    1  UNL1        0.2224
     36 F           5.1144   -0.8209   36.1832 F       1  UNL1       -0.1832
     37 N           3.9553    0.5978   34.3410 N.ar    1  UNL1       -0.2149
     38 C           3.4185    0.7271   32.9463 C.ar    1  UNL1        0.1203
@<TRIPOS>BOND
     1     8     9    1
     2     9    10   ar
     3    10    11   ar
     4    11    15    1
     5    15    16    1
     6    16    17    1
     7    17    18    1
     8    18    19    1
     9    11    12   ar
    10    12    13    1
    11    12    14   ar
    12    14     5    1
    13     5     6    2
    14     5     7    2
    15     5     3    1
    16     3     1    1
    17     1     2    1
    18     1    20    1
    19    20    21    1
    20    21    23    1
    21    23    24   ar
    22    24    25   ar
    23    25    26   ar
    24    26    27   ar
    25    27    28   ar
    26    28    29   ar
    27    29    30   ar
    28    30    31   ar
    29    31    32    1
    30    32    33   ar
    31    33    34   ar
    32    34    35   ar
    33    35    36    1
    34    35    37   ar
    35    37    38   ar
    36    14     9   ar
    37    28    23   ar
    38    38    32   ar
    39    19    15    1
    40    31    27   ar
    41     3     4    1
    42    21    22    1
@<TRIPOS>MOLECULE
*****
 38 42 0 0 0
SMALL
GASTEIGER

@<TRIPOS>ATOM
      1 C           7.7930   -3.5975   23.4038 C.3     1  UNL1        0.0950
      2 C           8.2949   -2.1905   23.2677 C.3     1  UNL1        0.0206
      3 N           7.3197   -4.3455   22.1928 N.3     1  UNL1       -0.1790
      4 H           8.1087   -4.3911   21.5479 H       1  UNL1        0.1488
      5 S           6.1475   -3.8364   21.4075 S.O2    1  UNL1        0.0625
      6 O           7.0740   -3.3823   20.3188 O.2     1  UNL1       -0.1529
      7 O           5.2210   -4.2905   22.4963 O.2     1  UNL1       -0.1529
      8 C           4.6351   -5.4097   18.9813 C.3     1  UNL1        0.0554
      9 C           4.2801   -4.0504   19.5071 C.ar    1  UNL1        0.0986
     10 N           3.1675   -3.1757   19.0100 N.ar    1  UNL1       -0.1726
     11 N           3.1751   -1.9119   19.8180 N.ar    1  UNL1       -0.2558
     12 C           4.2923   -2.0056   20.8144 C.ar    1  UNL1        0.0756
     13 C           4.6618   -0.9610   21.8255 C.3     1  UNL1        0.0532
     14 C           4.9752   -3.3273   20.6223 C.ar    1  UNL1        0.1501
     15 C           2.2312   -0.7572   19.6576 C.3     1  UNL1        0.1048
     16 C           2.3481    0.3429   18.6447 C.3     1  UNL1        0.0243
     17 C           1.1938    1.2801   18.8431 C.3     1  UNL1        0.0021
     18 C           0.3635    0.7591   19.9786 C.3     1  UNL1        0.0021
     19 C           1.0047   -0.5001   20.4820 C.3     1  UNL1        0.0243
     20 C           7.7645   -4.2566   24.7510 C.3     1  UNL1        0.1046
     21 N           6.4931   -4.2827   25.5464 N.pl3   1  UNL1       -0.3315
     22 H           5.8354   -5.0004   25.3998 H       1  UNL1        0.1469
     23 C           6.2238   -3.2152   26.5653 C.ar    1  UNL1        0.0477
     24 C           5.8339   -1.8364   26.1217 C.ar    1  UNL1        0.0144
     25 C           5.5646   -0.7689   27.1406 C.ar    1  UNL1        0.0028
     26 C           5.6852   -1.0804   28.6029 C.ar    1  UNL1        0.0193
     27 C           6.0750   -2.4592   29.0464 C.ar    1  UNL1        0.0855
     28 C           6.3443   -3.5266   28.0276 C.ar    1  UNL1        0.0517
     29 C           6.7079   -4.7847   28.7592 C.ar    1  UNL1        0.1232
     30 N           6.6632   -4.4947   30.2303 N.ar    1  UNL1       -0.1634
     31 N           6.2721   -3.0575   30.4077 N.ar    1  UNL1       -0.2281
     32 C           6.1071   -2.3439   31.7167 C.ar    1  UNL1        0.1021
     33 C           4.7957   -2.4019   32.4425 C.ar    1  UNL1        0.0247
     34 C           4.6306   -1.6882   33.7515 C.ar    1  UNL1        0.0512
     35 C           5.7770   -0.9165   34.3348 C.ar    1  UNL1        0.2224
     36 F           5.6120   -0.2029   35.6438 F       1  UNL1       -0.1832
     37 N           7.0884   -0.8585   33.6090 N.ar    1  UNL1       -0.2149
     38 C           7.2535   -1.5722   32.3000 C.ar    1  UNL1        0.1203
@<TRIPOS>BOND
     1     8     9    1
     2     9    10   ar
     3    10    11   ar
     4    11    15    1
     5    15    16    1
     6    16    17    1
     7    17    18    1
     8    18    19    1
     9    11    12   ar
    10    12    13    1
    11    12    14   ar
    12    14     5    1
    13     5     6    2
    14     5     7    2
    15     5     3    1
    16     3     1    1
    17     1     2    1
    18     1    20    1
    19    20    21    1
    20    21    23    1
    21    23    24   ar
    22    24    25   ar
    23    25    26   ar
    24    26    27   ar
    25    27    28   ar
    26    28    29   ar
    27    29    30   ar
    28    30    31   ar
    29    31    32    1
    30    32    33   ar
    31    33    34   ar
    32    34    35   ar
    33    35    36    1
    34    35    37   ar
    35    37    38   ar
    36    14     9   ar
    37    28    23   ar
    38    38    32   ar
    39    19    15    1
    40    31    27   ar
    41     3     4    1
    42    21    22    1
@<TRIPOS>MOLECULE
*****
 38 42 0 0 0
SMALL
GASTEIGER

@<TRIPOS>ATOM
      1 C           6.8337   -3.8774   23.9308 C.3     1  UNL1        0.0950
      2 C           7.2378   -4.9304   24.9197 C.3     1  UNL1        0.0206
      3 N           6.8501   -4.1820   22.4621 N.3     1  UNL1       -0.1790
      4 H           7.7378   -3.8345   22.0991 H       1  UNL1        0.1488
      5 S           5.7744   -3.6359   21.5708 S.O2    1  UNL1        0.0625
      6 O           6.8073   -2.8842   20.7847 O.2     1  UNL1       -0.1529
      7 O           4.7415   -4.3877   22.3568 O.2     1  UNL1       -0.1529
      8 C           4.6321   -5.0451   18.8580 C.3     1  UNL1        0.0554
      9 C           4.1736   -3.7376   19.4326 C.ar    1  UNL1        0.0986
     10 N           3.1095   -2.8482   18.8610 N.ar    1  UNL1       -0.1726
     11 N           2.9768   -1.6507   19.7547 N.ar    1  UNL1       -0.2558
     12 C           3.9590   -1.8001   20.8785 C.ar    1  UNL1        0.0756
     13 C           4.1653   -0.8301   22.0039 C.3     1  UNL1        0.0532
     14 C           4.6986   -3.0898   20.6795 C.ar    1  UNL1        0.1501
     15 C           2.0286   -0.5052   19.5589 C.3     1  UNL1        0.1048
     16 C           2.0845    0.5065   18.4528 C.3     1  UNL1        0.0243
     17 C           0.9484    1.4668   18.6451 C.3     1  UNL1        0.0021
     18 C           0.1902    1.0487   19.8701 C.3     1  UNL1        0.0021
     19 C           0.8578   -0.1701   20.4348 C.3     1  UNL1        0.0243
     20 C           6.4133   -2.5198   24.4105 C.3     1  UNL1        0.1046
     21 N           5.0089   -2.2944   24.8869 N.pl3   1  UNL1       -0.3315
     22 H           4.2495   -2.4976   24.2943 H       1  UNL1        0.1469
     23 C           4.7617   -1.7593   26.2663 C.ar    1  UNL1        0.0477
     24 C           5.5667   -2.2701   27.4243 C.ar    1  UNL1        0.0144
     25 C           5.3194   -1.7350   28.8036 C.ar    1  UNL1        0.0028
     26 C           4.2672   -0.6891   29.0248 C.ar    1  UNL1        0.0193
     27 C           3.4623   -0.1783   27.8668 C.ar    1  UNL1        0.0855
     28 C           3.7095   -0.7134   26.4875 C.ar    1  UNL1        0.0517
     29 C           2.7661   -0.0240   25.5468 C.ar    1  UNL1        0.1232
     30 N           1.9359    0.9372   26.3448 N.ar    1  UNL1       -0.1634
     31 N           2.3661    0.8418   27.7786 N.ar    1  UNL1       -0.2281
     32 C           1.7996    1.6285   28.9233 C.ar    1  UNL1        0.1021
     33 C           2.0527    3.1039   29.0174 C.ar    1  UNL1        0.0247
     34 C           1.4862    3.8906   30.1621 C.ar    1  UNL1        0.0512
     35 C           0.6667    3.2017   31.2127 C.ar    1  UNL1        0.2224
     36 F           0.1002    3.9884   32.3574 F       1  UNL1       -0.1832
     37 N           0.4136    1.7263   31.1186 N.ar    1  UNL1       -0.2149
     38 C           0.9801    0.9396   29.9739 C.ar    1  UNL1        0.1203
@<TRIPOS>BOND
     1     8     9    1
     2     9    10   ar
     3    10    11   ar
     4    11    15    1
     5    15    16    1
     6    16    17    1
     7    17    18    1
     8    18    19    1
     9    11    12   ar
    10    12    13    1
    11    12    14   ar
    12    14     5    1
    13     5     6    2
    14     5     7    2
    15     5     3    1
    16     3     1    1
    17     1     2    1
    18     1    20    1
    19    20    21    1
    20    21    23    1
    21    23    24   ar
    22    24    25   ar
    23    25    26   ar
    24    26    27   ar
    25    27    28   ar
    26    28    29   ar
    27    29    30   ar
    28    30    31   ar
    29    31    32    1
    30    32    33   ar
    31    33    34   ar
    32    34    35   ar
    33    35    36    1
    34    35    37   ar
    35    37    38   ar
    36    14     9   ar
    37    28    23   ar
    38    38    32   ar
    39    19    15    1
    40    31    27   ar
    41     3     4    1
    42    21    22    1
@<TRIPOS>MOLECULE
*****
 38 42 0 0 0
SMALL
GASTEIGER

@<TRIPOS>ATOM
      1 C           0.1748    2.1992   23.8900 C.3     1  UNL1        0.0950
      2 C           0.8502    1.0402   24.5613 C.3     1  UNL1        0.0206
      3 N           0.6518    2.6706   22.5482 N.3     1  UNL1       -0.1790
      4 H          -0.1553    3.0765   22.0747 H       1  UNL1        0.1488
      5 S           1.2730    1.6989   21.5891 S.O2    1  UNL1        0.0625
      6 O           2.6085    2.3501   21.7943 O.2     1  UNL1       -0.1529
      7 O          -0.0626    1.0476   21.3840 O.2     1  UNL1       -0.1529
      8 C           1.1856    1.8959   18.3329 C.3     1  UNL1        0.0554
      9 C           1.8539    0.8177   19.1334 C.ar    1  UNL1        0.0986
     10 N           2.5995   -0.3592   18.5776 N.ar    1  UNL1       -0.1726
     11 N           3.1005   -1.1773   19.7308 N.ar    1  UNL1       -0.2558
     12 C           2.6645   -0.5058   20.9993 C.ar    1  UNL1        0.0756
     13 C           2.9490   -0.9835   22.3924 C.3     1  UNL1        0.0532
     14 C           1.8941    0.7271   20.6301 C.ar    1  UNL1        0.1501
     15 C           3.8975   -2.4442   19.6327 C.3     1  UNL1        0.1048
     16 C           3.3915   -3.7683   19.1422 C.3     1  UNL1        0.0243
     17 C           4.5217   -4.7519   19.2143 C.3     1  UNL1        0.0021
     18 C           5.7262   -4.0357   19.7494 C.3     1  UNL1        0.0021
     19 C           5.3404   -2.6094   20.0080 C.3     1  UNL1        0.0243
     20 C          -0.9775    2.8867   24.5603 C.3     1  UNL1        0.1046
     21 N          -1.3491    2.5273   25.9684 N.pl3   1  UNL1       -0.3315
     22 H          -2.1513    1.9837   26.1424 H       1  UNL1        0.1469
     23 C          -0.4983    2.9960   27.1115 C.ar    1  UNL1        0.0477
     24 C          -0.0397    4.4230   27.1692 C.ar    1  UNL1        0.0144
     25 C           0.8110    4.8917   28.3123 C.ar    1  UNL1        0.0028
     26 C           1.2031    3.9335   29.3976 C.ar    1  UNL1        0.0193
     27 C           0.7445    2.5065   29.3399 C.ar    1  UNL1        0.0855
     28 C          -0.1062    2.0378   28.1969 C.ar    1  UNL1        0.0517
     29 C          -0.4056    0.5831   28.4079 C.ar    1  UNL1        0.1232
     30 N           0.2600    0.1529   29.6813 N.ar    1  UNL1       -0.1634
     31 N           0.9709    1.3416   30.2573 N.ar    1  UNL1       -0.2281
     32 C           1.7681    1.3618   31.5278 C.ar    1  UNL1        0.1021
     33 C           1.3760    2.2831   32.6447 C.ar    1  UNL1        0.0247
     34 C           2.1733    2.3033   33.9151 C.ar    1  UNL1        0.0512
     35 C           3.3626    1.4022   34.0687 C.ar    1  UNL1        0.2224
     36 F           4.1598    1.4225   35.3391 F       1  UNL1       -0.1832
     37 N           3.7546    0.4810   32.9518 N.ar    1  UNL1       -0.2149
     38 C           2.9574    0.4607   31.6813 C.ar    1  UNL1        0.1203
@<TRIPOS>BOND
     1     8     9    1
     2     9    10   ar
     3    10    11   ar
     4    11    15    1
     5    15    16    1
     6    16    17    1
     7    17    18    1
     8    18    19    1
     9    11    12   ar
    10    12    13    1
    11    12    14   ar
    12    14     5    1
    13     5     6    2
    14     5     7    2
    15     5     3    1
    16     3     1    1
    17     1     2    1
    18     1    20    1
    19    20    21    1
    20    21    23    1
    21    23    24   ar
    22    24    25   ar
    23    25    26   ar
    24    26    27   ar
    25    27    28   ar
    26    28    29   ar
    27    29    30   ar
    28    30    31   ar
    29    31    32    1
    30    32    33   ar
    31    33    34   ar
    32    34    35   ar
    33    35    36    1
    34    35    37   ar
    35    37    38   ar
    36    14     9   ar
    37    28    23   ar
    38    38    32   ar
    39    19    15    1
    40    31    27   ar
    41     3     4    1
    42    21    22    1
@<TRIPOS>MOLECULE
*****
 38 42 0 0 0
SMALL
GASTEIGER

@<TRIPOS>ATOM
      1 C           0.4121    2.4117   24.0781 C.3     1  UNL1        0.0950
      2 C          -0.9482    2.6392   24.6680 C.3     1  UNL1        0.0206
      3 N           0.6921    2.8157   22.6609 N.3     1  UNL1       -0.1790
      4 H          -0.1953    3.1200   22.2606 H       1  UNL1        0.1488
      5 S           1.2829    1.8254   21.7016 S.O2    1  UNL1        0.0625
      6 O           2.5672    2.6003   21.6926 O.2     1  UNL1       -0.1529
      7 O          -0.0014    1.0505   21.7106 O.2     1  UNL1       -0.1529
      8 C           1.1206    1.9773   18.4458 C.3     1  UNL1        0.0554
      9 C           1.7991    0.9050   19.2458 C.ar    1  UNL1        0.0986
     10 N           2.5221   -0.2858   18.6896 N.ar    1  UNL1       -0.1726
     11 N           3.0435   -1.0915   19.8424 N.ar    1  UNL1       -0.2558
     12 C           2.6428   -0.3987   21.1110 C.ar    1  UNL1        0.0756
     13 C           2.9562   -0.8590   22.5038 C.3     1  UNL1        0.0532
     14 C           1.8737    0.8352   20.7423 C.ar    1  UNL1        0.1501
     15 C           3.8280   -2.3663   19.7438 C.3     1  UNL1        0.1048
     16 C           3.3194   -3.6761   19.2189 C.3     1  UNL1        0.0243
     17 C           4.4358   -4.6743   19.3035 C.3     1  UNL1        0.0021
     18 C           5.6345   -3.9813   19.8808 C.3     1  UNL1        0.0021
     19 C           5.2588   -2.5548   20.1529 C.3     1  UNL1        0.0243
     20 C           1.4923    1.7803   24.9054 C.3     1  UNL1        0.1046
     21 N           1.1610    0.6522   25.8369 N.pl3   1  UNL1       -0.3315
     22 H           0.9235   -0.2318   25.4745 H       1  UNL1        0.1469
     23 C           1.1915    0.8711   27.3206 C.ar    1  UNL1        0.0477
     24 C           0.2010    1.7966   27.9627 C.ar    1  UNL1        0.0144
     25 C           0.2315    2.0154   29.4463 C.ar    1  UNL1        0.0028
     26 C           1.2525    1.3087   30.2878 C.ar    1  UNL1        0.0193
     27 C           2.2430    0.3831   29.6457 C.ar    1  UNL1        0.0855
     28 C           2.2124    0.1643   28.1621 C.ar    1  UNL1        0.0517
     29 C           3.3075   -0.7996   27.8130 C.ar    1  UNL1        0.1232
     30 N           4.0148   -1.1765   29.0810 N.ar    1  UNL1       -0.1634
     31 N           3.3569   -0.4455   30.2136 N.ar    1  UNL1       -0.2281
     32 C           3.7447   -0.5286   31.6602 C.ar    1  UNL1        0.1021
     33 C           4.2505   -1.8215   32.2280 C.ar    1  UNL1        0.0247
     34 C           4.6384   -1.9046   33.6746 C.ar    1  UNL1        0.0512
     35 C           4.5205   -0.6948   34.5534 C.ar    1  UNL1        0.2224
     36 F           4.9084   -0.7779   36.0000 F       1  UNL1       -0.1832
     37 N           4.0147    0.5981   33.9856 N.ar    1  UNL1       -0.2149
     38 C           3.6268    0.6812   32.5390 C.ar    1  UNL1        0.1203
@<TRIPOS>BOND
     1     8     9    1
     2     9    10   ar
     3    10    11   ar
     4    11    15    1
     5    15    16    1
     6    16    17    1
     7    17    18    1
     8    18    19    1
     9    11    12   ar
    10    12    13    1
    11    12    14   ar
    12    14     5    1
    13     5     6    2
    14     5     7    2
    15     5     3    1
    16     3     1    1
    17     1     2    1
    18     1    20    1
    19    20    21    1
    20    21    23    1
    21    23    24   ar
    22    24    25   ar
    23    25    26   ar
    24    26    27   ar
    25    27    28   ar
    26    28    29   ar
    27    29    30   ar
    28    30    31   ar
    29    31    32    1
    30    32    33   ar
    31    33    34   ar
    32    34    35   ar
    33    35    36    1
    34    35    37   ar
    35    37    38   ar
    36    14     9   ar
    37    28    23   ar
    38    38    32   ar
    39    19    15    1
    40    31    27   ar
    41     3     4    1
    42    21    22    1
@<TRIPOS>MOLECULE
*****
 38 42 0 0 0
SMALL
GASTEIGER

@<TRIPOS>ATOM
      1 C           8.6027   -5.7771   24.1706 C.3     1  UNL1        0.0950
      2 C           8.1958   -7.2202   24.2115 C.3     1  UNL1        0.0206
      3 N           9.0489   -5.1600   22.8781 N.3     1  UNL1       -0.1790
      4 H           9.8954   -4.6289   23.0822 H       1  UNL1        0.1488
      5 S           8.1304   -4.2400   22.1298 S.O2    1  UNL1        0.0625
      6 O           8.5885   -3.0918   22.9792 O.2     1  UNL1       -0.1529
      7 O           7.6723   -5.3883   21.2804 O.2     1  UNL1       -0.1529
      8 C           8.8518   -2.6212   19.3897 C.3     1  UNL1        0.0554
      9 C           7.5435   -2.5760   20.1220 C.ar    1  UNL1        0.0986
     10 N           6.3371   -1.7787   19.7234 N.ar    1  UNL1       -0.1726
     11 N           5.2599   -2.0300   20.7365 N.ar    1  UNL1       -0.2558
     12 C           5.8006   -2.9826   21.7613 C.ar    1  UNL1        0.0756
     13 C           5.0599   -3.5059   22.9561 C.3     1  UNL1        0.0532
     14 C           7.2119   -3.3201   21.3815 C.ar    1  UNL1        0.1501
     15 C           3.8837   -1.4334   20.7266 C.3     1  UNL1        0.1048
     16 C           2.7994   -1.7344   19.7348 C.3     1  UNL1        0.0243
     17 C           1.5957   -0.9181   20.1020 C.3     1  UNL1        0.0021
     18 C           1.9361   -0.1127   21.3209 C.3     1  UNL1        0.0021
     19 C           3.3501   -0.4311   21.7069 C.3     1  UNL1        0.0243
     20 C           8.5635   -4.9510   25.4219 C.3     1  UNL1        0.1046
     21 N           7.4774   -5.1719   26.4327 N.pl3   1  UNL1       -0.3315
     22 H           7.0890   -6.0689   26.5499 H       1  UNL1        0.1469
     23 C           6.9832   -4.0260   27.2651 C.ar    1  UNL1        0.0477
     24 C           6.5574   -2.7482   26.6049 C.ar    1  UNL1        0.0144
     25 C           6.0632   -1.6024   27.4373 C.ar    1  UNL1        0.0028
     26 C           5.9949   -1.7344   28.9299 C.ar    1  UNL1        0.0193
     27 C           6.4207   -3.0122   29.5901 C.ar    1  UNL1        0.0855
     28 C           6.9149   -4.1579   28.7577 C.ar    1  UNL1        0.0517
     29 C           7.2640   -5.2862   29.6826 C.ar    1  UNL1        0.1232
     30 N           6.9855   -4.8376   31.0866 N.ar    1  UNL1       -0.1634
     31 N           6.4643   -3.4322   31.0294 N.ar    1  UNL1       -0.2281
     32 C           6.0581   -2.5940   32.2052 C.ar    1  UNL1        0.1021
     33 C           4.6919   -2.7531   32.8035 C.ar    1  UNL1        0.0247
     34 C           4.2857   -1.9148   33.9792 C.ar    1  UNL1        0.0512
     35 C           5.2457   -0.9174   34.5567 C.ar    1  UNL1        0.2224
     36 F           4.8395   -0.0792   35.7324 F       1  UNL1       -0.1832
     37 N           6.6120   -0.7583   33.9583 N.ar    1  UNL1       -0.2149
     38 C           7.0182   -1.5965   32.7826 C.ar    1  UNL1        0.1203
@<TRIPOS>BOND
     1     8     9    1
     2     9    10   ar
     3    10    11   ar
     4    11    15    1
     5    15    16    1
     6    16    17    1
     7    17    18    1
     8    18    19    1
     9    11    12   ar
    10    12    13    1
    11    12    14   ar
    12    14     5    1
    13     5     6    2
    14     5     7    2
    15     5     3    1
    16     3     1    1
    17     1     2    1
    18     1    20    1
    19    20    21    1
    20    21    23    1
    21    23    24   ar
    22    24    25   ar
    23    25    26   ar
    24    26    27   ar
    25    27    28   ar
    26    28    29   ar
    27    29    30   ar
    28    30    31   ar
    29    31    32    1
    30    32    33   ar
    31    33    34   ar
    32    34    35   ar
    33    35    36    1
    34    35    37   ar
    35    37    38   ar
    36    14     9   ar
    37    28    23   ar
    38    38    32   ar
    39    19    15    1
    40    31    27   ar
    41     3     4    1
    42    21    22    1
@<TRIPOS>MOLECULE
*****
 38 42 0 0 0
SMALL
GASTEIGER

@<TRIPOS>ATOM
      1 C           7.4016   -2.9232   25.4262 C.3     1  UNL1        0.0950
      2 C           7.3401   -1.4740   25.8084 C.3     1  UNL1        0.0206
      3 N           8.0353   -3.9172   26.3538 N.3     1  UNL1       -0.1790
      4 H           7.8238   -4.8432   25.9821 H       1  UNL1        0.1488
      5 S           7.6566   -3.9363   27.8050 S.O2    1  UNL1        0.0625
      6 O           9.0152   -3.4134   28.1665 O.2     1  UNL1       -0.1529
      7 O           6.2979   -4.4591   27.4436 O.2     1  UNL1       -0.1529
      8 C           8.0741   -6.4336   29.8637 C.3     1  UNL1        0.0554
      9 C           7.4697   -5.1032   30.2026 C.ar    1  UNL1        0.0986
     10 N           6.9512   -4.6872   31.5472 N.ar    1  UNL1       -0.1726
     11 N           6.4388   -3.2821   31.4319 N.ar    1  UNL1       -0.2558
     12 C           6.6407   -2.8298   30.0161 C.ar    1  UNL1        0.0756
     13 C           6.2704   -1.4876   29.4580 C.3     1  UNL1        0.0532
     14 C           7.2778   -3.9553   29.2563 C.ar    1  UNL1        0.1501
     15 C           5.8312   -2.4716   32.5383 C.3     1  UNL1        0.1048
     16 C           4.4851   -2.6979   33.1600 C.3     1  UNL1        0.0243
     17 C           4.2850   -1.6587   34.2231 C.3     1  UNL1        0.0021
     18 C           5.5076   -0.7902   34.2584 C.3     1  UNL1        0.0021
     19 C           6.4632   -1.2927   33.2171 C.3     1  UNL1        0.0243
     20 C           6.8293   -3.3783   24.1166 C.3     1  UNL1        0.1046
     21 N           5.3463   -3.5425   23.9626 N.pl3   1  UNL1       -0.3315
     22 H           4.8201   -3.9610   24.6818 H       1  UNL1        0.1469
     23 C           4.6650   -3.0692   22.7129 C.ar    1  UNL1        0.0477
     24 C           4.7428   -3.8895   21.4595 C.ar    1  UNL1        0.0144
     25 C           4.0615   -3.4162   20.2099 C.ar    1  UNL1        0.0028
     26 C           3.3025   -2.1224   20.2135 C.ar    1  UNL1        0.0193
     27 C           3.2247   -1.3020   21.4668 C.ar    1  UNL1        0.0855
     28 C           3.9059   -1.7754   22.7165 C.ar    1  UNL1        0.0517
     29 C           3.6570   -0.7608   23.7930 C.ar    1  UNL1        0.1232
     30 N           2.8219    0.3396   23.2085 N.ar    1  UNL1       -0.1634
     31 N           2.5547    0.0051   21.7709 N.ar    1  UNL1       -0.2281
     32 C           1.7574    0.8325   20.8066 C.ar    1  UNL1        0.1021
     33 C           2.4031    1.3624   19.5608 C.ar    1  UNL1        0.0247
     34 C           1.6059    2.1898   18.5965 C.ar    1  UNL1        0.0512
     35 C           0.1629    2.4873   18.8780 C.ar    1  UNL1        0.2224
     36 F          -0.6343    3.3147   17.9138 F       1  UNL1       -0.1832
     37 N          -0.4828    1.9573   20.1239 N.ar    1  UNL1       -0.2149
     38 C           0.3144    1.1300   21.0882 C.ar    1  UNL1        0.1203
@<TRIPOS>BOND
     1     8     9    1
     2     9    10   ar
     3    10    11   ar
     4    11    15    1
     5    15    16    1
     6    16    17    1
     7    17    18    1
     8    18    19    1
     9    11    12   ar
    10    12    13    1
    11    12    14   ar
    12    14     5    1
    13     5     6    2
    14     5     7    2
    15     5     3    1
    16     3     1    1
    17     1     2    1
    18     1    20    1
    19    20    21    1
    20    21    23    1
    21    23    24   ar
    22    24    25   ar
    23    25    26   ar
    24    26    27   ar
    25    27    28   ar
    26    28    29   ar
    27    29    30   ar
    28    30    31   ar
    29    31    32    1
    30    32    33   ar
    31    33    34   ar
    32    34    35   ar
    33    35    36    1
    34    35    37   ar
    35    37    38   ar
    36    14     9   ar
    37    28    23   ar
    38    38    32   ar
    39    19    15    1
    40    31    27   ar
    41     3     4    1
    42    21    22    1
@<TRIPOS>MOLECULE
*****
 38 42 0 0 0
SMALL
GASTEIGER

@<TRIPOS>ATOM
      1 C           7.6599   -4.7617   29.7524 C.3     1  UNL1        0.0950
      2 C           7.0473   -5.4226   30.9515 C.3     1  UNL1        0.0206
      3 N           8.3837   -5.5864   28.7295 N.3     1  UNL1       -0.1790
      4 H           9.3736   -5.3538   28.8107 H       1  UNL1        0.1488
      5 S           8.0274   -5.4626   27.2778 S.O2    1  UNL1        0.0625
      6 O           6.7035   -6.1142   27.5472 O.2     1  UNL1       -0.1529
      7 O           9.3514   -4.8111   27.0084 O.2     1  UNL1       -0.1529
      8 C           8.8078   -7.5836   24.9237 C.3     1  UNL1        0.0554
      9 C           8.0299   -6.3138   24.7440 C.ar    1  UNL1        0.0986
     10 N           7.4740   -5.7960   23.4506 N.ar    1  UNL1       -0.1726
     11 N           6.7717   -4.5010   23.7332 N.ar    1  UNL1       -0.2558
     12 C           6.8936   -4.2186   25.2013 C.ar    1  UNL1        0.0756
     13 C           6.3358   -3.0252   25.9188 C.3     1  UNL1        0.0532
     14 C           7.6711   -5.3389   25.8260 C.ar    1  UNL1        0.1501
     15 C           6.0707   -3.6398   22.7249 C.3     1  UNL1        0.1048
     16 C           6.7277   -2.8440   21.6363 C.3     1  UNL1        0.0243
     17 C           5.6526   -2.1355   20.8667 C.3     1  UNL1        0.0021
     18 C           4.3311   -2.4935   21.4797 C.3     1  UNL1        0.0021
     19 C           4.5895   -3.4232   22.6281 C.3     1  UNL1        0.0243
     20 C           7.5488   -3.2763   29.5761 C.3     1  UNL1        0.1046
     21 N           6.2354   -2.5897   29.8075 N.pl3   1  UNL1       -0.3315
     22 H           5.4163   -2.9401   29.3885 H       1  UNL1        0.1469
     23 C           6.1700   -1.3694   30.6773 C.ar    1  UNL1        0.0477
     24 C           6.8559   -0.1059   30.2495 C.ar    1  UNL1        0.0144
     25 C           6.7905    1.1144   31.1193 C.ar    1  UNL1        0.0028
     26 C           6.0392    1.0712   32.4169 C.ar    1  UNL1        0.0193
     27 C           5.3533   -0.1923   32.8446 C.ar    1  UNL1        0.0855
     28 C           5.4187   -1.4126   31.9748 C.ar    1  UNL1        0.0517
     29 C           4.6497   -2.5073   32.6534 C.ar    1  UNL1        0.1232
     30 N           4.1091   -1.9635   33.9426 N.ar    1  UNL1       -0.1634
     31 N           4.5439   -0.5328   34.0608 N.ar    1  UNL1       -0.2281
     32 C           4.2253    0.3946   35.1958 C.ar    1  UNL1        0.1021
     33 C           4.6897    0.0681   36.5842 C.ar    1  UNL1        0.0247
     34 C           4.3711    0.9955   37.7192 C.ar    1  UNL1        0.0512
     35 C           3.5881    2.2496   37.4659 C.ar    1  UNL1        0.2224
     36 F           3.2695    3.1771   38.6009 F       1  UNL1       -0.1832
     37 N           3.1237    2.5762   36.0775 N.ar    1  UNL1       -0.2149
     38 C           3.4423    1.6487   34.9425 C.ar    1  UNL1        0.1203
@<TRIPOS>BOND
     1     8     9    1
     2     9    10   ar
     3    10    11   ar
     4    11    15    1
     5    15    16    1
     6    16    17    1
     7    17    18    1
     8    18    19    1
     9    11    12   ar
    10    12    13    1
    11    12    14   ar
    12    14     5    1
    13     5     6    2
    14     5     7    2
    15     5     3    1
    16     3     1    1
    17     1     2    1
    18     1    20    1
    19    20    21    1
    20    21    23    1
    21    23    24   ar
    22    24    25   ar
    23    25    26   ar
    24    26    27   ar
    25    27    28   ar
    26    28    29   ar
    27    29    30   ar
    28    30    31   ar
    29    31    32    1
    30    32    33   ar
    31    33    34   ar
    32    34    35   ar
    33    35    36    1
    34    35    37   ar
    35    37    38   ar
    36    14     9   ar
    37    28    23   ar
    38    38    32   ar
    39    19    15    1
    40    31    27   ar
    41     3     4    1
    42    21    22    1
