@<TRIPOS>MOLECULE
*****
 32 34 0 0 0
SMALL
GASTEIGER

@<TRIPOS>ATOM
      1 C          -8.7532  -18.7128   21.9403 C.ar    1  UNL1        0.0053
      2 C          -8.6600  -19.3965   20.6085 C.ar    1  UNL1        0.0033
      3 C          -7.3231  -19.5895   19.9564 C.ar    1  UNL1        0.0382
      4 C          -6.0792  -19.0988   20.6362 C.ar    1  UNL1        0.1524
      5 C          -6.1724  -18.4151   21.9680 C.ar    1  UNL1        0.0881
      6 C          -7.5093  -18.2221   22.6201 C.ar    1  UNL1        0.0181
      7 N          -4.9285  -17.9244   22.6478 N.am    1  UNL1       -0.2531
      8 C          -3.5916  -18.1174   21.9957 C.2     1  UNL1        0.2656
      9 O          -2.3478  -17.6267   22.6755 O.2     1  UNL1       -0.2708
     10 C          -3.4984  -18.8011   20.6638 C.3     1  UNL1        0.2012
     11 C          -2.9013  -19.3849   19.4178 C.3     1  UNL1        0.0532
     12 C          -2.0472  -18.5131   20.9108 C.3     1  UNL1        0.0532
     13 O          -4.7422  -19.2919   19.9841 O.3     1  UNL1       -0.4727
     14 C         -11.0026  -17.4257   22.1229 C.ar    1  UNL1        0.0645
     15 N         -12.3396  -17.2326   22.7750 N.ar    1  UNL1       -0.2183
     16 C         -12.7642  -18.1336   23.8966 C.ar    1  UNL1        0.2145
     17 N         -14.1011  -17.9406   24.5487 N.pl3   1  UNL1       -0.3274
     18 N         -11.8517  -19.2277   24.3661 N.ar    1  UNL1       -0.1995
     19 C         -10.5147  -19.4208   23.7140 C.ar    1  UNL1        0.1293
     20 N          -9.6022  -20.5149   24.1834 N.pl3   1  UNL1       -0.3425
     21 C         -10.0902  -18.5198   22.5924 C.ar    1  UNL1        0.0449
     22 H         -14.7000  -17.2225   24.2405 H       1  UNL1        0.1452
     23 H         -14.3798  -18.5319   25.2848 H       1  UNL1        0.1452
     24 H          -9.8809  -21.1062   24.9196 H       1  UNL1        0.1437
     25 H          -8.7247  -20.6416   23.7555 H       1  UNL1        0.1437
     26 C         -11.5078  -16.2680   19.8525 C.3     1  UNL1        0.0067
     27 C         -10.5781  -16.5246   21.0013 C.3     1  UNL1        0.0460
     28 C          -5.0217  -17.2406   23.9796 C.3     1  UNL1        0.1010
     29 C          -5.2178  -15.7551   24.0479 C.3     1  UNL1        0.0539
     30 C          -6.2968  -15.1802   24.9171 C.3     1  UNL1        0.1440
     31 O          -7.6574  -14.9125   24.3452 O.3     1  UNL1       -0.3510
     32 C          -8.8581  -15.6155   24.9055 C.3     1  UNL1        0.1741
@<TRIPOS>BOND
     1    26    27    1
     2    27    14    1
     3    14    15   ar
     4    15    16   ar
     5    16    17    1
     6    16    18   ar
     7    18    19   ar
     8    19    20    1
     9    19    21   ar
    10    21     1    1
    11     1     2   ar
    12     2     3   ar
    13     3     4   ar
    14     4     5   ar
    15     5     6   ar
    16     5     7    1
    17     7    28    1
    18    28    29    1
    19    29    30    1
    20    30    31    1
    21    31    32    1
    22     7     8   am
    23     8     9    2
    24     8    10    1
    25    10    11    1
    26    10    12    1
    27    10    13    1
    28    21    14   ar
    29     6     1   ar
    30    13     4    1
    31    17    22    1
    32    17    23    1
    33    20    24    1
    34    20    25    1
@<TRIPOS>MOLECULE
*****
 32 34 0 0 0
SMALL
GASTEIGER

@<TRIPOS>ATOM
      1 C          -8.6072  -18.6219   21.7055 C.ar    1  UNL1        0.0053
      2 C          -8.4912  -19.2851   20.3651 C.ar    1  UNL1        0.0033
      3 C          -7.1406  -19.4997   19.7489 C.ar    1  UNL1        0.0382
      4 C          -5.9060  -19.0511   20.4731 C.ar    1  UNL1        0.1524
      5 C          -6.0220  -18.3878   21.8134 C.ar    1  UNL1        0.0881
      6 C          -7.3726  -18.1732   22.4296 C.ar    1  UNL1        0.0181
      7 N          -4.7874  -17.9391   22.5376 N.am    1  UNL1       -0.2531
      8 C          -3.4368  -18.1537   21.9214 C.2     1  UNL1        0.2656
      9 O          -2.2021  -17.7051   22.6456 O.2     1  UNL1       -0.2708
     10 C          -3.3207  -18.8170   20.5810 C.3     1  UNL1        0.2012
     11 C          -2.7012  -19.3940   19.3428 C.3     1  UNL1        0.0532
     12 C          -1.8710  -18.5687   20.8752 C.3     1  UNL1        0.0532
     13 O          -4.5553  -19.2657   19.8568 O.3     1  UNL1       -0.4727
     14 C         -10.4355  -19.3147   23.4164 C.ar    1  UNL1        0.0645
     15 N         -11.7861  -19.1002   24.0327 N.ar    1  UNL1       -0.2183
     16 C         -12.6592  -17.9781   23.5542 C.ar    1  UNL1        0.2145
     17 N         -14.0098  -17.7635   24.1705 N.pl3   1  UNL1       -0.3274
     18 N         -12.1815  -17.0707   22.4595 N.ar    1  UNL1       -0.1995
     19 C         -10.8309  -17.2853   21.8432 C.ar    1  UNL1        0.1293
     20 N         -10.3532  -16.3778   20.7485 N.pl3   1  UNL1       -0.3425
     21 C          -9.9579  -18.4073   22.3217 C.ar    1  UNL1        0.0449
     22 H         -14.3232  -18.3591   24.8890 H       1  UNL1        0.1452
     23 H         -14.5827  -17.0271   23.8564 H       1  UNL1        0.1452
     24 H         -10.9262  -15.6414   20.4345 H       1  UNL1        0.1437
     25 H          -9.4668  -16.5187   20.3440 H       1  UNL1        0.1437
     26 C          -9.9365  -21.2046   25.1280 C.3     1  UNL1        0.0067
     27 C          -9.5625  -20.4368   23.8949 C.3     1  UNL1        0.0460
     28 C          -4.9034  -17.2759   23.8780 C.3     1  UNL1        0.1010
     29 C          -5.0774  -15.7886   23.9663 C.3     1  UNL1        0.0539
     30 C          -6.1095  -15.2076   24.8868 C.3     1  UNL1        0.1440
     31 O          -5.8434  -15.1346   26.3612 O.3     1  UNL1       -0.3510
     32 C          -6.8816  -15.6075   27.3350 C.3     1  UNL1        0.1741
@<TRIPOS>BOND
     1    26    27    1
     2    27    14    1
     3    14    15   ar
     4    15    16   ar
     5    16    17    1
     6    16    18   ar
     7    18    19   ar
     8    19    20    1
     9    19    21   ar
    10    21     1    1
    11     1     2   ar
    12     2     3   ar
    13     3     4   ar
    14     4     5   ar
    15     5     6   ar
    16     5     7    1
    17     7    28    1
    18    28    29    1
    19    29    30    1
    20    30    31    1
    21    31    32    1
    22     7     8   am
    23     8     9    2
    24     8    10    1
    25    10    11    1
    26    10    12    1
    27    10    13    1
    28    21    14   ar
    29     6     1   ar
    30    13     4    1
    31    17    22    1
    32    17    23    1
    33    20    24    1
    34    20    25    1
@<TRIPOS>MOLECULE
*****
 32 34 0 0 0
SMALL
GASTEIGER

@<TRIPOS>ATOM
      1 C          -9.1545  -18.7654   22.9571 C.ar    1  UNL1        0.0053
      2 C          -8.6680  -20.0838   22.4328 C.ar    1  UNL1        0.0033
      3 C          -7.2149  -20.2738   22.1131 C.ar    1  UNL1        0.0382
      4 C          -6.2482  -19.1452   22.3177 C.ar    1  UNL1        0.1524
      5 C          -6.7346  -17.8267   22.8420 C.ar    1  UNL1        0.0881
      6 C          -8.1878  -17.6368   23.1617 C.ar    1  UNL1        0.0181
      7 N          -5.7679  -16.6982   23.0466 N.am    1  UNL1       -0.2531
      8 C          -4.3148  -16.8881   22.7269 C.2     1  UNL1        0.2656
      9 O          -3.3481  -15.7595   22.9315 O.2     1  UNL1       -0.2708
     10 C          -3.8283  -18.2066   22.2026 C.3     1  UNL1        0.2012
     11 C          -2.8933  -19.2602   21.6871 C.3     1  UNL1        0.0532
     12 C          -2.5369  -17.4440   22.2282 C.3     1  UNL1        0.0532
     13 O          -4.7950  -19.3352   21.9980 O.3     1  UNL1       -0.4727
     14 C         -11.5073  -17.8838   22.2959 C.ar    1  UNL1        0.0645
     15 N         -12.9604  -17.6938   22.6156 N.ar    1  UNL1       -0.2183
     16 C         -13.5140  -18.1955   23.9163 C.ar    1  UNL1        0.2145
     17 N         -14.9672  -18.0055   24.2360 N.pl3   1  UNL1       -0.3274
     18 N         -12.6145  -18.8871   24.8973 N.ar    1  UNL1       -0.1995
     19 C         -11.1612  -19.0771   24.5776 C.ar    1  UNL1        0.1293
     20 N         -10.2617  -19.7688   25.5586 N.pl3   1  UNL1       -0.3425
     21 C         -10.6077  -18.5754   23.2769 C.ar    1  UNL1        0.0449
     22 H         -15.5576  -17.5515   23.5921 H       1  UNL1        0.1452
     23 H         -15.3305  -18.3348   25.0897 H       1  UNL1        0.1452
     24 H         -10.6250  -20.0980   26.4123 H       1  UNL1        0.1437
     25 H          -9.3079  -19.8934   25.3487 H       1  UNL1        0.1437
     26 C         -10.9229  -18.2827   19.7960 C.3     1  UNL1        0.0067
     27 C         -10.9536  -17.3821   20.9951 C.3     1  UNL1        0.0460
     28 C          -6.2544  -15.3797   23.5710 C.3     1  UNL1        0.1010
     29 C          -6.6727  -15.2514   25.0057 C.3     1  UNL1        0.0539
     30 C          -6.0208  -16.1011   26.0559 C.3     1  UNL1        0.1440
     31 O          -4.5249  -16.1779   26.1364 O.3     1  UNL1       -0.3510
     32 C          -3.8473  -17.5114   26.2480 C.3     1  UNL1        0.1741
@<TRIPOS>BOND
     1    26    27    1
     2    27    14    1
     3    14    15   ar
     4    15    16   ar
     5    16    17    1
     6    16    18   ar
     7    18    19   ar
     8    19    20    1
     9    19    21   ar
    10    21     1    1
    11     1     2   ar
    12     2     3   ar
    13     3     4   ar
    14     4     5   ar
    15     5     6   ar
    16     5     7    1
    17     7    28    1
    18    28    29    1
    19    29    30    1
    20    30    31    1
    21    31    32    1
    22     7     8   am
    23     8     9    2
    24     8    10    1
    25    10    11    1
    26    10    12    1
    27    10    13    1
    28    21    14   ar
    29     6     1   ar
    30    13     4    1
    31    17    22    1
    32    17    23    1
    33    20    24    1
    34    20    25    1
@<TRIPOS>MOLECULE
*****
 32 34 0 0 0
SMALL
GASTEIGER

@<TRIPOS>ATOM
      1 C           6.5696   -2.5898   31.4326 C.ar    1  UNL1        0.0053
      2 C           7.4285   -2.0135   32.5189 C.ar    1  UNL1        0.0033
      3 C           6.9341   -0.8520   33.3291 C.ar    1  UNL1        0.0382
      4 C           5.5808   -0.2668   33.0530 C.ar    1  UNL1        0.1524
      5 C           4.7220   -0.8432   31.9667 C.ar    1  UNL1        0.0881
      6 C           5.2164   -2.0047   31.1565 C.ar    1  UNL1        0.0181
      7 N           3.3687   -0.2580   31.6905 N.am    1  UNL1       -0.2531
      8 C           2.8743    0.9035   32.5007 C.2     1  UNL1        0.2656
      9 O           1.5210    1.4887   32.2245 O.2     1  UNL1       -0.2708
     10 C           3.7332    1.4799   33.5871 C.3     1  UNL1        0.2012
     11 C           4.1754    2.3664   34.7134 C.3     1  UNL1        0.0532
     12 C           2.5335    2.3729   33.7021 C.3     1  UNL1        0.0532
     13 O           5.0865    0.8948   33.8632 O.3     1  UNL1       -0.4727
     14 C           7.6775   -3.5180   29.2736 C.ar    1  UNL1        0.0645
     15 N           8.1719   -4.6795   28.4634 N.ar    1  UNL1       -0.2183
     16 C           8.0528   -6.0744   29.0019 C.ar    1  UNL1        0.2145
     17 N           8.5472   -7.2359   28.1917 N.pl3   1  UNL1       -0.3274
     18 N           7.4393   -6.3079   30.3507 N.ar    1  UNL1       -0.1995
     19 C           6.9449   -5.1463   31.1609 C.ar    1  UNL1        0.1293
     20 N           6.3314   -5.3797   32.5097 N.pl3   1  UNL1       -0.3425
     21 C           7.0640   -3.7514   30.6224 C.ar    1  UNL1        0.0449
     22 H           8.9498   -7.0827   27.3065 H       1  UNL1        0.1452
     23 H           8.4690   -8.1515   28.5451 H       1  UNL1        0.1452
     24 H           6.2532   -6.2952   32.8631 H       1  UNL1        0.1437
     25 H           6.0069   -4.6174   33.0414 H       1  UNL1        0.1437
     26 C           6.8022   -1.6190   27.7316 C.3     1  UNL1        0.0067
     27 C           7.7967   -2.1230   28.7351 C.3     1  UNL1        0.0460
     28 C           2.5098   -0.8343   30.6042 C.3     1  UNL1        0.1010
     29 C           2.4150   -0.1426   29.2766 C.3     1  UNL1        0.0539
     30 C           1.1061    0.4324   28.8224 C.3     1  UNL1        0.1440
     31 O          -0.1604    0.0748   29.5422 O.3     1  UNL1       -0.3510
     32 C          -1.3110   -0.5195   28.7855 C.3     1  UNL1        0.1741
@<TRIPOS>BOND
     1    26    27    1
     2    27    14    1
     3    14    15   ar
     4    15    16   ar
     5    16    17    1
     6    16    18   ar
     7    18    19   ar
     8    19    20    1
     9    19    21   ar
    10    21     1    1
    11     1     2   ar
    12     2     3   ar
    13     3     4   ar
    14     4     5   ar
    15     5     6   ar
    16     5     7    1
    17     7    28    1
    18    28    29    1
    19    29    30    1
    20    30    31    1
    21    31    32    1
    22     7     8   am
    23     8     9    2
    24     8    10    1
    25    10    11    1
    26    10    12    1
    27    10    13    1
    28    21    14   ar
    29     6     1   ar
    30    13     4    1
    31    17    22    1
    32    17    23    1
    33    20    24    1
    34    20    25    1
@<TRIPOS>MOLECULE
*****
 32 34 0 0 0
SMALL
GASTEIGER

@<TRIPOS>ATOM
      1 C          -0.1938    2.7712   27.1916 C.ar    1  UNL1        0.0053
      2 C           0.8447    2.5895   26.1247 C.ar    1  UNL1        0.0033
      3 C           0.4756    2.7639   24.6813 C.ar    1  UNL1        0.0382
      4 C          -0.9320    3.1200   24.3049 C.ar    1  UNL1        0.1524
      5 C          -1.9706    3.3018   25.3718 C.ar    1  UNL1        0.0881
      6 C          -1.6015    3.1273   26.8151 C.ar    1  UNL1        0.0181
      7 N          -3.3782    3.6579   24.9953 N.am    1  UNL1       -0.2531
      8 C          -3.7473    3.8323   23.5520 C.2     1  UNL1        0.2656
      9 O          -5.1550    4.1884   23.1755 O.2     1  UNL1       -0.2708
     10 C          -2.7087    3.6506   22.4850 C.3     1  UNL1        0.2012
     11 C          -2.0836    3.5846   21.1230 C.3     1  UNL1        0.0532
     12 C          -3.8993    3.9838   21.6356 C.3     1  UNL1        0.0532
     13 O          -1.3011    3.2945   22.8614 O.3     1  UNL1       -0.4727
     14 C           0.0807    1.2435   29.2750 C.ar    1  UNL1        0.0645
     15 N           0.4497    1.0690   30.7184 N.ar    1  UNL1       -0.2183
     16 C           0.9133    2.2479   31.5218 C.ar    1  UNL1        0.2145
     17 N           1.2823    2.0734   32.9652 N.pl3   1  UNL1       -0.3274
     18 N           1.0078    3.6012   30.8818 N.ar    1  UNL1       -0.1995
     19 C           0.6388    3.7756   29.4383 C.ar    1  UNL1        0.1293
     20 N           0.7333    5.1289   28.7983 N.pl3   1  UNL1       -0.3425
     21 C           0.1752    2.5968   28.6350 C.ar    1  UNL1        0.0449
     22 H           1.2203    1.1852   33.3852 H       1  UNL1        0.1452
     23 H           1.5866    2.8472   33.4925 H       1  UNL1        0.1452
     24 H           1.0376    5.9027   29.3256 H       1  UNL1        0.1437
     25 H           0.4911    5.2434   27.8510 H       1  UNL1        0.1437
     26 C          -1.6192   -0.6810   28.8787 C.3     1  UNL1        0.0067
     27 C          -0.3829    0.0646   28.4716 C.3     1  UNL1        0.0460
     28 C          -4.4168    3.8396   26.0622 C.3     1  UNL1        0.1010
     29 C          -4.8398    5.2198   26.4699 C.3     1  UNL1        0.0539
     30 C          -3.8149    6.2119   26.9339 C.3     1  UNL1        0.1440
     31 O          -3.4698    6.3081   28.3905 O.3     1  UNL1       -0.3510
     32 C          -3.6148    7.6158   29.1109 C.3     1  UNL1        0.1741
@<TRIPOS>BOND
     1    26    27    1
     2    27    14    1
     3    14    15   ar
     4    15    16   ar
     5    16    17    1
     6    16    18   ar
     7    18    19   ar
     8    19    20    1
     9    19    21   ar
    10    21     1    1
    11     1     2   ar
    12     2     3   ar
    13     3     4   ar
    14     4     5   ar
    15     5     6   ar
    16     5     7    1
    17     7    28    1
    18    28    29    1
    19    29    30    1
    20    30    31    1
    21    31    32    1
    22     7     8   am
    23     8     9    2
    24     8    10    1
    25    10    11    1
    26    10    12    1
    27    10    13    1
    28    21    14   ar
    29     6     1   ar
    30    13     4    1
    31    17    22    1
    32    17    23    1
    33    20    24    1
    34    20    25    1
@<TRIPOS>MOLECULE
*****
 32 34 0 0 0
SMALL
GASTEIGER

@<TRIPOS>ATOM
      1 C         -15.3118   -7.7039   18.2432 C.ar    1  UNL1        0.0053
      2 C         -14.0471   -8.3834   17.8086 C.ar    1  UNL1        0.0033
      3 C         -12.7596   -7.6151   17.7657 C.ar    1  UNL1        0.0382
      4 C         -12.7367   -6.1674   18.1574 C.ar    1  UNL1        0.1524
      5 C         -14.0013   -5.4878   18.5919 C.ar    1  UNL1        0.0881
      6 C         -15.2889   -6.2561   18.6348 C.ar    1  UNL1        0.0181
      7 N         -13.9784   -4.0401   18.9836 N.am    1  UNL1       -0.2531
      8 C         -12.6908   -3.2718   18.9407 C.2     1  UNL1        0.2656
      9 O         -12.6679   -1.8240   19.3323 O.2     1  UNL1       -0.2708
     10 C         -11.4261   -3.9513   18.5061 C.3     1  UNL1        0.2012
     11 C          -9.9789   -4.1523   18.1666 C.3     1  UNL1        0.0532
     12 C         -10.9006   -2.5733   18.7798 C.3     1  UNL1        0.0532
     13 O         -11.4490   -5.3991   18.1144 O.3     1  UNL1       -0.4727
     14 C         -17.5889   -8.3407   17.1664 C.ar    1  UNL1        0.0645
     15 N         -18.8765   -9.1089   17.2092 N.ar    1  UNL1       -0.2183
     16 C         -19.1747  -10.0087   18.3719 C.ar    1  UNL1        0.2145
     17 N         -20.4623  -10.7769   18.4147 N.pl3   1  UNL1       -0.3274
     18 N         -18.1853  -10.1401   19.4916 N.ar    1  UNL1       -0.1995
     19 C         -16.8976   -9.3718   19.4487 C.ar    1  UNL1        0.1293
     20 N         -15.9082   -9.5033   20.5684 N.pl3   1  UNL1       -0.3425
     21 C         -16.5994   -8.4722   18.2861 C.ar    1  UNL1        0.0449
     22 H         -21.1117  -10.6906   17.6798 H       1  UNL1        0.1452
     23 H         -20.6580  -11.3674   19.1778 H       1  UNL1        0.1452
     24 H         -16.1039  -10.0938   21.3314 H       1  UNL1        0.1437
     25 H         -15.0631   -8.9991   20.5402 H       1  UNL1        0.1437
     26 C         -17.8148   -6.0357   15.9892 C.3     1  UNL1        0.0067
     27 C         -17.2906   -7.4410   16.0037 C.3     1  UNL1        0.0460
     28 C         -15.2430   -3.3605   19.4181 C.3     1  UNL1        0.1010
     29 C         -16.2197   -2.8667   18.3924 C.3     1  UNL1        0.0539
     30 C         -16.5016   -1.3984   18.2709 C.3     1  UNL1        0.1440
     31 O         -16.5124   -0.5329   19.4960 O.3     1  UNL1       -0.3510
     32 C         -17.8138   -0.1769   20.1513 C.3     1  UNL1        0.1741
@<TRIPOS>BOND
     1    26    27    1
     2    27    14    1
     3    14    15   ar
     4    15    16   ar
     5    16    17    1
     6    16    18   ar
     7    18    19   ar
     8    19    20    1
     9    19    21   ar
    10    21     1    1
    11     1     2   ar
    12     2     3   ar
    13     3     4   ar
    14     4     5   ar
    15     5     6   ar
    16     5     7    1
    17     7    28    1
    18    28    29    1
    19    29    30    1
    20    30    31    1
    21    31    32    1
    22     7     8   am
    23     8     9    2
    24     8    10    1
    25    10    11    1
    26    10    12    1
    27    10    13    1
    28    21    14   ar
    29     6     1   ar
    30    13     4    1
    31    17    22    1
    32    17    23    1
    33    20    24    1
    34    20    25    1
@<TRIPOS>MOLECULE
*****
 32 34 0 0 0
SMALL
GASTEIGER

@<TRIPOS>ATOM
      1 C           7.9455   -4.0822   22.9093 C.ar    1  UNL1        0.0053
      2 C           8.9994   -3.0357   23.1189 C.ar    1  UNL1        0.0033
      3 C           9.1513   -1.9161   22.1322 C.ar    1  UNL1        0.0382
      4 C           8.2493   -1.8431   20.9359 C.ar    1  UNL1        0.1524
      5 C           7.1954   -2.8897   20.7263 C.ar    1  UNL1        0.0881
      6 C           7.0435   -4.0092   21.7130 C.ar    1  UNL1        0.0181
      7 N           6.2934   -2.8166   19.5301 N.am    1  UNL1       -0.2531
      8 C           6.4453   -1.6971   18.5434 C.2     1  UNL1        0.2656
      9 O           5.5433   -1.6241   17.3472 O.2     1  UNL1       -0.2708
     10 C           7.4993   -0.6505   18.7530 C.3     1  UNL1        0.2012
     11 C           8.3415    0.5684   18.5189 C.3     1  UNL1        0.0532
     12 C           6.8898   -0.1542   17.4755 C.3     1  UNL1        0.0532
     13 O           8.4013   -0.7235   19.9493 O.3     1  UNL1       -0.4727
     14 C           7.0494   -4.9754   25.1785 C.ar    1  UNL1        0.0645
     15 N           6.8974   -6.0949   26.1651 N.ar    1  UNL1       -0.2183
     16 C           7.4896   -7.4409   25.8693 C.ar    1  UNL1        0.2145
     17 N           7.3377   -8.5604   26.8559 N.pl3   1  UNL1       -0.3274
     18 N           8.2338   -7.6674   24.5868 N.ar    1  UNL1       -0.1995
     19 C           8.3858   -6.5478   23.6001 C.ar    1  UNL1        0.1293
     20 N           9.1300   -6.7742   22.3175 N.pl3   1  UNL1       -0.3425
     21 C           7.7936   -5.2018   23.8959 C.ar    1  UNL1        0.0449
     22 H           6.8492   -8.4118   27.6977 H       1  UNL1        0.1452
     23 H           7.7264   -9.4439   26.6618 H       1  UNL1        0.1452
     24 H           9.5187   -7.6576   22.1234 H       1  UNL1        0.1437
     25 H           9.2297   -6.0394   21.6700 H       1  UNL1        0.1437
     26 C           7.1637   -2.6867   26.4028 C.3     1  UNL1        0.0067
     27 C           6.4571   -3.6293   25.4743 C.3     1  UNL1        0.0460
     28 C           5.2394   -3.8632   19.3205 C.3     1  UNL1        0.1010
     29 C           3.8689   -3.6740   19.8999 C.3     1  UNL1        0.0539
     30 C           3.2393   -2.3125   19.9076 C.3     1  UNL1        0.1440
     31 O           3.2608   -1.4832   21.1574 O.3     1  UNL1       -0.3510
     32 C           3.9393   -2.0024   22.3903 C.3     1  UNL1        0.1741
@<TRIPOS>BOND
     1    26    27    1
     2    27    14    1
     3    14    15   ar
     4    15    16   ar
     5    16    17    1
     6    16    18   ar
     7    18    19   ar
     8    19    20    1
     9    19    21   ar
    10    21     1    1
    11     1     2   ar
    12     2     3   ar
    13     3     4   ar
    14     4     5   ar
    15     5     6   ar
    16     5     7    1
    17     7    28    1
    18    28    29    1
    19    29    30    1
    20    30    31    1
    21    31    32    1
    22     7     8   am
    23     8     9    2
    24     8    10    1
    25    10    11    1
    26    10    12    1
    27    10    13    1
    28    21    14   ar
    29     6     1   ar
    30    13     4    1
    31    17    22    1
    32    17    23    1
    33    20    24    1
    34    20    25    1
@<TRIPOS>MOLECULE
*****
 32 34 0 0 0
SMALL
GASTEIGER

@<TRIPOS>ATOM
      1 C           0.5828    2.0575   27.0234 C.ar    1  UNL1        0.0053
      2 C          -0.6210    2.4947   26.2428 C.ar    1  UNL1        0.0033
      3 C          -0.6950    2.2308   24.7681 C.ar    1  UNL1        0.0382
      4 C           0.4349    1.5296   24.0740 C.ar    1  UNL1        0.1524
      5 C           1.6387    1.0924   24.8547 C.ar    1  UNL1        0.0881
      6 C           1.7127    1.3563   26.3294 C.ar    1  UNL1        0.0181
      7 N           2.7686    0.3913   24.1606 N.am    1  UNL1       -0.2531
      8 C           2.6946    0.1273   22.6859 C.2     1  UNL1        0.2656
      9 O           3.8245   -0.5738   21.9918 O.2     1  UNL1       -0.2708
     10 C           1.4907    0.5646   21.9052 C.3     1  UNL1        0.2012
     11 C           0.5679    0.7849   20.7433 C.3     1  UNL1        0.0532
     12 C           2.3001   -0.0601   20.8076 C.3     1  UNL1        0.0532
     13 O           0.3608    1.2657   22.5992 O.3     1  UNL1       -0.4727
     14 C           0.2420    1.2586   29.4721 C.ar    1  UNL1        0.0645
     15 N           0.3161    1.5225   30.9468 N.ar    1  UNL1       -0.2183
     16 C           0.8049    2.8492   31.4478 C.ar    1  UNL1        0.2145
     17 N           0.8790    3.1130   32.9225 N.pl3   1  UNL1       -0.3274
     18 N           1.2198    3.9120   30.4739 N.ar    1  UNL1       -0.1995
     19 C           1.1458    3.6481   28.9991 C.ar    1  UNL1        0.1293
     20 N           1.5606    4.7109   28.0253 N.pl3   1  UNL1       -0.3425
     21 C           0.6569    2.3214   28.4982 C.ar    1  UNL1        0.0449
     22 H           0.6067    2.4155   33.5616 H       1  UNL1        0.1452
     23 H           1.1998    3.9838   33.2513 H       1  UNL1        0.1452
     24 H           1.8815    5.5816   28.3541 H       1  UNL1        0.1437
     25 H           1.5120    4.5377   27.0574 H       1  UNL1        0.1437
     26 C          -1.7146   -0.3774   28.9768 C.3     1  UNL1        0.0067
     27 C          -0.2469   -0.0681   28.9711 C.3     1  UNL1        0.0460
     28 C           3.9725   -0.0460   24.9412 C.3     1  UNL1        0.1010
     29 C           4.0103   -1.4125   25.5587 C.3     1  UNL1        0.0539
     30 C           4.2279   -1.5625   27.0353 C.3     1  UNL1        0.1440
     31 O           3.0935   -1.3281   27.9882 O.3     1  UNL1       -0.3510
     32 C           3.3505   -0.6765   29.3145 C.3     1  UNL1        0.1741
@<TRIPOS>BOND
     1    26    27    1
     2    27    14    1
     3    14    15   ar
     4    15    16   ar
     5    16    17    1
     6    16    18   ar
     7    18    19   ar
     8    19    20    1
     9    19    21   ar
    10    21     1    1
    11     1     2   ar
    12     2     3   ar
    13     3     4   ar
    14     4     5   ar
    15     5     6   ar
    16     5     7    1
    17     7    28    1
    18    28    29    1
    19    29    30    1
    20    30    31    1
    21    31    32    1
    22     7     8   am
    23     8     9    2
    24     8    10    1
    25    10    11    1
    26    10    12    1
    27    10    13    1
    28    21    14   ar
    29     6     1   ar
    30    13     4    1
    31    17    22    1
    32    17    23    1
    33    20    24    1
    34    20    25    1
@<TRIPOS>MOLECULE
*****
 32 34 0 0 0
SMALL
GASTEIGER

@<TRIPOS>ATOM
      1 C          -0.3182    2.6499   27.0382 C.ar    1  UNL1        0.0053
      2 C           0.6727    2.3992   25.9404 C.ar    1  UNL1        0.0033
      3 C           0.2685    2.5864   24.5081 C.ar    1  UNL1        0.0382
      4 C          -1.1267    3.0243   24.1736 C.ar    1  UNL1        0.1524
      5 C          -2.1176    3.2750   25.2713 C.ar    1  UNL1        0.0881
      6 C          -1.7134    3.0878   26.7037 C.ar    1  UNL1        0.0181
      7 N          -3.5127    3.7128   24.9368 N.am    1  UNL1       -0.2531
      8 C          -3.9169    3.9000   23.5045 C.2     1  UNL1        0.2656
      9 O          -5.3120    4.3378   23.1700 O.2     1  UNL1       -0.2708
     10 C          -2.9260    3.6493   22.4066 C.3     1  UNL1        0.2012
     11 C          -2.3501    3.5371   21.0262 C.3     1  UNL1        0.0532
     12 C          -4.1211    4.0482   21.5927 C.3     1  UNL1        0.0532
     13 O          -1.5308    3.2114   22.7412 O.3     1  UNL1       -0.4727
     14 C           0.5356    3.6408   29.2830 C.ar    1  UNL1        0.0645
     15 N           0.9398    3.4537   30.7153 N.ar    1  UNL1       -0.2183
     16 C           0.8943    2.0885   31.3353 C.ar    1  UNL1        0.2145
     17 N           1.2985    1.9014   32.7676 N.pl3   1  UNL1       -0.3274
     18 N           0.4447    0.9105   30.5228 N.ar    1  UNL1       -0.1995
     19 C           0.0405    1.0976   29.0904 C.ar    1  UNL1        0.1293
     20 N          -0.4091   -0.0804   28.2780 N.pl3   1  UNL1       -0.3425
     21 C           0.0860    2.4628   28.4706 C.ar    1  UNL1        0.0449
     22 H           1.5936    2.6746   33.3008 H       1  UNL1        0.1452
     23 H           1.2687    1.0054   33.1745 H       1  UNL1        0.1452
     24 H          -0.4390   -0.9764   28.6849 H       1  UNL1        0.1437
     25 H          -0.6744    0.0424   27.3379 H       1  UNL1        0.1437
     26 C           1.8416    5.4922   28.0115 C.3     1  UNL1        0.0067
     27 C           0.5810    5.0060   28.6631 C.3     1  UNL1        0.0460
     28 C          -4.5036    3.9635   26.0346 C.3     1  UNL1        0.1010
     29 C          -4.7374    5.3601   26.5295 C.3     1  UNL1        0.0539
     30 C          -6.1247    5.8083   26.8826 C.3     1  UNL1        0.1440
     31 O          -6.5606    5.8384   28.3175 O.3     1  UNL1       -0.3510
     32 C          -7.3837    6.9840   28.8275 C.3     1  UNL1        0.1741
@<TRIPOS>BOND
     1    26    27    1
     2    27    14    1
     3    14    15   ar
     4    15    16   ar
     5    16    17    1
     6    16    18   ar
     7    18    19   ar
     8    19    20    1
     9    19    21   ar
    10    21     1    1
    11     1     2   ar
    12     2     3   ar
    13     3     4   ar
    14     4     5   ar
    15     5     6   ar
    16     5     7    1
    17     7    28    1
    18    28    29    1
    19    29    30    1
    20    30    31    1
    21    31    32    1
    22     7     8   am
    23     8     9    2
    24     8    10    1
    25    10    11    1
    26    10    12    1
    27    10    13    1
    28    21    14   ar
    29     6     1   ar
    30    13     4    1
    31    17    22    1
    32    17    23    1
    33    20    24    1
    34    20    25    1
