@<TRIPOS>MOLECULE
*****
 27 29 0 0 0
SMALL
GASTEIGER

@<TRIPOS>ATOM
      1 C          -9.8973  -16.4884   22.6245 C.ar    1  UNL1       -0.0099
      2 C          -8.8686  -15.7982   21.7788 C.ar    1  UNL1       -0.0002
      3 C          -7.6207  -15.2553   22.4096 C.ar    1  UNL1        0.0366
      4 C          -7.4016  -15.4026   23.8862 C.ar    1  UNL1        0.1387
      5 C          -8.4304  -16.0928   24.7319 C.ar    1  UNL1        0.0366
      6 C          -9.6782  -16.6357   24.1010 C.ar    1  UNL1       -0.0002
      7 C         -11.1453  -17.0314   21.9936 C.3     1  UNL1        0.0917
      8 C         -14.5762  -18.3678   24.5805 C.3     1  UNL1        0.0900
      9 C         -13.4326  -17.9224   23.7182 C.1     1  UNL1       -0.0897
     10 C         -12.2889  -17.4769   22.8559 C.1     1  UNL1       -0.0872
     11 C         -11.2495  -17.1288   20.5004 C.3     1  UNL1        0.0591
     12 C         -11.7241  -15.9502   19.7032 C.2     1  UNL1        0.0517
     13 O         -13.1839  -15.6071   19.6684 O.co2   1  UNL1       -0.5491
     14 O         -10.7388  -15.1145   18.9409 O.co2   1  UNL1       -0.5491
     15 O          -6.1537  -14.8596   24.5171 O.3     1  UNL1       -0.4714
     16 C          -4.9563  -15.7455   24.6942 C.3     1  UNL1        0.2525
     17 C          -4.5119  -16.6388   23.5740 C.3     1  UNL1        0.2526
     18 C          -3.1946  -16.3964   22.8989 C.3     1  UNL1        0.2526
     19 O          -2.7503  -17.2897   21.7788 O.3     1  UNL1       -0.4684
     20 C          -3.6234  -18.4253   21.3338 C.ar    1  UNL1        0.1724
     21 C          -3.1791  -19.3185   20.2136 C.ar    1  UNL1        0.0409
     22 C          -4.0522  -20.4541   19.7685 C.ar    1  UNL1        0.0147
     23 C          -5.3697  -20.6964   20.4436 C.ar    1  UNL1        0.0609
     24 CL         -6.2428  -21.8320   19.9985 Cl      1  UNL1       -0.0821
     25 C          -5.8139  -19.8032   21.5637 C.ar    1  UNL1        0.0514
     26 C          -4.9408  -18.6676   22.0088 C.ar    1  UNL1        0.1732
     27 O          -5.3851  -17.7744   23.1289 O.3     1  UNL1       -0.4683
@<TRIPOS>UNITY_ATOM_ATTR
13 1
charge -1
@<TRIPOS>BOND
     1     8     9    1
     2     9    10    3
     3     7    10    1
     4     7    11    1
     5    11    12    1
     6    12    13   ar
     7    12    14   ar
     8     7     1    1
     9     1     2   ar
    10     2     3   ar
    11     3     4   ar
    12     4    15    1
    13    15    16    1
    14    17    16    1
    15    17    18    1
    16    18    19    1
    17    19    20    1
    18    20    21   ar
    19    21    22   ar
    20    22    23   ar
    21    23    24    1
    22    23    25   ar
    23    25    26   ar
    24    26    27    1
    25     4     5   ar
    26     5     6   ar
    27     6     1   ar
    28    27    17    1
    29    26    20   ar
@<TRIPOS>MOLECULE
*****
 27 29 0 0 0
SMALL
GASTEIGER

@<TRIPOS>ATOM
      1 C         -10.2584  -16.8749   22.7875 C.ar    1  UNL1       -0.0099
      2 C          -9.9110  -16.8621   24.2467 C.ar    1  UNL1       -0.0002
      3 C          -8.6906  -16.1302   24.7207 C.ar    1  UNL1        0.0366
      4 C          -7.8176  -15.4109   23.7356 C.ar    1  UNL1        0.1387
      5 C          -8.1649  -15.4237   22.2765 C.ar    1  UNL1        0.0366
      6 C          -9.3853  -16.1557   21.8024 C.ar    1  UNL1       -0.0002
      7 C         -11.4789  -17.6069   22.3134 C.3     1  UNL1        0.0917
      8 C         -14.8759  -18.3954   25.1575 C.3     1  UNL1        0.0900
      9 C         -13.7435  -18.1326   24.2095 C.1     1  UNL1       -0.0897
     10 C         -12.6112  -17.8697   23.2615 C.1     1  UNL1       -0.0872
     11 C         -11.5670  -18.0760   20.8915 C.3     1  UNL1        0.0591
     12 C         -10.9659  -19.3926   20.4975 C.2     1  UNL1        0.0517
     13 O         -10.9638  -20.5365   21.4678 O.co2   1  UNL1       -0.5491
     14 O         -10.3668  -19.5653   19.1331 O.co2   1  UNL1       -0.5491
     15 O          -6.5971  -14.6789   24.2097 O.3     1  UNL1       -0.4714
     16 C          -5.3742  -15.4455   24.6182 C.3     1  UNL1        0.2525
     17 C          -4.7322  -16.4013   23.6567 C.3     1  UNL1        0.2526
     18 C          -5.3731  -17.7287   23.3783 C.3     1  UNL1        0.2526
     19 O          -4.7311  -18.6844   22.4169 O.3     1  UNL1       -0.4684
     20 C          -3.4484  -18.3129   21.7339 C.ar    1  UNL1        0.1724
     21 C          -2.8064  -19.2688   20.7725 C.ar    1  UNL1        0.0409
     22 C          -1.5237  -18.8973   20.0895 C.ar    1  UNL1        0.0147
     23 C          -0.8829  -17.5699   20.3679 C.ar    1  UNL1        0.0609
     24 CL          0.3999  -17.1983   19.6849 Cl      1  UNL1       -0.0821
     25 C          -1.5248  -16.6141   21.3293 C.ar    1  UNL1        0.0514
     26 C          -2.8075  -16.9856   22.0123 C.ar    1  UNL1        0.1732
     27 O          -3.4495  -16.0298   22.9737 O.3     1  UNL1       -0.4683
@<TRIPOS>UNITY_ATOM_ATTR
13 1
charge -1
@<TRIPOS>BOND
     1     8     9    1
     2     9    10    3
     3     7    10    1
     4     7    11    1
     5    11    12    1
     6    12    13   ar
     7    12    14   ar
     8     7     1    1
     9     1     2   ar
    10     2     3   ar
    11     3     4   ar
    12     4    15    1
    13    15    16    1
    14    17    16    1
    15    17    18    1
    16    18    19    1
    17    19    20    1
    18    20    21   ar
    19    21    22   ar
    20    22    23   ar
    21    23    24    1
    22    23    25   ar
    23    25    26   ar
    24    26    27    1
    25     4     5   ar
    26     5     6   ar
    27     6     1   ar
    28    27    17    1
    29    26    20   ar
@<TRIPOS>MOLECULE
*****
 27 29 0 0 0
SMALL
GASTEIGER

@<TRIPOS>ATOM
      1 C         -10.7947  -18.2252   21.1664 C.ar    1  UNL1       -0.0099
      2 C          -9.7744  -18.5729   22.2096 C.ar    1  UNL1       -0.0002
      3 C          -8.5858  -19.4124   21.8457 C.ar    1  UNL1        0.0366
      4 C          -8.4174  -19.9041   20.4386 C.ar    1  UNL1        0.1387
      5 C          -9.4377  -19.5563   19.3955 C.ar    1  UNL1        0.0366
      6 C         -10.6263  -18.7169   19.7594 C.ar    1  UNL1       -0.0002
      7 C         -11.9834  -17.3857   21.5304 C.3     1  UNL1        0.0917
      8 C         -14.4373  -18.4136   25.1597 C.3     1  UNL1        0.0900
      9 C         -13.6193  -18.0710   23.9499 C.1     1  UNL1       -0.0897
     10 C         -12.8013  -17.7284   22.7402 C.1     1  UNL1       -0.0872
     11 C         -12.3540  -16.2037   20.6847 C.3     1  UNL1        0.0591
     12 C         -11.2938  -15.4639   19.9240 C.2     1  UNL1        0.0517
     13 O          -9.9510  -15.2255   20.5484 O.co2   1  UNL1       -0.5491
     14 O         -11.5765  -14.9624   18.5388 O.co2   1  UNL1       -0.5491
     15 O          -7.2288  -20.7435   20.0746 O.3     1  UNL1       -0.4714
     16 C          -6.1049  -20.9165   21.0529 C.3     1  UNL1        0.2525
     17 C          -5.1406  -19.7931   21.2938 C.3     1  UNL1        0.2526
     18 C          -5.4608  -18.7340   22.3065 C.3     1  UNL1        0.2526
     19 O          -4.4965  -17.6106   22.5473 O.3     1  UNL1       -0.4684
     20 C          -3.2119  -17.5463   21.7754 C.ar    1  UNL1        0.1724
     21 C          -2.2476  -16.4229   22.0163 C.ar    1  UNL1        0.0409
     22 C          -0.9631  -16.3586   21.2444 C.ar    1  UNL1        0.0147
     23 C          -0.6429  -17.4178   20.2317 C.ar    1  UNL1        0.0609
     24 CL          0.6417  -17.3536   19.4598 Cl      1  UNL1       -0.0821
     25 C          -1.6072  -18.5412   19.9908 C.ar    1  UNL1        0.0514
     26 C          -2.8917  -18.6054   20.7627 C.ar    1  UNL1        0.1732
     27 O          -3.8560  -19.7288   20.5219 O.3     1  UNL1       -0.4683
@<TRIPOS>UNITY_ATOM_ATTR
13 1
charge -1
@<TRIPOS>BOND
     1     8     9    1
     2     9    10    3
     3     7    10    1
     4     7    11    1
     5    11    12    1
     6    12    13   ar
     7    12    14   ar
     8     7     1    1
     9     1     2   ar
    10     2     3   ar
    11     3     4   ar
    12     4    15    1
    13    15    16    1
    14    17    16    1
    15    17    18    1
    16    18    19    1
    17    19    20    1
    18    20    21   ar
    19    21    22   ar
    20    22    23   ar
    21    23    24    1
    22    23    25   ar
    23    25    26   ar
    24    26    27    1
    25     4     5   ar
    26     5     6   ar
    27     6     1   ar
    28    27    17    1
    29    26    20   ar
@<TRIPOS>MOLECULE
*****
 27 29 0 0 0
SMALL
GASTEIGER

@<TRIPOS>ATOM
      1 C          -9.7463  -17.3293   22.0012 C.ar    1  UNL1       -0.0099
      2 C          -9.4871  -17.8000   23.4017 C.ar    1  UNL1       -0.0002
      3 C          -8.5167  -17.0601   24.2740 C.ar    1  UNL1        0.0366
      4 C          -7.8056  -15.8497   23.7459 C.ar    1  UNL1        0.1387
      5 C          -8.0647  -15.3791   22.3454 C.ar    1  UNL1        0.0366
      6 C          -9.0351  -16.1189   21.4731 C.ar    1  UNL1       -0.0002
      7 C         -10.7167  -18.0692   21.1289 C.3     1  UNL1        0.0917
      8 C          -9.2031  -20.9350   18.0070 C.3     1  UNL1        0.0900
      9 C          -9.7077  -19.9798   19.0476 C.1     1  UNL1       -0.0897
     10 C         -10.2122  -19.0245   20.0882 C.1     1  UNL1       -0.0872
     11 C         -12.1916  -17.8539   21.2972 C.3     1  UNL1        0.0591
     12 C         -12.7148  -17.1763   22.5289 C.2     1  UNL1        0.0517
     13 O         -13.3665  -17.9856   23.6107 O.co2   1  UNL1       -0.5491
     14 O         -12.5863  -15.6893   22.6788 O.co2   1  UNL1       -0.5491
     15 O          -6.8351  -15.1098   24.6182 O.3     1  UNL1       -0.4714
     16 C          -5.4075  -15.5619   24.7032 C.3     1  UNL1        0.2525
     17 C          -4.8467  -16.4766   23.6548 C.3     1  UNL1        0.2526
     18 C          -3.4622  -16.2495   23.1241 C.3     1  UNL1        0.2526
     19 O          -2.9016  -17.1641   22.0758 O.3     1  UNL1       -0.4684
     20 C          -3.7253  -18.3058   21.5581 C.ar    1  UNL1        0.1724
     21 C          -3.1646  -19.2205   20.5097 C.ar    1  UNL1        0.0409
     22 C          -3.9884  -20.3621   19.9921 C.ar    1  UNL1        0.0147
     23 C          -5.3729  -20.5891   20.5228 C.ar    1  UNL1        0.0609
     24 CL         -6.1967  -21.7308   20.0051 Cl      1  UNL1       -0.0821
     25 C          -5.9336  -19.6745   21.5711 C.ar    1  UNL1        0.0514
     26 C          -5.1098  -18.5329   22.0888 C.ar    1  UNL1        0.1732
     27 O          -5.6705  -17.6182   23.1371 O.3     1  UNL1       -0.4683
@<TRIPOS>UNITY_ATOM_ATTR
13 1
charge -1
@<TRIPOS>BOND
     1     8     9    1
     2     9    10    3
     3     7    10    1
     4     7    11    1
     5    11    12    1
     6    12    13   ar
     7    12    14   ar
     8     7     1    1
     9     1     2   ar
    10     2     3   ar
    11     3     4   ar
    12     4    15    1
    13    15    16    1
    14    17    16    1
    15    17    18    1
    16    18    19    1
    17    19    20    1
    18    20    21   ar
    19    21    22   ar
    20    22    23   ar
    21    23    24    1
    22    23    25   ar
    23    25    26   ar
    24    26    27    1
    25     4     5   ar
    26     5     6   ar
    27     6     1   ar
    28    27    17    1
    29    26    20   ar
@<TRIPOS>MOLECULE
*****
 27 29 0 0 0
SMALL
GASTEIGER

@<TRIPOS>ATOM
      1 C         -10.1231  -18.7340   20.9943 C.ar    1  UNL1       -0.0099
      2 C          -9.4169  -19.3152   22.1832 C.ar    1  UNL1       -0.0002
      3 C          -8.1075  -20.0248   22.0049 C.ar    1  UNL1        0.0366
      4 C          -7.5042  -20.1532   20.6376 C.ar    1  UNL1        0.1387
      5 C          -8.2104  -19.5720   19.4487 C.ar    1  UNL1        0.0366
      6 C          -9.5198  -18.8624   19.6270 C.ar    1  UNL1       -0.0002
      7 C         -11.4326  -18.0244   21.1727 C.3     1  UNL1        0.0917
      8 C         -13.7292  -18.4728   25.0165 C.3     1  UNL1        0.0900
      9 C         -12.9636  -18.3234   23.7353 C.1     1  UNL1       -0.0897
     10 C         -12.1981  -18.1739   22.4540 C.1     1  UNL1       -0.0872
     11 C         -11.9765  -17.1654   20.0699 C.3     1  UNL1        0.0591
     12 C         -11.3391  -15.8420   19.7664 C.2     1  UNL1        0.0517
     13 O         -10.1795  -15.3620   20.5880 O.co2   1  UNL1       -0.5491
     14 O         -11.8614  -14.9984   18.6414 O.co2   1  UNL1       -0.5491
     15 O          -6.1947  -20.8628   20.4592 O.3     1  UNL1       -0.4714
     16 C          -4.9069  -20.1314   20.6968 C.3     1  UNL1        0.2525
     17 C          -4.8331  -19.0651   21.7493 C.3     1  UNL1        0.2526
     18 C          -3.5164  -18.7268   22.3831 C.3     1  UNL1        0.2526
     19 O          -3.4426  -17.6605   23.4356 O.3     1  UNL1       -0.4684
     20 C          -4.6856  -16.9326   23.8541 C.ar    1  UNL1        0.1724
     21 C          -4.6118  -15.8663   24.9066 C.ar    1  UNL1        0.0409
     22 C          -5.8547  -15.1383   25.3251 C.ar    1  UNL1        0.0147
     23 C          -7.1714  -15.4766   24.6912 C.ar    1  UNL1        0.0609
     24 CL         -8.4144  -14.7486   25.1097 Cl      1  UNL1       -0.0821
     25 C          -7.2452  -16.5429   23.6387 C.ar    1  UNL1        0.0514
     26 C          -6.0023  -17.2708   23.2202 C.ar    1  UNL1        0.1732
     27 O          -6.0760  -18.3371   22.1678 O.3     1  UNL1       -0.4683
@<TRIPOS>UNITY_ATOM_ATTR
13 1
charge -1
@<TRIPOS>BOND
     1     8     9    1
     2     9    10    3
     3     7    10    1
     4     7    11    1
     5    11    12    1
     6    12    13   ar
     7    12    14   ar
     8     7     1    1
     9     1     2   ar
    10     2     3   ar
    11     3     4   ar
    12     4    15    1
    13    15    16    1
    14    17    16    1
    15    17    18    1
    16    18    19    1
    17    19    20    1
    18    20    21   ar
    19    21    22   ar
    20    22    23   ar
    21    23    24    1
    22    23    25   ar
    23    25    26   ar
    24    26    27    1
    25     4     5   ar
    26     5     6   ar
    27     6     1   ar
    28    27    17    1
    29    26    20   ar
@<TRIPOS>MOLECULE
*****
 27 29 0 0 0
SMALL
GASTEIGER

@<TRIPOS>ATOM
      1 C          -4.8887  -18.6551   22.0356 C.ar    1  UNL1       -0.0099
      2 C          -6.3538  -18.6481   22.3573 C.ar    1  UNL1       -0.0002
      3 C          -7.3072  -19.4586   21.5302 C.ar    1  UNL1        0.0366
      4 C          -6.7955  -20.2761   20.3814 C.ar    1  UNL1        0.1387
      5 C          -5.3304  -20.2831   20.0597 C.ar    1  UNL1        0.0366
      6 C          -4.3770  -19.4727   20.8868 C.ar    1  UNL1       -0.0002
      7 C          -3.9353  -17.8446   22.8627 C.3     1  UNL1        0.0917
      8 C          -5.5073  -15.0833   26.0492 C.3     1  UNL1        0.0900
      9 C          -4.9833  -16.0037   24.9871 C.1     1  UNL1       -0.0897
     10 C          -4.4593  -16.9242   23.9249 C.1     1  UNL1       -0.0872
     11 C          -2.4579  -17.9545   22.6277 C.3     1  UNL1        0.0591
     12 C          -1.7958  -17.0877   21.5981 C.2     1  UNL1        0.0517
     13 O          -1.9675  -15.5984   21.6489 O.co2   1  UNL1       -0.5491
     14 O          -0.9619  -17.7101   20.5177 O.co2   1  UNL1       -0.5491
     15 O          -7.7489  -21.0866   19.5543 O.3     1  UNL1       -0.4714
     16 C          -8.8952  -20.4154   18.8577 C.3     1  UNL1        0.2525
     17 C          -9.7502  -19.4305   19.5986 C.3     1  UNL1        0.2526
     18 C          -9.9892  -18.0648   19.0260 C.3     1  UNL1        0.2526
     19 O         -10.8442  -17.0800   19.7670 O.3     1  UNL1       -0.4684
     20 C         -11.4601  -17.4608   21.0806 C.ar    1  UNL1        0.1724
     21 C         -12.3152  -16.4759   21.8216 C.ar    1  UNL1        0.0409
     22 C         -12.9311  -16.8567   23.1352 C.ar    1  UNL1        0.0147
     23 C         -12.6921  -18.2224   23.7079 C.ar    1  UNL1        0.0609
     24 CL        -13.3080  -18.6032   25.0215 Cl      1  UNL1       -0.0821
     25 C         -11.8371  -19.2072   22.9669 C.ar    1  UNL1        0.0514
     26 C         -11.2211  -18.8264   21.6533 C.ar    1  UNL1        0.1732
     27 O         -10.3662  -19.8112   20.9123 O.3     1  UNL1       -0.4683
@<TRIPOS>UNITY_ATOM_ATTR
13 1
charge -1
@<TRIPOS>BOND
     1     8     9    1
     2     9    10    3
     3     7    10    1
     4     7    11    1
     5    11    12    1
     6    12    13   ar
     7    12    14   ar
     8     7     1    1
     9     1     2   ar
    10     2     3   ar
    11     3     4   ar
    12     4    15    1
    13    15    16    1
    14    17    16    1
    15    17    18    1
    16    18    19    1
    17    19    20    1
    18    20    21   ar
    19    21    22   ar
    20    22    23   ar
    21    23    24    1
    22    23    25   ar
    23    25    26   ar
    24    26    27    1
    25     4     5   ar
    26     5     6   ar
    27     6     1   ar
    28    27    17    1
    29    26    20   ar
@<TRIPOS>MOLECULE
*****
 27 29 0 0 0
SMALL
GASTEIGER

@<TRIPOS>ATOM
      1 C          -4.6237  -18.6957   21.8968 C.ar    1  UNL1       -0.0099
      2 C          -4.6820  -18.4061   20.4262 C.ar    1  UNL1       -0.0002
      3 C          -5.5962  -19.2003   19.5411 C.ar    1  UNL1        0.0366
      4 C          -6.4521  -20.2840   20.1266 C.ar    1  UNL1        0.1387
      5 C          -6.3939  -20.5735   21.5973 C.ar    1  UNL1        0.0366
      6 C          -5.4797  -19.7793   22.4824 C.ar    1  UNL1       -0.0002
      7 C          -3.7094  -17.9014   22.7820 C.3     1  UNL1        0.0917
      8 C          -5.4277  -15.1275   25.8808 C.3     1  UNL1        0.0900
      9 C          -4.8550  -16.0522   24.8479 C.1     1  UNL1       -0.0897
     10 C          -4.2822  -16.9768   23.8149 C.1     1  UNL1       -0.0872
     11 C          -2.2225  -18.0318   22.6341 C.3     1  UNL1        0.0591
     12 C          -1.6498  -18.9359   21.5831 C.2     1  UNL1        0.0517
     13 O          -1.9620  -20.4029   21.6046 O.co2   1  UNL1       -0.5491
     14 O          -0.7648  -18.3731   20.5107 O.co2   1  UNL1       -0.5491
     15 O          -7.3664  -21.0782   19.2415 O.3     1  UNL1       -0.4714
     16 C          -8.6490  -20.4734   18.7526 C.3     1  UNL1        0.2525
     17 C          -9.4025  -19.5094   19.6205 C.3     1  UNL1        0.2526
     18 C         -10.8194  -19.1486   19.2858 C.3     1  UNL1        0.2526
     19 O         -11.5727  -18.1846   20.1537 O.3     1  UNL1       -0.4684
     20 C         -10.9092  -17.5816   21.3562 C.ar    1  UNL1        0.1724
     21 C         -11.6626  -16.6177   22.2241 C.ar    1  UNL1        0.0409
     22 C         -10.9991  -16.0146   23.4267 C.ar    1  UNL1        0.0147
     23 C          -9.5821  -16.3756   23.7613 C.ar    1  UNL1        0.0609
     24 CL         -8.9185  -15.7726   24.9638 Cl      1  UNL1       -0.0821
     25 C          -8.8287  -17.3395   22.8934 C.ar    1  UNL1        0.0514
     26 C          -9.4923  -17.9425   21.6909 C.ar    1  UNL1        0.1732
     27 O          -8.7389  -18.9064   20.8230 O.3     1  UNL1       -0.4683
@<TRIPOS>UNITY_ATOM_ATTR
13 1
charge -1
@<TRIPOS>BOND
     1     8     9    1
     2     9    10    3
     3     7    10    1
     4     7    11    1
     5    11    12    1
     6    12    13   ar
     7    12    14   ar
     8     7     1    1
     9     1     2   ar
    10     2     3   ar
    11     3     4   ar
    12     4    15    1
    13    15    16    1
    14    17    16    1
    15    17    18    1
    16    18    19    1
    17    19    20    1
    18    20    21   ar
    19    21    22   ar
    20    22    23   ar
    21    23    24    1
    22    23    25   ar
    23    25    26   ar
    24    26    27    1
    25     4     5   ar
    26     5     6   ar
    27     6     1   ar
    28    27    17    1
    29    26    20   ar
@<TRIPOS>MOLECULE
*****
 27 29 0 0 0
SMALL
GASTEIGER

@<TRIPOS>ATOM
      1 C           5.0479   -2.9978   21.0727 C.ar    1  UNL1       -0.0099
      2 C           6.4500   -3.4904   20.8691 C.ar    1  UNL1       -0.0002
      3 C           7.2823   -3.8934   22.0500 C.ar    1  UNL1        0.0366
      4 C           6.7126   -3.8038   23.4347 C.ar    1  UNL1        0.1387
      5 C           5.3105   -3.3112   23.6384 C.ar    1  UNL1        0.0366
      6 C           4.4782   -2.9082   22.4574 C.ar    1  UNL1       -0.0002
      7 C           4.2156   -2.5947   19.8917 C.3     1  UNL1        0.0917
      8 C           0.5360   -0.0737   20.4875 C.3     1  UNL1        0.0900
      9 C           1.7625   -0.9140   20.2889 C.1     1  UNL1       -0.0897
     10 C           2.9891   -1.7544   20.0903 C.1     1  UNL1       -0.0872
     11 C           4.6098   -3.0320   18.5121 C.3     1  UNL1        0.0591
     12 C           5.2633   -2.0598   17.5752 C.2     1  UNL1        0.0517
     13 O           4.4210   -1.1495   16.7316 O.co2   1  UNL1       -0.5491
     14 O           6.7591   -1.9980   17.4820 O.co2   1  UNL1       -0.5491
     15 O           7.5449   -4.2068   24.6158 O.3     1  UNL1       -0.4714
     16 C           7.1872   -5.4332   25.4019 C.3     1  UNL1        0.2525
     17 C           7.1759   -5.3862   26.9012 C.3     1  UNL1        0.2526
     18 C           7.6603   -6.5650   27.6922 C.3     1  UNL1        0.2526
     19 O           7.6490   -6.5179   29.1914 O.3     1  UNL1       -0.4684
     20 C           7.1532   -5.2921   29.8995 C.ar    1  UNL1        0.1724
     21 C           7.1419   -5.2450   31.3988 C.ar    1  UNL1        0.0409
     22 C           6.6462   -4.0192   32.1070 C.ar    1  UNL1        0.0147
     23 C           6.1618   -2.8403   31.3159 C.ar    1  UNL1        0.0609
     24 CL          5.6660   -1.6145   32.0241 Cl      1  UNL1       -0.0821
     25 C           6.1731   -2.8874   29.8167 C.ar    1  UNL1        0.0514
     26 C           6.6688   -4.1133   29.1085 C.ar    1  UNL1        0.1732
     27 O           6.6802   -4.1603   27.6094 O.3     1  UNL1       -0.4683
@<TRIPOS>UNITY_ATOM_ATTR
13 1
charge -1
@<TRIPOS>BOND
     1     8     9    1
     2     9    10    3
     3     7    10    1
     4     7    11    1
     5    11    12    1
     6    12    13   ar
     7    12    14   ar
     8     7     1    1
     9     1     2   ar
    10     2     3   ar
    11     3     4   ar
    12     4    15    1
    13    15    16    1
    14    17    16    1
    15    17    18    1
    16    18    19    1
    17    19    20    1
    18    20    21   ar
    19    21    22   ar
    20    22    23   ar
    21    23    24    1
    22    23    25   ar
    23    25    26   ar
    24    26    27    1
    25     4     5   ar
    26     5     6   ar
    27     6     1   ar
    28    27    17    1
    29    26    20   ar
@<TRIPOS>MOLECULE
*****
 27 29 0 0 0
SMALL
GASTEIGER

@<TRIPOS>ATOM
      1 C           2.5766   -1.0186   19.7599 C.ar    1  UNL1       -0.0099
      2 C           1.2455   -0.7481   20.3963 C.ar    1  UNL1       -0.0002
      3 C           0.4314    0.4335   19.9592 C.ar    1  UNL1        0.0366
      4 C           0.9485    1.3447   18.8858 C.ar    1  UNL1        0.1387
      5 C           2.2796    1.0742   18.2494 C.ar    1  UNL1        0.0366
      6 C           3.0937   -0.1074   18.6864 C.ar    1  UNL1       -0.0002
      7 C           3.3907   -2.2003   20.1970 C.3     1  UNL1        0.0917
      8 C           5.0693   -2.3566   24.3692 C.3     1  UNL1        0.0900
      9 C           4.5098   -2.3045   22.9785 C.1     1  UNL1       -0.0897
     10 C           3.9502   -2.2524   21.5877 C.1     1  UNL1       -0.0872
     11 C           3.6452   -3.3297   19.2433 C.3     1  UNL1        0.0591
     12 C           4.2743   -4.5994   19.7354 C.2     1  UNL1        0.0517
     13 O           3.4134   -5.7778   20.0819 O.co2   1  UNL1       -0.5491
     14 O           5.7645   -4.6906   19.8809 O.co2   1  UNL1       -0.5491
     15 O           0.1344    2.5264   18.4487 O.3     1  UNL1       -0.4714
     16 C          -0.1436    3.6428   19.4110 C.3     1  UNL1        0.2525
     17 C          -1.3572    3.5897   20.2911 C.3     1  UNL1        0.2526
     18 C          -2.7207    3.4535   19.6810 C.3     1  UNL1        0.2526
     19 O          -3.9342    3.4004   20.5610 O.3     1  UNL1       -0.4684
     20 C          -3.7842    3.4835   22.0512 C.ar    1  UNL1        0.1724
     21 C          -4.9978    3.4304   22.9313 C.ar    1  UNL1        0.0409
     22 C          -4.8478    3.5134   24.4215 C.ar    1  UNL1        0.0147
     23 C          -3.4842    3.6496   25.0315 C.ar    1  UNL1        0.0609
     24 CL         -3.3342    3.7327   26.5217 Cl      1  UNL1       -0.0821
     25 C          -2.2707    3.7027   24.1515 C.ar    1  UNL1        0.0514
     26 C          -2.4207    3.6197   22.6613 C.ar    1  UNL1        0.1732
     27 O          -1.2072    3.6728   21.7813 O.3     1  UNL1       -0.4683
@<TRIPOS>UNITY_ATOM_ATTR
13 1
charge -1
@<TRIPOS>BOND
     1     8     9    1
     2     9    10    3
     3     7    10    1
     4     7    11    1
     5    11    12    1
     6    12    13   ar
     7    12    14   ar
     8     7     1    1
     9     1     2   ar
    10     2     3   ar
    11     3     4   ar
    12     4    15    1
    13    15    16    1
    14    17    16    1
    15    17    18    1
    16    18    19    1
    17    19    20    1
    18    20    21   ar
    19    21    22   ar
    20    22    23   ar
    21    23    24    1
    22    23    25   ar
    23    25    26   ar
    24    26    27    1
    25     4     5   ar
    26     5     6   ar
    27     6     1   ar
    28    27    17    1
    29    26    20   ar
