@<TRIPOS>MOLECULE
*****
 34 38 0 0 0
SMALL
GASTEIGER

@<TRIPOS>ATOM
      1 N           5.1979   -1.4701   19.4233 N.ar    1  UNL1       -0.2806
      2 C           6.3511   -0.5136   19.3509 C.ar    1  UNL1        0.1456
      3 N           7.5350   -0.6966   20.2536 N.ar    1  UNL1       -0.2281
      4 C           7.5658   -1.8360   21.2287 C.ar    1  UNL1        0.0875
      5 C           8.7497   -2.0190   22.1313 C.ar    1  UNL1        0.0193
      6 C           8.7804   -3.1584   23.1064 C.ar    1  UNL1        0.0015
      7 C           7.6272   -4.1148   23.1788 C.ar    1  UNL1        0.0002
      8 C           6.4433   -3.9319   22.2762 C.ar    1  UNL1        0.0063
      9 C           6.4126   -2.7925   21.3011 C.ar    1  UNL1        0.0739
     10 C           5.2286   -2.6095   20.3984 C.ar    1  UNL1        0.2633
     11 O           4.0754   -3.5660   20.4708 O.2     1  UNL1       -0.2669
     12 C           6.3204    0.6258   18.3758 C.ar    1  UNL1        0.0303
     13 C           6.7591    0.4113   16.9576 C.ar    1  UNL1        0.0027
     14 C           6.7283    1.5507   15.9825 C.ar    1  UNL1        0.0001
     15 C           6.2588    2.9046   16.4258 C.ar    1  UNL1       -0.0003
     16 C           5.8201    3.1192   17.8440 C.ar    1  UNL1       -0.0042
     17 C           5.8508    1.9797   18.8190 C.ar    1  UNL1       -0.0189
     18 C           5.4121    2.1942   20.2373 C.3     1  UNL1        0.0311
     19 C           7.6579   -5.2543   24.1539 C.ar    1  UNL1        0.0001
     20 C           8.3553   -6.5321   23.7925 C.ar    1  UNL1        0.0009
     21 C           8.3861   -7.6716   24.7676 C.ar    1  UNL1        0.0114
     22 C           7.7194   -7.5331   26.1041 C.ar    1  UNL1        0.0577
     23 CL          7.7501   -8.6725   27.0792 Cl      1  UNL1       -0.0822
     24 C           7.0220   -6.2552   26.4656 C.ar    1  UNL1        0.0114
     25 C           6.9912   -5.1158   25.4905 C.ar    1  UNL1        0.0009
     26 C           4.0139   -1.2871   18.5206 C.3     1  UNL1        0.1118
     27 N           1.3525    1.6377   18.8560 N.3     1  UNL1       -0.2726
     28 C           0.4582    1.0858   19.9264 C.3     1  UNL1        0.0721
     29 C           0.7492   -0.2570   20.5282 C.3     1  UNL1        0.0174
     30 C           1.9344   -1.0480   20.0596 C.3     1  UNL1        0.0048
     31 C           2.8287   -0.4961   18.9892 C.3     1  UNL1        0.0388
     32 C           2.5377    0.8467   18.3874 C.3     1  UNL1        0.0740
     33 C           2.1235    4.0397   18.2349 C.3     1  UNL1        0.0188
     34 C           1.0616    2.9805   18.2543 C.3     1  UNL1        0.0721
@<TRIPOS>BOND
     1    33    34    1
     2    34    27    1
     3    27    28    1
     4    28    29    1
     5    29    30    1
     6    30    31    1
     7    31    26    1
     8    26     1    1
     9     1     2   ar
    10     2    12    1
    11    12    13   ar
    12    13    14   ar
    13    14    15   ar
    14    15    16   ar
    15    16    17   ar
    16    17    18    1
    17     2     3   ar
    18     3     4   ar
    19     4     5   ar
    20     5     6   ar
    21     6     7   ar
    22     7    19    1
    23    19    20   ar
    24    20    21   ar
    25    21    22   ar
    26    22    23    1
    27    22    24   ar
    28    24    25   ar
    29     7     8   ar
    30     8     9   ar
    31     9    10   ar
    32    10    11    2
    33    31    32    1
    34    32    27    1
    35    10     1   ar
    36    17    12   ar
    37     9     4   ar
    38    25    19   ar
@<TRIPOS>MOLECULE
*****
 34 38 0 0 0
SMALL
GASTEIGER

@<TRIPOS>ATOM
      1 N           2.9594    1.1778   20.4964 N.ar    1  UNL1       -0.2806
      2 C           3.2610    1.7019   19.1236 C.ar    1  UNL1        0.1456
      3 N           2.2195    2.4752   18.3705 N.ar    1  UNL1       -0.2281
      4 C           0.8763    2.7245   18.9901 C.ar    1  UNL1        0.0875
      5 C          -0.1652    3.4978   18.2370 C.ar    1  UNL1        0.0193
      6 C          -1.5082    3.7471   18.8566 C.ar    1  UNL1        0.0015
      7 C          -1.8098    3.2230   20.2293 C.ar    1  UNL1        0.0002
      8 C          -0.7683    2.4497   20.9825 C.ar    1  UNL1        0.0063
      9 C           0.5747    2.2005   20.3629 C.ar    1  UNL1        0.0739
     10 C           1.6163    1.4271   21.1160 C.ar    1  UNL1        0.2633
     11 O           1.3147    0.9031   22.4887 O.2     1  UNL1       -0.2669
     12 C           4.6041    1.4525   18.5040 C.ar    1  UNL1        0.0303
     13 C           5.7706    2.3231   18.8665 C.ar    1  UNL1        0.0027
     14 C           7.1136    2.0738   18.2469 C.ar    1  UNL1        0.0001
     15 C           7.2903    0.9539   17.2648 C.ar    1  UNL1       -0.0003
     16 C           6.1238    0.0833   16.9023 C.ar    1  UNL1       -0.0042
     17 C           4.7808    0.3326   17.5219 C.ar    1  UNL1       -0.0189
     18 C           3.6142   -0.5380   17.1594 C.3     1  UNL1        0.0311
     19 C          -3.1530    3.4724   20.8490 C.ar    1  UNL1        0.0001
     20 C          -4.3660    3.6142   19.9781 C.ar    1  UNL1        0.0009
     21 C          -5.7091    3.8635   20.5977 C.ar    1  UNL1        0.0114
     22 C          -5.8392    3.9710   22.0882 C.ar    1  UNL1        0.0577
     23 CL         -7.1823    4.2203   22.7078 Cl      1  UNL1       -0.0822
     24 C          -4.6261    3.8291   22.9591 C.ar    1  UNL1        0.0114
     25 C          -3.2830    3.5798   22.3394 C.ar    1  UNL1        0.0009
     26 C           4.0010    0.4045   21.2495 C.3     1  UNL1        0.1118
     27 N           6.2843   -2.6699   20.2081 N.3     1  UNL1       -0.2726
     28 C           5.2432   -3.6779   19.8209 C.3     1  UNL1        0.0721
     29 C           3.7879   -3.3251   19.9098 C.3     1  UNL1        0.0174
     30 C           3.3738   -1.9643   20.3860 C.3     1  UNL1        0.0048
     31 C           4.4150   -0.9563   20.7733 C.3     1  UNL1        0.0388
     32 C           5.8702   -1.3091   20.6843 C.3     1  UNL1        0.0740
     33 C           8.6292   -2.2981   19.1531 C.3     1  UNL1        0.0188
     34 C           7.7394   -3.0227   20.1191 C.3     1  UNL1        0.0721
@<TRIPOS>BOND
     1    33    34    1
     2    34    27    1
     3    27    28    1
     4    28    29    1
     5    29    30    1
     6    30    31    1
     7    31    26    1
     8    26     1    1
     9     1     2   ar
    10     2    12    1
    11    12    13   ar
    12    13    14   ar
    13    14    15   ar
    14    15    16   ar
    15    16    17   ar
    16    17    18    1
    17     2     3   ar
    18     3     4   ar
    19     4     5   ar
    20     5     6   ar
    21     6     7   ar
    22     7    19    1
    23    19    20   ar
    24    20    21   ar
    25    21    22   ar
    26    22    23    1
    27    22    24   ar
    28    24    25   ar
    29     7     8   ar
    30     8     9   ar
    31     9    10   ar
    32    10    11    2
    33    31    32    1
    34    32    27    1
    35    10     1   ar
    36    17    12   ar
    37     9     4   ar
    38    25    19   ar
@<TRIPOS>MOLECULE
*****
 34 38 0 0 0
SMALL
GASTEIGER

@<TRIPOS>ATOM
      1 N           6.0207   -1.0990   30.9843 N.ar    1  UNL1       -0.2806
      2 C           6.1053   -1.9403   32.2234 C.ar    1  UNL1        0.1456
      3 N           6.5101   -3.3813   32.1253 N.ar    1  UNL1       -0.2281
      4 C           6.8303   -3.9811   30.7882 C.ar    1  UNL1        0.0875
      5 C           7.2350   -5.4221   30.6902 C.ar    1  UNL1        0.0193
      6 C           7.5552   -6.0218   29.3531 C.ar    1  UNL1        0.0015
      7 C           7.4706   -5.1806   28.1141 C.ar    1  UNL1        0.0002
      8 C           7.0658   -3.7396   28.2122 C.ar    1  UNL1        0.0063
      9 C           6.7457   -3.1399   29.5492 C.ar    1  UNL1        0.0739
     10 C           6.3409   -1.6988   29.6473 C.ar    1  UNL1        0.2633
     11 O           6.2563   -0.8575   28.4083 O.2     1  UNL1       -0.2669
     12 C           5.7851   -1.3404   33.5605 C.ar    1  UNL1        0.0303
     13 C           4.4029   -1.4692   34.1286 C.ar    1  UNL1        0.0027
     14 C           4.0828   -0.8694   35.4657 C.ar    1  UNL1        0.0001
     15 C           5.1449   -0.1408   36.2345 C.ar    1  UNL1       -0.0003
     16 C           6.5271   -0.0120   35.6663 C.ar    1  UNL1       -0.0042
     17 C           6.8472   -0.6118   34.3293 C.ar    1  UNL1       -0.0189
     18 C           8.2295   -0.4831   33.7610 C.3     1  UNL1        0.0311
     19 C           7.7908   -5.7804   26.7770 C.ar    1  UNL1        0.0001
     20 C           7.4237   -5.0494   25.5198 C.ar    1  UNL1        0.0009
     21 C           7.7439   -5.6492   24.1827 C.ar    1  UNL1        0.0114
     22 C           8.4311   -6.9801   24.1029 C.ar    1  UNL1        0.0577
     23 CL          8.7513   -7.5800   22.7659 Cl      1  UNL1       -0.0822
     24 C           8.7982   -7.7112   25.3603 C.ar    1  UNL1        0.0114
     25 C           8.4780   -7.1114   26.6973 C.ar    1  UNL1        0.0009
     26 C           5.6159    0.3421   31.0824 C.3     1  UNL1        0.1118
     27 N           1.7467    0.5037   30.2148 N.3     1  UNL1       -0.2726
     28 C           1.2579    1.4469   31.2736 C.3     1  UNL1        0.0721
     29 C           2.2217    2.0219   32.2688 C.3     1  UNL1        0.0174
     30 C           3.6744    1.6537   32.2051 C.3     1  UNL1        0.0048
     31 C           4.1633    0.7103   31.1462 C.3     1  UNL1        0.0388
     32 C           3.1994    0.1354   30.1510 C.3     1  UNL1        0.0740
     33 C          -0.6098    0.4772   29.1210 C.3     1  UNL1        0.0188
     34 C           0.7829   -0.0713   29.2196 C.3     1  UNL1        0.0721
@<TRIPOS>BOND
     1    33    34    1
     2    34    27    1
     3    27    28    1
     4    28    29    1
     5    29    30    1
     6    30    31    1
     7    31    26    1
     8    26     1    1
     9     1     2   ar
    10     2    12    1
    11    12    13   ar
    12    13    14   ar
    13    14    15   ar
    14    15    16   ar
    15    16    17   ar
    16    17    18    1
    17     2     3   ar
    18     3     4   ar
    19     4     5   ar
    20     5     6   ar
    21     6     7   ar
    22     7    19    1
    23    19    20   ar
    24    20    21   ar
    25    21    22   ar
    26    22    23    1
    27    22    24   ar
    28    24    25   ar
    29     7     8   ar
    30     8     9   ar
    31     9    10   ar
    32    10    11    2
    33    31    32    1
    34    32    27    1
    35    10     1   ar
    36    17    12   ar
    37     9     4   ar
    38    25    19   ar
@<TRIPOS>MOLECULE
*****
 34 38 0 0 0
SMALL
GASTEIGER

@<TRIPOS>ATOM
      1 N          -0.6998    3.2495   22.2252 N.ar    1  UNL1       -0.2806
      2 C          -1.2023    2.8881   20.8589 C.ar    1  UNL1        0.1456
      3 N          -0.6334    1.7007   20.1403 N.ar    1  UNL1       -0.2281
      4 C           0.4381    0.8746   20.7881 C.ar    1  UNL1        0.0875
      5 C           1.0070   -0.3128   20.0696 C.ar    1  UNL1        0.0193
      6 C           2.0784   -1.1388   20.7174 C.ar    1  UNL1        0.0015
      7 C           2.5809   -0.7774   22.0838 C.ar    1  UNL1        0.0002
      8 C           2.0120    0.4100   22.8023 C.ar    1  UNL1        0.0063
      9 C           0.9406    1.2360   22.1545 C.ar    1  UNL1        0.0739
     10 C           0.3716    2.4235   22.8730 C.ar    1  UNL1        0.2633
     11 O           0.8741    2.7849   24.2393 O.2     1  UNL1       -0.2669
     12 C          -2.2738    3.7142   20.2111 C.ar    1  UNL1        0.0303
     13 C          -3.7098    3.2929   20.3124 C.ar    1  UNL1        0.0027
     14 C          -4.7812    4.1190   19.6646 C.ar    1  UNL1        0.0001
     15 C          -4.4166    5.3664   18.9155 C.ar    1  UNL1       -0.0003
     16 C          -2.9806    5.7876   18.8142 C.ar    1  UNL1       -0.0042
     17 C          -1.9092    4.9616   19.4620 C.ar    1  UNL1       -0.0189
     18 C          -0.4731    5.3828   19.3607 C.3     1  UNL1        0.0311
     19 C           3.6524   -1.6035   22.7316 C.ar    1  UNL1        0.0001
     20 C           4.1246   -1.2680   24.1151 C.ar    1  UNL1        0.0009
     21 C           5.1961   -2.0940   24.7630 C.ar    1  UNL1        0.0114
     22 C           5.7953   -3.2557   24.0271 C.ar    1  UNL1        0.0577
     23 CL          6.8667   -4.0818   24.6748 Cl      1  UNL1       -0.0822
     24 C           5.3230   -3.5913   22.6434 C.ar    1  UNL1        0.0114
     25 C           4.2516   -2.7652   21.9957 C.ar    1  UNL1        0.0009
     26 C          -1.2688    4.4370   22.9437 C.3     1  UNL1        0.1118
     27 N          -4.8728    4.2836   24.5981 N.3     1  UNL1       -0.2726
     28 C          -4.5250    3.8711   25.9977 C.3     1  UNL1        0.0721
     29 C          -3.0917    3.6473   26.3793 C.3     1  UNL1        0.0174
     30 C          -2.0063    3.8359   25.3613 C.3     1  UNL1        0.0048
     31 C          -2.3542    4.2484   23.9617 C.3     1  UNL1        0.0388
     32 C          -3.7874    4.4722   23.5801 C.3     1  UNL1        0.0740
     33 C          -6.7764    4.1650   22.8339 C.3     1  UNL1        0.0188
     34 C          -6.3061    4.5074   24.2165 C.3     1  UNL1        0.0721
@<TRIPOS>BOND
     1    33    34    1
     2    34    27    1
     3    27    28    1
     4    28    29    1
     5    29    30    1
     6    30    31    1
     7    31    26    1
     8    26     1    1
     9     1     2   ar
    10     2    12    1
    11    12    13   ar
    12    13    14   ar
    13    14    15   ar
    14    15    16   ar
    15    16    17   ar
    16    17    18    1
    17     2     3   ar
    18     3     4   ar
    19     4     5   ar
    20     5     6   ar
    21     6     7   ar
    22     7    19    1
    23    19    20   ar
    24    20    21   ar
    25    21    22   ar
    26    22    23    1
    27    22    24   ar
    28    24    25   ar
    29     7     8   ar
    30     8     9   ar
    31     9    10   ar
    32    10    11    2
    33    31    32    1
    34    32    27    1
    35    10     1   ar
    36    17    12   ar
    37     9     4   ar
    38    25    19   ar
@<TRIPOS>MOLECULE
*****
 34 38 0 0 0
SMALL
GASTEIGER

@<TRIPOS>ATOM
      1 N          -0.0649    3.4525   23.2568 N.ar    1  UNL1       -0.2806
      2 C           0.4185    3.5204   24.6751 C.ar    1  UNL1        0.1456
      3 N           1.3990    2.5050   25.1827 N.ar    1  UNL1       -0.2281
      4 C           1.8960    1.4217   24.2720 C.ar    1  UNL1        0.0875
      5 C           2.8764    0.4063   24.7795 C.ar    1  UNL1        0.0193
      6 C           3.3734   -0.6770   23.8688 C.ar    1  UNL1        0.0015
      7 C           2.8899   -0.7449   22.4505 C.ar    1  UNL1        0.0002
      8 C           1.9095    0.2705   21.9429 C.ar    1  UNL1        0.0063
      9 C           1.4125    1.3538   22.8536 C.ar    1  UNL1        0.0739
     10 C           0.4320    2.3693   22.3461 C.ar    1  UNL1        0.2633
     11 O          -0.0514    2.3014   20.9277 O.2     1  UNL1       -0.2669
     12 C          -0.0785    4.6038   25.5859 C.ar    1  UNL1        0.0303
     13 C           0.5257    5.9751   25.5197 C.ar    1  UNL1        0.0027
     14 C           0.0287    7.0583   26.4305 C.ar    1  UNL1        0.0001
     15 C          -1.0725    6.7703   27.4073 C.ar    1  UNL1       -0.0003
     16 C          -1.6768    5.3990   27.4735 C.ar    1  UNL1       -0.0042
     17 C          -1.1797    4.3157   26.5628 C.ar    1  UNL1       -0.0189
     18 C          -1.7840    2.9443   26.6289 C.3     1  UNL1        0.0311
     19 C           3.3870   -1.8282   21.5397 C.ar    1  UNL1        0.0001
     20 C           3.0100   -1.8191   20.0879 C.ar    1  UNL1        0.0009
     21 C           3.5070   -2.9025   19.1772 C.ar    1  UNL1        0.0114
     22 C           4.3810   -3.9949   19.7183 C.ar    1  UNL1        0.0577
     23 CL          4.8780   -5.0782   18.8076 Cl      1  UNL1       -0.0822
     24 C           4.7579   -4.0039   21.1702 C.ar    1  UNL1        0.0114
     25 C           4.2609   -2.9206   22.0808 C.ar    1  UNL1        0.0009
     26 C          -1.0454    4.4680   22.7492 C.3     1  UNL1        0.1118
     27 N          -4.3237    3.6287   20.6761 N.3     1  UNL1       -0.2726
     28 C          -5.2624    3.2341   21.7775 C.3     1  UNL1        0.0721
     29 C          -4.7955    3.2508   23.2029 C.3     1  UNL1        0.0174
     30 C          -3.3898    3.6621   23.5268 C.3     1  UNL1        0.0048
     31 C          -2.4511    4.0567   22.4253 C.3     1  UNL1        0.0388
     32 C          -2.9181    4.0400   21.0000 C.3     1  UNL1        0.0740
     33 C          -6.2078    3.2391   18.9301 C.3     1  UNL1        0.0188
     34 C          -4.7907    3.6119   19.2507 C.3     1  UNL1        0.0721
@<TRIPOS>BOND
     1    33    34    1
     2    34    27    1
     3    27    28    1
     4    28    29    1
     5    29    30    1
     6    30    31    1
     7    31    26    1
     8    26     1    1
     9     1     2   ar
    10     2    12    1
    11    12    13   ar
    12    13    14   ar
    13    14    15   ar
    14    15    16   ar
    15    16    17   ar
    16    17    18    1
    17     2     3   ar
    18     3     4   ar
    19     4     5   ar
    20     5     6   ar
    21     6     7   ar
    22     7    19    1
    23    19    20   ar
    24    20    21   ar
    25    21    22   ar
    26    22    23    1
    27    22    24   ar
    28    24    25   ar
    29     7     8   ar
    30     8     9   ar
    31     9    10   ar
    32    10    11    2
    33    31    32    1
    34    32    27    1
    35    10     1   ar
    36    17    12   ar
    37     9     4   ar
    38    25    19   ar
@<TRIPOS>MOLECULE
*****
 34 38 0 0 0
SMALL
GASTEIGER

@<TRIPOS>ATOM
      1 N           1.9089    0.1155   28.8248 N.ar    1  UNL1       -0.2806
      2 C           2.9768    0.2726   27.7832 C.ar    1  UNL1        0.1456
      3 N           2.6845    1.0204   26.5162 N.ar    1  UNL1       -0.2281
      4 C           1.3242    1.6112   26.2908 C.ar    1  UNL1        0.0875
      5 C           1.0319    2.3590   25.0238 C.ar    1  UNL1        0.0193
      6 C          -0.3283    2.9498   24.7985 C.ar    1  UNL1        0.0015
      7 C          -1.3962    2.7926   25.8401 C.ar    1  UNL1        0.0002
      8 C          -1.1039    2.0448   27.1070 C.ar    1  UNL1        0.0063
      9 C           0.2564    1.4541   27.3324 C.ar    1  UNL1        0.0739
     10 C           0.5487    0.7062   28.5994 C.ar    1  UNL1        0.2633
     11 O          -0.5192    0.5491   29.6410 O.2     1  UNL1       -0.2669
     12 C           4.3371   -0.3182   28.0086 C.ar    1  UNL1        0.0303
     13 C           4.6248   -1.7252   27.5756 C.ar    1  UNL1        0.0027
     14 C           5.9850   -2.3159   27.8011 C.ar    1  UNL1        0.0001
     15 C           7.0575   -1.4996   28.4594 C.ar    1  UNL1       -0.0003
     16 C           6.7698   -0.0926   28.8924 C.ar    1  UNL1       -0.0042
     17 C           5.4096    0.4981   28.6670 C.ar    1  UNL1       -0.0189
     18 C           5.1218    1.9052   29.0999 C.3     1  UNL1        0.0311
     19 C          -2.7564    3.3834   25.6147 C.ar    1  UNL1        0.0001
     20 C          -3.3573    3.3799   24.2403 C.ar    1  UNL1        0.0009
     21 C          -4.7176    3.9707   24.0149 C.ar    1  UNL1        0.0114
     22 C          -5.4769    4.5650   25.1639 C.ar    1  UNL1        0.0577
     23 CL         -6.8371    5.1557   24.9385 Cl      1  UNL1       -0.0822
     24 C          -4.8760    4.5685   26.5383 C.ar    1  UNL1        0.0114
     25 C          -3.5158    3.9777   26.7637 C.ar    1  UNL1        0.0009
     26 C           2.2013   -0.6324   30.0918 C.3     1  UNL1        0.1118
     27 N           4.1251    0.1415   33.4756 N.3     1  UNL1       -0.2726
     28 C           3.7349    1.5719   33.7028 C.3     1  UNL1        0.0721
     29 C           2.8334    2.2676   32.7263 C.3     1  UNL1        0.0174
     30 C           2.3223    1.5328   31.5226 C.3     1  UNL1        0.0048
     31 C           2.7125    0.1023   31.2955 C.3     1  UNL1        0.0388
     32 C           3.6139   -0.5933   32.2719 C.3     1  UNL1        0.0740
     33 C           4.8361   -0.3494   35.9258 C.3     1  UNL1        0.0188
     34 C           5.0264   -0.5542   34.4521 C.3     1  UNL1        0.0721
@<TRIPOS>BOND
     1    33    34    1
     2    34    27    1
     3    27    28    1
     4    28    29    1
     5    29    30    1
     6    30    31    1
     7    31    26    1
     8    26     1    1
     9     1     2   ar
    10     2    12    1
    11    12    13   ar
    12    13    14   ar
    13    14    15   ar
    14    15    16   ar
    15    16    17   ar
    16    17    18    1
    17     2     3   ar
    18     3     4   ar
    19     4     5   ar
    20     5     6   ar
    21     6     7   ar
    22     7    19    1
    23    19    20   ar
    24    20    21   ar
    25    21    22   ar
    26    22    23    1
    27    22    24   ar
    28    24    25   ar
    29     7     8   ar
    30     8     9   ar
    31     9    10   ar
    32    10    11    2
    33    31    32    1
    34    32    27    1
    35    10     1   ar
    36    17    12   ar
    37     9     4   ar
    38    25    19   ar
@<TRIPOS>MOLECULE
*****
 34 38 0 0 0
SMALL
GASTEIGER

@<TRIPOS>ATOM
      1 N          -0.7457    3.5017   20.9199 N.ar    1  UNL1       -0.2806
      2 C          -0.8335    3.4549   19.4232 C.ar    1  UNL1        0.1456
      3 N          -0.0426    2.4365   18.6570 N.ar    1  UNL1       -0.2281
      4 C           0.8362    1.4647   19.3874 C.ar    1  UNL1        0.0875
      5 C           1.6271    0.4463   18.6212 C.ar    1  UNL1        0.0193
      6 C           2.5058   -0.5254   19.3516 C.ar    1  UNL1        0.0015
      7 C           2.5937   -0.4787   20.8483 C.ar    1  UNL1        0.0002
      8 C           1.8027    0.5398   21.6146 C.ar    1  UNL1        0.0063
      9 C           0.9240    1.5115   20.8841 C.ar    1  UNL1        0.0739
     10 C           0.1330    2.5300   21.6504 C.ar    1  UNL1        0.2633
     11 O           0.2208    2.5767   23.1471 O.2     1  UNL1       -0.2669
     12 C          -1.7123    4.4267   18.6928 C.ar    1  UNL1        0.0303
     13 C          -3.1228    4.0500   18.3483 C.ar    1  UNL1        0.0027
     14 C          -4.0015    5.0217   17.6179 C.ar    1  UNL1        0.0001
     15 C          -3.4697    6.3702   17.2320 C.ar    1  UNL1       -0.0003
     16 C          -2.0593    6.7469   17.5765 C.ar    1  UNL1       -0.0042
     17 C          -1.1806    5.7751   18.3069 C.ar    1  UNL1       -0.0189
     18 C           0.2299    6.1518   18.6514 C.3     1  UNL1        0.0311
     19 C           3.4725   -1.4504   21.5788 C.ar    1  UNL1        0.0001
     20 C           3.6819   -1.3075   23.0571 C.ar    1  UNL1        0.0009
     21 C           4.5607   -2.2793   23.7876 C.ar    1  UNL1        0.0114
     22 C           5.2300   -3.3939   23.0396 C.ar    1  UNL1        0.0577
     23 CL          6.1088   -4.3657   23.7699 Cl      1  UNL1       -0.0822
     24 C           5.0205   -3.5368   21.5611 C.ar    1  UNL1        0.0114
     25 C           4.1418   -2.5651   20.8307 C.ar    1  UNL1        0.0009
     26 C          -1.5367    4.5202   21.6862 C.3     1  UNL1        0.1118
     27 N          -3.8417    3.7932   24.8339 N.3     1  UNL1       -0.2726
     28 C          -5.0616    3.2293   24.1678 C.3     1  UNL1        0.0721
     29 C          -5.1066    3.0957   22.6744 C.3     1  UNL1        0.0174
     30 C          -3.9317    3.5260   21.8472 C.3     1  UNL1        0.0048
     31 C          -2.7117    4.0899   22.5134 C.3     1  UNL1        0.0388
     32 C          -2.6667    4.2235   24.0067 C.3     1  UNL1        0.0740
     33 C          -4.6614    4.9407   27.0160 C.3     1  UNL1        0.0188
     34 C          -3.7967    3.9267   26.3273 C.3     1  UNL1        0.0721
@<TRIPOS>BOND
     1    33    34    1
     2    34    27    1
     3    27    28    1
     4    28    29    1
     5    29    30    1
     6    30    31    1
     7    31    26    1
     8    26     1    1
     9     1     2   ar
    10     2    12    1
    11    12    13   ar
    12    13    14   ar
    13    14    15   ar
    14    15    16   ar
    15    16    17   ar
    16    17    18    1
    17     2     3   ar
    18     3     4   ar
    19     4     5   ar
    20     5     6   ar
    21     6     7   ar
    22     7    19    1
    23    19    20   ar
    24    20    21   ar
    25    21    22   ar
    26    22    23    1
    27    22    24   ar
    28    24    25   ar
    29     7     8   ar
    30     8     9   ar
    31     9    10   ar
    32    10    11    2
    33    31    32    1
    34    32    27    1
    35    10     1   ar
    36    17    12   ar
    37     9     4   ar
    38    25    19   ar
@<TRIPOS>MOLECULE
*****
 34 38 0 0 0
SMALL
GASTEIGER

@<TRIPOS>ATOM
      1 N           3.7752    1.6111   20.5967 N.ar    1  UNL1       -0.2806
      2 C           3.6926    1.9583   19.1398 C.ar    1  UNL1        0.1456
      3 N           2.4222    2.5198   18.5734 N.ar    1  UNL1       -0.2281
      4 C           1.2343    2.7342   19.4640 C.ar    1  UNL1        0.0875
      5 C          -0.0360    3.2957   18.8976 C.ar    1  UNL1        0.0193
      6 C          -1.2238    3.5101   19.7882 C.ar    1  UNL1        0.0015
      7 C          -1.1412    3.1629   21.2451 C.ar    1  UNL1        0.0002
      8 C           0.1291    2.6013   21.8115 C.ar    1  UNL1        0.0063
      9 C           1.3169    2.3870   20.9209 C.ar    1  UNL1        0.0739
     10 C           2.5874    1.8254   21.4872 C.ar    1  UNL1        0.2633
     11 O           2.6699    1.4782   22.9442 O.2     1  UNL1       -0.2669
     12 C           4.8805    1.7439   18.2492 C.ar    1  UNL1        0.0303
     13 C           5.9943    2.7484   18.2298 C.ar    1  UNL1        0.0027
     14 C           7.1821    2.5339   17.3392 C.ar    1  UNL1        0.0001
     15 C           7.2561    1.3151   16.4681 C.ar    1  UNL1       -0.0003
     16 C           6.1423    0.3106   16.4875 C.ar    1  UNL1       -0.0042
     17 C           4.9545    0.5250   17.3781 C.ar    1  UNL1       -0.0189
     18 C           3.8406   -0.4795   17.3975 C.3     1  UNL1        0.0311
     19 C          -2.3291    3.3773   22.1357 C.ar    1  UNL1        0.0001
     20 C          -2.1321    3.6290   23.6012 C.ar    1  UNL1        0.0009
     21 C          -3.3200    3.8434   24.4917 C.ar    1  UNL1        0.0114
     22 C          -4.7049    3.8060   23.9167 C.ar    1  UNL1        0.0577
     23 CL         -5.8927    4.0204   24.8072 Cl      1  UNL1       -0.0822
     24 C          -4.9019    3.5543   22.4511 C.ar    1  UNL1        0.0114
     25 C          -3.7140    3.3399   21.5606 C.ar    1  UNL1        0.0009
     26 C           5.0456    1.0495   21.1630 C.3     1  UNL1        0.1118
     27 N           5.0671   -2.8379   20.3644 N.3     1  UNL1       -0.2726
     28 C           6.4751   -3.0200   19.8804 C.3     1  UNL1        0.0721
     29 C           7.4067   -1.8457   19.8238 C.3     1  UNL1        0.0174
     30 C           6.9302   -0.4891   20.2514 C.3     1  UNL1        0.0048
     31 C           5.5221   -0.3070   20.7355 C.3     1  UNL1        0.0388
     32 C           4.5906   -1.4813   20.7920 C.3     1  UNL1        0.0740
     33 C           3.7087   -4.6925   19.1541 C.3     1  UNL1        0.0188
     34 C           4.1357   -4.0122   20.4209 C.3     1  UNL1        0.0721
@<TRIPOS>BOND
     1    33    34    1
     2    34    27    1
     3    27    28    1
     4    28    29    1
     5    29    30    1
     6    30    31    1
     7    31    26    1
     8    26     1    1
     9     1     2   ar
    10     2    12    1
    11    12    13   ar
    12    13    14   ar
    13    14    15   ar
    14    15    16   ar
    15    16    17   ar
    16    17    18    1
    17     2     3   ar
    18     3     4   ar
    19     4     5   ar
    20     5     6   ar
    21     6     7   ar
    22     7    19    1
    23    19    20   ar
    24    20    21   ar
    25    21    22   ar
    26    22    23    1
    27    22    24   ar
    28    24    25   ar
    29     7     8   ar
    30     8     9   ar
    31     9    10   ar
    32    10    11    2
    33    31    32    1
    34    32    27    1
    35    10     1   ar
    36    17    12   ar
    37     9     4   ar
    38    25    19   ar
@<TRIPOS>MOLECULE
*****
 34 38 0 0 0
SMALL
GASTEIGER

@<TRIPOS>ATOM
      1 N          -0.8800    3.6599   20.4123 N.ar    1  UNL1       -0.2806
      2 C          -0.8782    3.5632   18.9154 C.ar    1  UNL1        0.1456
      3 N          -0.0373    2.5261   18.2318 N.ar    1  UNL1       -0.2281
      4 C           0.8018    1.5856   19.0451 C.ar    1  UNL1        0.0875
      5 C           1.6426    0.5485   18.3615 C.ar    1  UNL1        0.0193
      6 C           2.4817   -0.3920   19.1748 C.ar    1  UNL1        0.0015
      7 C           2.4799   -0.2953   20.6717 C.ar    1  UNL1        0.0002
      8 C           1.6390    0.7418   21.3553 C.ar    1  UNL1        0.0063
      9 C           0.8000    1.6822   20.5420 C.ar    1  UNL1        0.0739
     10 C          -0.0410    2.7194   21.2256 C.ar    1  UNL1        0.2633
     11 O          -0.0428    2.8161   22.7224 O.2     1  UNL1       -0.2669
     12 C          -1.7173    4.5038   18.1021 C.ar    1  UNL1        0.0303
     13 C          -3.0634    4.0683   17.6040 C.ar    1  UNL1        0.0027
     14 C          -3.9025    5.0088   16.7908 C.ar    1  UNL1        0.0001
     15 C          -3.3953    6.3848   16.4756 C.ar    1  UNL1       -0.0003
     16 C          -2.0492    6.8203   16.9737 C.ar    1  UNL1       -0.0042
     17 C          -1.2101    5.8798   17.7869 C.ar    1  UNL1       -0.0189
     18 C           0.1361    6.3153   18.2850 C.3     1  UNL1        0.0311
     19 C           3.3190   -1.2358   21.4850 C.ar    1  UNL1        0.0001
     20 C           3.4886   -1.0072   22.9577 C.ar    1  UNL1        0.0009
     21 C           4.3277   -1.9477   23.7710 C.ar    1  UNL1        0.0114
     22 C           4.9971   -3.1169   23.1115 C.ar    1  UNL1        0.0577
     23 CL          5.8362   -4.0574   23.9247 Cl      1  UNL1       -0.0822
     24 C           4.8275   -3.3455   21.6387 C.ar    1  UNL1        0.0114
     25 C           3.9884   -2.4050   20.8255 C.ar    1  UNL1        0.0009
     26 C          -1.7209    4.6971   21.0959 C.3     1  UNL1        0.1118
     27 N          -5.6690    4.3122   21.2155 N.3     1  UNL1       -0.2726
     28 C          -5.8488    3.6472   22.5479 C.3     1  UNL1        0.0721
     29 C          -4.6526    3.3322   23.3964 C.3     1  UNL1        0.0174
     30 C          -3.2766    3.6821   22.9124 C.3     1  UNL1        0.0048
     31 C          -3.0969    4.3471   21.5799 C.3     1  UNL1        0.0388
     32 C          -4.2931    4.6621   20.7314 C.3     1  UNL1        0.0740
     33 C          -6.9146    4.1676   18.9400 C.3     1  UNL1        0.0188
     34 C          -6.8652    4.6272   20.3670 C.3     1  UNL1        0.0721
@<TRIPOS>BOND
     1    33    34    1
     2    34    27    1
     3    27    28    1
     4    28    29    1
     5    29    30    1
     6    30    31    1
     7    31    26    1
     8    26     1    1
     9     1     2   ar
    10     2    12    1
    11    12    13   ar
    12    13    14   ar
    13    14    15   ar
    14    15    16   ar
    15    16    17   ar
    16    17    18    1
    17     2     3   ar
    18     3     4   ar
    19     4     5   ar
    20     5     6   ar
    21     6     7   ar
    22     7    19    1
    23    19    20   ar
    24    20    21   ar
    25    21    22   ar
    26    22    23    1
    27    22    24   ar
    28    24    25   ar
    29     7     8   ar
    30     8     9   ar
    31     9    10   ar
    32    10    11    2
    33    31    32    1
    34    32    27    1
    35    10     1   ar
    36    17    12   ar
    37     9     4   ar
    38    25    19   ar
