@<TRIPOS>MOLECULE
*****
 17 19 0 0 0
SMALL
GASTEIGER

@<TRIPOS>ATOM
      1 N         -10.3715  -19.9958   25.3634 N.pl3   1  UNL1       -0.3572
      2 C          -9.9850  -18.7986   24.5465 C.ar    1  UNL1        0.0400
      3 C          -9.3351  -17.6187   25.2063 C.ar    1  UNL1        0.0043
      4 C          -8.9486  -16.4214   24.3894 C.ar    1  UNL1        0.0561
      5 N          -9.2120  -16.4041   22.9129 N.ar    1  UNL1       -0.2499
      6 C          -9.8619  -17.5841   22.2531 C.ar    1  UNL1        0.0820
      7 C         -10.1253  -17.5668   20.7765 C.ar    1  UNL1        0.0191
      8 C         -10.7753  -18.7467   20.1168 C.ar    1  UNL1        0.0015
      9 C         -11.1618  -19.9439   20.9336 C.ar    1  UNL1        0.0001
     10 C         -10.8984  -19.9613   22.4102 C.ar    1  UNL1        0.0027
     11 C         -10.2485  -18.7813   23.0699 C.ar    1  UNL1        0.0303
     12 C          -8.2986  -15.2414   25.0493 C.3     1  UNL1        0.0455
     13 C          -8.0352  -15.2587   26.5258 C.3     1  UNL1        0.0066
     14 C          -8.4217  -16.4560   27.3426 C.3     1  UNL1        0.0052
     15 C          -9.0716  -17.6359   26.6829 C.3     1  UNL1        0.0288
     16 H         -10.1986  -20.0072   26.3325 H       1  UNL1        0.1423
     17 H         -10.7981  -20.7703   24.9303 H       1  UNL1        0.1423
@<TRIPOS>BOND
     1     1     2    1
     2     2     3   ar
     3     3     4   ar
     4     4     5   ar
     5     5     6   ar
     6     6     7   ar
     7     7     8   ar
     8     8     9   ar
     9     9    10   ar
    10    10    11   ar
    11     4    12    1
    12    12    13    1
    13    13    14    1
    14    14    15    1
    15    11     2   ar
    16    15     3    1
    17    11     6   ar
    18     1    16    1
    19     1    17    1
@<TRIPOS>MOLECULE
*****
 17 19 0 0 0
SMALL
GASTEIGER

@<TRIPOS>ATOM
      1 N         -10.3717  -19.9958   25.3635 N.pl3   1  UNL1       -0.3572
      2 C          -9.9851  -18.7986   24.5466 C.ar    1  UNL1        0.0400
      3 C         -10.2484  -18.7814   23.0700 C.ar    1  UNL1        0.0043
      4 C          -9.8618  -17.5843   22.2531 C.ar    1  UNL1        0.0561
      5 N          -9.2118  -16.4043   22.9128 N.ar    1  UNL1       -0.2499
      6 C          -8.9484  -16.4215   24.3895 C.ar    1  UNL1        0.0820
      7 C          -8.2985  -15.2415   25.0491 C.ar    1  UNL1        0.0191
      8 C          -8.0351  -15.2588   26.5257 C.ar    1  UNL1        0.0015
      9 C          -8.4218  -16.4559   27.3426 C.ar    1  UNL1        0.0001
     10 C          -9.0717  -17.6359   26.6829 C.ar    1  UNL1        0.0027
     11 C          -9.3351  -17.6187   25.2064 C.ar    1  UNL1        0.0303
     12 C         -10.1251  -17.5671   20.7765 C.3     1  UNL1        0.0455
     13 C         -10.7751  -18.7471   20.1168 C.3     1  UNL1        0.0066
     14 C         -11.1617  -19.9442   20.9337 C.3     1  UNL1        0.0052
     15 C         -10.8984  -19.9614   22.4103 C.3     1  UNL1        0.0288
     16 H         -10.7983  -20.7703   24.9305 H       1  UNL1        0.1423
     17 H         -10.1989  -20.0071   26.3326 H       1  UNL1        0.1423
@<TRIPOS>BOND
     1     1     2    1
     2     2     3   ar
     3     3     4   ar
     4     4     5   ar
     5     5     6   ar
     6     6     7   ar
     7     7     8   ar
     8     8     9   ar
     9     9    10   ar
    10    10    11   ar
    11     4    12    1
    12    12    13    1
    13    13    14    1
    14    14    15    1
    15    11     2   ar
    16    15     3    1
    17    11     6   ar
    18     1    16    1
    19     1    17    1
@<TRIPOS>MOLECULE
*****
 17 19 0 0 0
SMALL
GASTEIGER

@<TRIPOS>ATOM
      1 N          -7.8211  -14.9719   21.8508 N.pl3   1  UNL1       -0.3572
      2 C          -8.5477  -15.7776   22.8866 C.ar    1  UNL1        0.0400
      3 C          -8.0348  -15.8255   24.2953 C.ar    1  UNL1        0.0043
      4 C          -8.7614  -16.6312   25.3311 C.ar    1  UNL1        0.0561
      5 N         -10.0010  -17.3890   24.9581 N.ar    1  UNL1       -0.2499
      6 C         -10.5141  -17.3411   23.5494 C.ar    1  UNL1        0.0820
      7 C         -11.7537  -18.0989   23.1764 C.ar    1  UNL1        0.0191
      8 C         -12.2666  -18.0510   21.7677 C.ar    1  UNL1        0.0015
      9 C         -11.5400  -17.2453   20.7319 C.ar    1  UNL1        0.0001
     10 C         -10.3004  -16.4875   21.1049 C.ar    1  UNL1        0.0027
     11 C          -9.7874  -16.5354   22.5136 C.ar    1  UNL1        0.0303
     12 C          -8.2484  -16.6791   26.7398 C.3     1  UNL1        0.0455
     13 C          -7.0088  -15.9214   27.1128 C.3     1  UNL1        0.0066
     14 C          -6.2822  -15.1157   26.0770 C.3     1  UNL1        0.0052
     15 C          -6.7951  -15.0677   24.6683 C.3     1  UNL1        0.0288
     16 H          -7.0075  -14.4746   22.0956 H       1  UNL1        0.1423
     17 H          -8.1578  -14.9405   20.9262 H       1  UNL1        0.1423
@<TRIPOS>BOND
     1     1     2    1
     2     2     3   ar
     3     3     4   ar
     4     4     5   ar
     5     5     6   ar
     6     6     7   ar
     7     7     8   ar
     8     8     9   ar
     9     9    10   ar
    10    10    11   ar
    11     4    12    1
    12    12    13    1
    13    13    14    1
    14    14    15    1
    15    11     2   ar
    16    15     3    1
    17    11     6   ar
    18     1    16    1
    19     1    17    1
@<TRIPOS>MOLECULE
*****
 17 19 0 0 0
SMALL
GASTEIGER

@<TRIPOS>ATOM
      1 N          -7.9587  -15.0574   21.6409 N.pl3   1  UNL1       -0.3572
      2 C          -8.6533  -15.8269   22.7251 C.ar    1  UNL1        0.0400
      3 C          -9.9093  -16.5874   22.4184 C.ar    1  UNL1        0.0043
      4 C         -10.6039  -17.3568   23.5026 C.ar    1  UNL1        0.0561
      5 N         -10.0425  -17.3657   24.8935 N.ar    1  UNL1       -0.2499
      6 C          -8.7865  -16.6052   25.2003 C.ar    1  UNL1        0.0820
      7 C          -8.2251  -16.6141   26.5912 C.ar    1  UNL1        0.0191
      8 C          -6.9691  -15.8535   26.8979 C.ar    1  UNL1        0.0015
      9 C          -6.2745  -15.0841   25.8137 C.ar    1  UNL1        0.0001
     10 C          -6.8359  -15.0752   24.4228 C.ar    1  UNL1        0.0027
     11 C          -8.0919  -15.8357   24.1161 C.ar    1  UNL1        0.0303
     12 C         -11.8599  -18.1173   23.1958 C.3     1  UNL1        0.0455
     13 C         -12.4213  -18.1084   21.8049 C.3     1  UNL1        0.0066
     14 C         -11.7267  -17.3390   20.7207 C.3     1  UNL1        0.0052
     15 C         -10.4707  -16.5785   21.0274 C.3     1  UNL1        0.0288
     16 H          -8.3272  -15.0516   20.7279 H       1  UNL1        0.1423
     17 H          -7.1344  -14.5583   21.8422 H       1  UNL1        0.1423
@<TRIPOS>BOND
     1     1     2    1
     2     2     3   ar
     3     3     4   ar
     4     4     5   ar
     5     5     6   ar
     6     6     7   ar
     7     7     8   ar
     8     8     9   ar
     9     9    10   ar
    10    10    11   ar
    11     4    12    1
    12    12    13    1
    13    13    14    1
    14    14    15    1
    15    11     2   ar
    16    15     3    1
    17    11     6   ar
    18     1    16    1
    19     1    17    1
@<TRIPOS>MOLECULE
*****
 17 19 0 0 0
SMALL
GASTEIGER

@<TRIPOS>ATOM
      1 N          -7.1023  -17.9902   21.0553 N.pl3   1  UNL1       -0.3572
      2 C          -8.0077  -17.4059   22.0988 C.ar    1  UNL1        0.0400
      3 C          -7.4252  -16.6960   23.2847 C.ar    1  UNL1        0.0043
      4 C          -8.3306  -16.1117   24.3282 C.ar    1  UNL1        0.0561
      5 N          -9.8185  -16.2373   24.1857 N.ar    1  UNL1       -0.2499
      6 C         -10.4011  -16.9473   22.9997 C.ar    1  UNL1        0.0820
      7 C         -11.8889  -17.0729   22.8572 C.ar    1  UNL1        0.0191
      8 C         -12.4714  -17.7829   21.6712 C.ar    1  UNL1        0.0015
      9 C         -11.5661  -18.3672   20.6277 C.ar    1  UNL1        0.0001
     10 C         -10.0782  -18.2416   20.7702 C.ar    1  UNL1        0.0027
     11 C          -9.4957  -17.5316   21.9562 C.ar    1  UNL1        0.0303
     12 C          -7.7480  -15.4017   25.5143 C.3     1  UNL1        0.0455
     13 C          -6.2601  -15.2760   25.6568 C.3     1  UNL1        0.0066
     14 C          -5.3547  -15.8603   24.6133 C.3     1  UNL1        0.0052
     15 C          -5.9372  -16.5703   23.4273 C.3     1  UNL1        0.0288
     16 H          -6.1258  -17.9078   21.1488 H       1  UNL1        0.1423
     17 H          -7.4847  -18.4562   20.2769 H       1  UNL1        0.1423
@<TRIPOS>BOND
     1     1     2    1
     2     2     3   ar
     3     3     4   ar
     4     4     5   ar
     5     5     6   ar
     6     6     7   ar
     7     7     8   ar
     8     8     9   ar
     9     9    10   ar
    10    10    11   ar
    11     4    12    1
    12    12    13    1
    13    13    14    1
    14    14    15    1
    15    11     2   ar
    16    15     3    1
    17    11     6   ar
    18     1    16    1
    19     1    17    1
@<TRIPOS>MOLECULE
*****
 17 19 0 0 0
SMALL
GASTEIGER

@<TRIPOS>ATOM
      1 N          -7.0668  -18.0000   21.0486 N.pl3   1  UNL1       -0.3572
      2 C          -7.9758  -17.4167   22.0895 C.ar    1  UNL1        0.0400
      3 C          -9.4631  -17.5455   21.9437 C.ar    1  UNL1        0.0043
      4 C         -10.3721  -16.9622   22.9846 C.ar    1  UNL1        0.0561
      5 N          -9.7938  -16.2501   24.1713 N.ar    1  UNL1       -0.2499
      6 C          -8.3064  -16.1213   24.3172 C.ar    1  UNL1        0.0820
      7 C          -7.7281  -15.4091   25.5039 C.ar    1  UNL1        0.0191
      8 C          -6.2408  -15.2803   25.6497 C.ar    1  UNL1        0.0015
      9 C          -5.3319  -15.8636   24.6088 C.ar    1  UNL1        0.0001
     10 C          -5.9102  -16.5757   23.4221 C.ar    1  UNL1        0.0027
     11 C          -7.3975  -16.7046   23.2763 C.ar    1  UNL1        0.0303
     12 C         -11.8595  -17.0911   22.8387 C.3     1  UNL1        0.0455
     13 C         -12.4378  -17.8032   21.6520 C.3     1  UNL1        0.0066
     14 C         -11.5288  -18.3865   20.6110 C.3     1  UNL1        0.0052
     15 C         -10.0415  -18.2577   20.7569 C.3     1  UNL1        0.0288
     16 H          -7.4464  -18.4674   20.2697 H       1  UNL1        0.1423
     17 H          -6.0907  -17.9155   21.1443 H       1  UNL1        0.1423
@<TRIPOS>BOND
     1     1     2    1
     2     2     3   ar
     3     3     4   ar
     4     4     5   ar
     5     5     6   ar
     6     6     7   ar
     7     7     8   ar
     8     8     9   ar
     9     9    10   ar
    10    10    11   ar
    11     4    12    1
    12    12    13    1
    13    13    14    1
    14    14    15    1
    15    11     2   ar
    16    15     3    1
    17    11     6   ar
    18     1    16    1
    19     1    17    1
@<TRIPOS>MOLECULE
*****
 17 19 0 0 0
SMALL
GASTEIGER

@<TRIPOS>ATOM
      1 N          -9.6752  -19.9199   19.1769 N.pl3   1  UNL1       -0.3572
      2 C          -9.1939  -19.1176   20.3493 C.ar    1  UNL1        0.0400
      3 C          -7.7688  -19.2330   20.8028 C.ar    1  UNL1        0.0043
      4 C          -7.2874  -18.4306   21.9752 C.ar    1  UNL1        0.0561
      5 N          -8.2312  -17.5128   22.6941 N.ar    1  UNL1       -0.2499
      6 C          -9.6564  -17.3973   22.2406 C.ar    1  UNL1        0.0820
      7 C         -10.6001  -16.4795   22.9595 C.ar    1  UNL1        0.0191
      8 C         -12.0252  -16.3640   22.5060 C.ar    1  UNL1        0.0015
      9 C         -12.5066  -17.1664   21.3336 C.ar    1  UNL1        0.0001
     10 C         -11.5628  -18.0842   20.6147 C.ar    1  UNL1        0.0027
     11 C         -10.1377  -18.1997   21.0682 C.ar    1  UNL1        0.0303
     12 C          -5.8622  -18.5461   22.4287 C.3     1  UNL1        0.0455
     13 C          -4.9185  -19.4640   21.7098 C.3     1  UNL1        0.0066
     14 C          -5.3998  -20.2663   20.5374 C.3     1  UNL1        0.0052
     15 C          -6.8249  -20.1509   20.0839 C.3     1  UNL1        0.0288
     16 H          -9.0558  -20.5224   18.7051 H       1  UNL1        0.1423
     17 H         -10.6106  -19.8442   18.8793 H       1  UNL1        0.1423
@<TRIPOS>BOND
     1     1     2    1
     2     2     3   ar
     3     3     4   ar
     4     4     5   ar
     5     5     6   ar
     6     6     7   ar
     7     7     8   ar
     8     8     9   ar
     9     9    10   ar
    10    10    11   ar
    11     4    12    1
    12    12    13    1
    13    13    14    1
    14    14    15    1
    15    11     2   ar
    16    15     3    1
    17    11     6   ar
    18     1    16    1
    19     1    17    1
@<TRIPOS>MOLECULE
*****
 17 19 0 0 0
SMALL
GASTEIGER

@<TRIPOS>ATOM
      1 N          -9.6038  -19.9832   19.2040 N.pl3   1  UNL1       -0.3572
      2 C          -9.1387  -19.1554   20.3652 C.ar    1  UNL1        0.0400
      3 C         -10.0984  -18.2398   21.0657 C.ar    1  UNL1        0.0043
      4 C          -9.6333  -17.4120   22.2269 C.ar    1  UNL1        0.0561
      5 N          -8.2085  -17.4998   22.6876 N.ar    1  UNL1       -0.2499
      6 C          -7.2488  -18.4154   21.9872 C.ar    1  UNL1        0.0820
      7 C          -5.8240  -18.5032   22.4479 C.ar    1  UNL1        0.0191
      8 C          -4.8644  -19.4187   21.7474 C.ar    1  UNL1        0.0015
      9 C          -5.3294  -20.2465   20.5862 C.ar    1  UNL1        0.0001
     10 C          -6.7542  -20.1588   20.1255 C.ar    1  UNL1        0.0027
     11 C          -7.7138  -19.2432   20.8259 C.ar    1  UNL1        0.0303
     12 C         -10.5931  -16.4964   22.9273 C.3     1  UNL1        0.0455
     13 C         -12.0178  -16.4087   22.4666 C.3     1  UNL1        0.0066
     14 C         -12.4829  -17.2365   21.3054 C.3     1  UNL1        0.0052
     15 C         -11.5232  -18.1520   20.6049 C.3     1  UNL1        0.0288
     16 H         -10.5389  -19.9256   18.9016 H       1  UNL1        0.1423
     17 H          -8.9739  -20.5842   18.7442 H       1  UNL1        0.1423
@<TRIPOS>BOND
     1     1     2    1
     2     2     3   ar
     3     3     4   ar
     4     4     5   ar
     5     5     6   ar
     6     6     7   ar
     7     7     8   ar
     8     8     9   ar
     9     9    10   ar
    10    10    11   ar
    11     4    12    1
    12    12    13    1
    13    13    14    1
    14    14    15    1
    15    11     2   ar
    16    15     3    1
    17    11     6   ar
    18     1    16    1
    19     1    17    1
@<TRIPOS>MOLECULE
*****
 17 19 0 0 0
SMALL
GASTEIGER

@<TRIPOS>ATOM
      1 N          -7.8603  -16.6444   23.8667 N.pl3   1  UNL1       -0.3572
      2 C          -8.3206  -17.3970   22.6535 C.ar    1  UNL1        0.0400
      3 C          -9.7263  -17.2315   22.1569 C.ar    1  UNL1        0.0043
      4 C         -10.1866  -17.9841   20.9437 C.ar    1  UNL1        0.0561
      5 N          -9.2412  -18.9021   20.2271 N.ar    1  UNL1       -0.2499
      6 C          -7.8355  -19.0675   20.7237 C.ar    1  UNL1        0.0820
      7 C          -6.8901  -19.9855   20.0072 C.ar    1  UNL1        0.0191
      8 C          -5.4844  -20.1510   20.5038 C.ar    1  UNL1        0.0015
      9 C          -5.0241  -19.3984   21.7169 C.ar    1  UNL1        0.0001
     10 C          -5.9695  -18.4804   22.4335 C.ar    1  UNL1        0.0027
     11 C          -7.3752  -18.3150   21.9369 C.ar    1  UNL1        0.0303
     12 C         -11.5924  -17.8186   20.4471 C.3     1  UNL1        0.0455
     13 C         -12.5378  -16.9006   21.1637 C.3     1  UNL1        0.0066
     14 C         -12.0775  -16.1481   22.3769 C.3     1  UNL1        0.0052
     15 C         -10.6718  -16.3135   22.8735 C.3     1  UNL1        0.0288
     16 H          -8.4808  -16.0419   24.3370 H       1  UNL1        0.1423
     17 H          -6.9377  -16.7530   24.1926 H       1  UNL1        0.1423
@<TRIPOS>BOND
     1     1     2    1
     2     2     3   ar
     3     3     4   ar
     4     4     5   ar
     5     5     6   ar
     6     6     7   ar
     7     7     8   ar
     8     8     9   ar
     9     9    10   ar
    10    10    11   ar
    11     4    12    1
    12    12    13    1
    13    13    14    1
    14    14    15    1
    15    11     2   ar
    16    15     3    1
    17    11     6   ar
    18     1    16    1
    19     1    17    1
