@<TRIPOS>MOLECULE
*****
 31 34 0 0 0
SMALL
GASTEIGER

@<TRIPOS>ATOM
      1 C           4.4326   -2.8283   20.8143 C.3     1  UNL1        0.1160
      2 C           5.1366   -3.3735   22.0215 C.ar    1  UNL1        0.0960
      3 N           5.9733   -4.5108   22.5277 N.ar    1  UNL1       -0.1681
      4 N           6.2756   -4.2556   23.9746 N.ar    1  UNL1       -0.2287
      5 C           5.6257   -2.9606   24.3626 C.ar    1  UNL1        0.0990
      6 C           4.9218   -2.4153   23.1554 C.ar    1  UNL1        0.0337
      7 C           4.0851   -1.2780   22.6491 C.3     1  UNL1        0.1220
      8 N           3.7827   -1.5332   21.2022 N.pl3   1  UNL1       -0.2853
      9 C           7.0855   -5.1402   24.8754 C.ar    1  UNL1        0.0841
     10 C           8.0838   -6.0944   24.2898 C.ar    1  UNL1        0.0192
     11 C           8.8937   -6.9789   25.1907 C.ar    1  UNL1        0.0029
     12 C           8.7055   -6.9093   26.6772 C.ar    1  UNL1        0.0184
     13 C           7.7072   -5.9551   27.2629 C.ar    1  UNL1        0.1072
     14 C           6.8973   -5.0706   26.3619 C.ar    1  UNL1        0.0375
     15 S           7.5189   -5.8854   28.7493 S.O2    1  UNL1        0.0105
     16 C           7.3305   -5.8157   30.2358 C.3     1  UNL1        0.1816
     17 O           8.8922   -6.4543   28.9501 O.2     1  UNL1       -0.1686
     18 O           6.1455   -5.3165   28.5486 O.2     1  UNL1       -0.1686
     19 C           2.9728   -0.6486   20.3014 C.ar    1  UNL1        0.1354
     20 C           1.8093    0.1205   20.8538 C.ar    1  UNL1        0.0574
     21 C           0.9994    1.0050   19.9530 C.ar    1  UNL1        0.1571
     22 N           1.3528    1.1206   18.4998 N.ar    1  UNL1       -0.2199
     23 C           2.5162    0.3515   17.9474 C.ar    1  UNL1        0.2000
     24 N           3.3261   -0.5331   18.8483 N.ar    1  UNL1       -0.2090
     25 C          -0.1640    1.7741   20.5054 C.3     1  UNL1        0.4350
     26 F          -1.3274    2.5432   21.0577 F       1  UNL1       -0.1644
     27 F           0.0068    1.0839   21.8262 F       1  UNL1       -0.1644
     28 F          -0.3347    2.4643   19.1846 F       1  UNL1       -0.1644
     29 C           3.2594   -4.3892   19.1006 C.3     1  UNL1        0.0021
     30 C           4.3866   -3.4661   19.4575 C.3     1  UNL1        0.0240
     31 C           5.4677   -3.1809   18.4575 C.3     1  UNL1        0.0021
@<TRIPOS>BOND
     1    29    30    1
     2    30    31    1
     3     1    30    1
     4     1     2    1
     5     2     3   ar
     6     3     4   ar
     7     4     9    1
     8     9    10   ar
     9    10    11   ar
    10    11    12   ar
    11    12    13   ar
    12    13    15    1
    13    15    16    1
    14    15    17    2
    15    15    18    2
    16    13    14   ar
    17     4     5   ar
    18     5     6   ar
    19     6     7    1
    20     7     8    1
    21     8    19    1
    22    19    20   ar
    23    20    21   ar
    24    21    25    1
    25    25    26    1
    26    25    27    1
    27    25    28    1
    28    21    22   ar
    29    22    23   ar
    30    23    24   ar
    31     8     1    1
    32    24    19   ar
    33     6     2   ar
    34    14     9   ar
@<TRIPOS>MOLECULE
*****
 31 34 0 0 0
SMALL
GASTEIGER

@<TRIPOS>ATOM
      1 C           7.3301   -4.9290   25.7459 C.3     1  UNL1        0.1160
      2 C           6.7158   -4.3523   24.5050 C.ar    1  UNL1        0.0960
      3 N           6.4426   -4.6113   23.0530 N.ar    1  UNL1       -0.1681
      4 N           5.7218   -3.4191   22.4971 N.ar    1  UNL1       -0.2287
      5 C           5.5494   -2.4232   23.6055 C.ar    1  UNL1        0.0990
      6 C           6.1637   -3.0000   24.8465 C.ar    1  UNL1        0.0337
      7 C           6.4369   -2.7409   26.2985 C.3     1  UNL1        0.1220
      8 N           7.1578   -3.9332   26.8544 N.pl3   1  UNL1       -0.2853
      9 C           5.2551   -3.2520   21.0814 C.ar    1  UNL1        0.0841
     10 C           4.1981   -4.1610   20.5279 C.ar    1  UNL1        0.0192
     11 C           3.7315   -3.9939   19.1120 C.ar    1  UNL1        0.0029
     12 C           4.3220   -2.9178   18.2498 C.ar    1  UNL1        0.0184
     13 C           5.3790   -2.0089   18.8033 C.ar    1  UNL1        0.1072
     14 C           5.8456   -2.1760   20.2191 C.ar    1  UNL1        0.0375
     15 S           5.9695   -0.9328   17.9411 S.O2    1  UNL1        0.0105
     16 C           6.5600    0.1433   17.0790 C.3     1  UNL1        0.1816
     17 O           6.9173   -1.9307   17.3446 O.2     1  UNL1       -0.1686
     18 O           5.0217    0.0652   18.5377 O.2     1  UNL1       -0.1686
     19 C           7.6244   -4.1002   28.2701 C.ar    1  UNL1        0.1354
     20 C           6.7034   -3.7703   29.4073 C.ar    1  UNL1        0.0574
     21 C           7.1700   -3.9373   30.8229 C.ar    1  UNL1        0.1571
     22 N           8.5576   -4.4343   31.1017 N.ar    1  UNL1       -0.2199
     23 C           9.4786   -4.7642   29.9646 C.ar    1  UNL1        0.2000
     24 N           9.0119   -4.5971   28.5488 N.ar    1  UNL1       -0.2090
     25 C           6.2490   -3.6074   31.9601 C.3     1  UNL1        0.4350
     26 F           5.3280   -3.2775   33.0972 F       1  UNL1       -0.1644
     27 F           5.9971   -2.2543   31.3635 F       1  UNL1       -0.1644
     28 F           6.5009   -4.9604   32.5566 F       1  UNL1       -0.1644
     29 C           9.4264   -6.4301   25.4266 C.3     1  UNL1        0.0021
     30 C           7.9993   -6.2667   25.8587 C.3     1  UNL1        0.0240
     31 C           7.2415   -7.4409   26.4036 C.3     1  UNL1        0.0021
@<TRIPOS>BOND
     1    29    30    1
     2    30    31    1
     3     1    30    1
     4     1     2    1
     5     2     3   ar
     6     3     4   ar
     7     4     9    1
     8     9    10   ar
     9    10    11   ar
    10    11    12   ar
    11    12    13   ar
    12    13    15    1
    13    15    16    1
    14    15    17    2
    15    15    18    2
    16    13    14   ar
    17     4     5   ar
    18     5     6   ar
    19     6     7    1
    20     7     8    1
    21     8    19    1
    22    19    20   ar
    23    20    21   ar
    24    21    25    1
    25    25    26    1
    26    25    27    1
    27    25    28    1
    28    21    22   ar
    29    22    23   ar
    30    23    24   ar
    31     8     1    1
    32    24    19   ar
    33     6     2   ar
    34    14     9   ar
@<TRIPOS>MOLECULE
*****
 31 34 0 0 0
SMALL
GASTEIGER

@<TRIPOS>ATOM
      1 C           5.0397   -2.8946   20.6840 C.3     1  UNL1        0.1160
      2 C           5.7357   -3.5946   21.8134 C.ar    1  UNL1        0.0960
      3 N           6.6729   -4.7155   22.1528 N.ar    1  UNL1       -0.1681
      4 N           6.8618   -4.7272   23.6408 N.ar    1  UNL1       -0.2287
      5 C           6.0414   -3.6135   24.2211 C.ar    1  UNL1        0.0990
      6 C           5.3454   -2.9135   23.0917 C.ar    1  UNL1        0.0337
      7 C           4.4083   -1.7926   22.7523 C.3     1  UNL1        0.1220
      8 N           4.2193   -1.7808   21.2642 N.pl3   1  UNL1       -0.2853
      9 C           7.7204   -5.6846   24.4130 C.ar    1  UNL1        0.0841
     10 C           8.5621   -6.6911   23.6862 C.ar    1  UNL1        0.0192
     11 C           9.4207   -7.6485   24.4585 C.ar    1  UNL1        0.0029
     12 C           9.4376   -7.5992   25.9576 C.ar    1  UNL1        0.0184
     13 C           8.5960   -6.5926   26.6845 C.ar    1  UNL1        0.1072
     14 C           7.7374   -5.6353   25.9121 C.ar    1  UNL1        0.0375
     15 S           8.6128   -6.5432   28.1835 S.O2    1  UNL1        0.0105
     16 C           8.6297   -6.4940   29.6826 C.3     1  UNL1        0.1816
     17 O           8.6710   -5.0452   28.1336 O.2     1  UNL1       -0.1686
     18 O           8.5546   -8.0414   28.2334 O.2     1  UNL1       -0.1686
     19 C           3.3607   -0.8236   20.4920 C.ar    1  UNL1        0.1354
     20 C           3.9893    0.3248   19.7598 C.ar    1  UNL1        0.0574
     21 C           3.1308    1.2821   18.9876 C.ar    1  UNL1        0.1571
     22 N           1.6434    1.0911   18.9476 N.ar    1  UNL1       -0.2199
     23 C           1.0148   -0.0572   19.6798 C.ar    1  UNL1        0.2000
     24 N           1.8735   -1.0145   20.4520 N.ar    1  UNL1       -0.2090
     25 C           3.7594    2.4305   18.2554 C.3     1  UNL1        0.4350
     26 F           4.3880    3.5788   17.5232 F       1  UNL1       -0.1644
     27 F           2.4453    3.1540   18.2619 F       1  UNL1       -0.1644
     28 F           5.0733    1.7070   18.2489 F       1  UNL1       -0.1644
     29 C           5.9883   -2.4084   18.3147 C.3     1  UNL1        0.0021
     30 C           5.1455   -3.2465   19.2297 C.3     1  UNL1        0.0240
     31 C           4.4084   -4.4364   18.6904 C.3     1  UNL1        0.0021
@<TRIPOS>BOND
     1    29    30    1
     2    30    31    1
     3     1    30    1
     4     1     2    1
     5     2     3   ar
     6     3     4   ar
     7     4     9    1
     8     9    10   ar
     9    10    11   ar
    10    11    12   ar
    11    12    13   ar
    12    13    15    1
    13    15    16    1
    14    15    17    2
    15    15    18    2
    16    13    14   ar
    17     4     5   ar
    18     5     6   ar
    19     6     7    1
    20     7     8    1
    21     8    19    1
    22    19    20   ar
    23    20    21   ar
    24    21    25    1
    25    25    26    1
    26    25    27    1
    27    25    28    1
    28    21    22   ar
    29    22    23   ar
    30    23    24   ar
    31     8     1    1
    32    24    19   ar
    33     6     2   ar
    34    14     9   ar
@<TRIPOS>MOLECULE
*****
 31 34 0 0 0
SMALL
GASTEIGER

@<TRIPOS>ATOM
      1 C         -13.5570   -3.0567   18.3722 C.3     1  UNL1        0.1160
      2 C         -14.7502   -2.3143   18.8968 C.ar    1  UNL1        0.0960
      3 N         -15.2680   -0.9559   19.2664 N.ar    1  UNL1       -0.1681
      4 N         -16.6808   -1.1131   19.7455 N.ar    1  UNL1       -0.2287
      5 C         -17.0360   -2.5686   19.6718 C.ar    1  UNL1        0.0990
      6 C         -15.8428   -3.3110   19.1473 C.ar    1  UNL1        0.0337
      7 C         -15.3250   -4.6693   18.7776 C.3     1  UNL1        0.1220
      8 N         -13.9121   -4.5122   18.2986 N.pl3   1  UNL1       -0.2853
      9 C         -17.5804   -0.0087   20.2156 C.ar    1  UNL1        0.0841
     10 C         -18.9445    0.1551   19.6136 C.ar    1  UNL1        0.0192
     11 C         -19.8440    1.2596   20.0838 C.ar    1  UNL1        0.0029
     12 C         -19.3795    2.2002   21.1559 C.ar    1  UNL1        0.0184
     13 C         -18.0155    2.0364   21.7579 C.ar    1  UNL1        0.1072
     14 C         -17.1159    0.9319   21.2877 C.ar    1  UNL1        0.0375
     15 S         -17.5509    2.9769   22.8300 S.O2    1  UNL1        0.0105
     16 C         -17.0863    3.9176   23.9021 C.3     1  UNL1        0.1816
     17 O         -17.9540    1.9820   23.8777 O.2     1  UNL1       -0.1686
     18 O         -17.1478    3.9720   21.7823 O.2     1  UNL1       -0.1686
     19 C         -13.0126   -5.6166   17.8285 C.ar    1  UNL1        0.1354
     20 C         -11.7712   -5.9527   18.6005 C.ar    1  UNL1        0.0574
     21 C         -10.8716   -7.0571   18.1304 C.ar    1  UNL1        0.1571
     22 N         -11.2135   -7.8254   16.8882 N.ar    1  UNL1       -0.2199
     23 C         -12.4548   -7.4894   16.1162 C.ar    1  UNL1        0.2000
     24 N         -13.3544   -6.3849   16.5864 N.ar    1  UNL1       -0.2090
     25 C          -9.6302   -7.3932   18.9024 C.3     1  UNL1        0.4350
     26 F          -8.3888   -7.7293   19.6744 F       1  UNL1       -0.1644
     27 F          -9.6331   -8.7703   18.3075 F       1  UNL1       -0.1644
     28 F          -9.6273   -6.0162   19.4972 F       1  UNL1       -0.1644
     29 C         -11.4364   -1.6963   19.0067 C.3     1  UNL1        0.0021
     30 C         -12.2398   -2.4501   17.9887 C.3     1  UNL1        0.0240
     31 C         -11.7260   -2.5973   16.5871 C.3     1  UNL1        0.0021
@<TRIPOS>BOND
     1    29    30    1
     2    30    31    1
     3     1    30    1
     4     1     2    1
     5     2     3   ar
     6     3     4   ar
     7     4     9    1
     8     9    10   ar
     9    10    11   ar
    10    11    12   ar
    11    12    13   ar
    12    13    15    1
    13    15    16    1
    14    15    17    2
    15    15    18    2
    16    13    14   ar
    17     4     5   ar
    18     5     6   ar
    19     6     7    1
    20     7     8    1
    21     8    19    1
    22    19    20   ar
    23    20    21   ar
    24    21    25    1
    25    25    26    1
    26    25    27    1
    27    25    28    1
    28    21    22   ar
    29    22    23   ar
    30    23    24   ar
    31     8     1    1
    32    24    19   ar
    33     6     2   ar
    34    14     9   ar
@<TRIPOS>MOLECULE
*****
 31 34 0 0 0
SMALL
GASTEIGER

@<TRIPOS>ATOM
      1 C           2.1828    0.2403   22.6175 C.3     1  UNL1        0.1160
      2 C           2.1992    0.4194   24.1066 C.ar    1  UNL1        0.0960
      3 N           1.5039    1.0864   25.2563 N.ar    1  UNL1       -0.1681
      4 N           2.2256    0.7094   26.5161 N.ar    1  UNL1       -0.2287
      5 C           3.3668   -0.1906   26.1450 C.ar    1  UNL1        0.0990
      6 C           3.3505   -0.3698   24.6558 C.ar    1  UNL1        0.0337
      7 C           4.0457   -1.0368   23.5061 C.3     1  UNL1        0.1220
      8 N           3.3240   -0.6597   22.2463 N.pl3   1  UNL1       -0.2853
      9 C           1.8687    1.1542   27.9035 C.ar    1  UNL1        0.0841
     10 C           0.8129    2.1999   28.1075 C.ar    1  UNL1        0.0192
     11 C           0.4561    2.6447   29.4949 C.ar    1  UNL1        0.0029
     12 C           1.1550    2.0438   30.6783 C.ar    1  UNL1        0.0184
     13 C           2.2109    0.9981   30.4743 C.ar    1  UNL1        0.1072
     14 C           2.5677    0.5533   29.0868 C.ar    1  UNL1        0.0375
     15 S           2.9099    0.3971   31.6575 S.O2    1  UNL1        0.0105
     16 C           3.6089   -0.2039   32.8408 C.3     1  UNL1        0.1816
     17 O           3.2987    1.7686   32.1245 O.2     1  UNL1       -0.1686
     18 O           2.5211   -0.9744   31.1906 O.2     1  UNL1       -0.1686
     19 C           3.6809   -1.1045   20.8590 C.ar    1  UNL1        0.1354
     20 C           3.8882   -2.5615   20.5685 C.ar    1  UNL1        0.0574
     21 C           4.2450   -3.0064   19.1812 C.ar    1  UNL1        0.1571
     22 N           4.3947   -1.9942   18.0842 N.ar    1  UNL1       -0.2199
     23 C           4.1875   -0.5373   18.3747 C.ar    1  UNL1        0.2000
     24 N           3.8305   -0.0925   19.7621 N.ar    1  UNL1       -0.2090
     25 C           4.4523   -4.4634   18.8908 C.3     1  UNL1        0.4350
     26 F           4.6596   -5.9203   18.6003 F       1  UNL1       -0.1644
     27 F           2.9861   -4.6167   18.6134 F       1  UNL1       -0.1644
     28 F           5.9184   -4.3100   19.1681 F       1  UNL1       -0.1644
     29 C           0.4133   -0.0201   20.7331 C.3     1  UNL1        0.0021
     30 C           1.1982    0.8534   21.6664 C.3     1  UNL1        0.0240
     31 C           0.9984    2.3399   21.6486 C.3     1  UNL1        0.0021
@<TRIPOS>BOND
     1    29    30    1
     2    30    31    1
     3     1    30    1
     4     1     2    1
     5     2     3   ar
     6     3     4   ar
     7     4     9    1
     8     9    10   ar
     9    10    11   ar
    10    11    12   ar
    11    12    13   ar
    12    13    15    1
    13    15    16    1
    14    15    17    2
    15    15    18    2
    16    13    14   ar
    17     4     5   ar
    18     5     6   ar
    19     6     7    1
    20     7     8    1
    21     8    19    1
    22    19    20   ar
    23    20    21   ar
    24    21    25    1
    25    25    26    1
    26    25    27    1
    27    25    28    1
    28    21    22   ar
    29    22    23   ar
    30    23    24   ar
    31     8     1    1
    32    24    19   ar
    33     6     2   ar
    34    14     9   ar
@<TRIPOS>MOLECULE
*****
 31 34 0 0 0
SMALL
GASTEIGER

@<TRIPOS>ATOM
      1 C           5.4560   -1.9059   24.5863 C.3     1  UNL1        0.1160
      2 C           5.7336   -2.2470   26.0204 C.ar    1  UNL1        0.0960
      3 N           5.5125   -1.8067   27.4372 N.ar    1  UNL1       -0.1681
      4 N           6.1827   -2.7989   28.3408 N.ar    1  UNL1       -0.2287
      5 C           6.8180   -3.8523   27.4825 C.ar    1  UNL1        0.0990
      6 C           6.5404   -3.5112   26.0484 C.ar    1  UNL1        0.0337
      7 C           6.7615   -3.9515   24.6316 C.3     1  UNL1        0.1220
      8 N           6.0913   -2.9593   23.7279 N.pl3   1  UNL1       -0.2853
      9 C           6.2123   -2.7468   29.8396 C.ar    1  UNL1        0.0841
     10 C           6.9630   -3.7910   30.6117 C.ar    1  UNL1        0.0192
     11 C           6.9926   -3.7388   32.1105 C.ar    1  UNL1        0.0029
     12 C           6.2717   -2.6425   32.8373 C.ar    1  UNL1        0.0184
     13 C           5.5210   -1.5982   32.0652 C.ar    1  UNL1        0.1072
     14 C           5.4914   -1.6504   30.5664 C.ar    1  UNL1        0.0375
     15 S           4.8001   -0.5018   32.7919 S.O2    1  UNL1        0.0105
     16 C           4.0791    0.5946   33.5186 C.3     1  UNL1        0.1816
     17 O           6.0623    0.3081   32.8225 O.2     1  UNL1       -0.1686
     18 O           3.5378   -1.3117   32.7613 O.2     1  UNL1       -0.1686
     19 C           6.0617   -3.0114   22.2292 C.ar    1  UNL1        0.1354
     20 C           4.8510   -3.5434   21.5210 C.ar    1  UNL1        0.0574
     21 C           4.8213   -3.5955   20.0223 C.ar    1  UNL1        0.1571
     22 N           6.0023   -3.1157   19.2316 N.ar    1  UNL1       -0.2199
     23 C           7.2130   -2.5838   19.9397 C.ar    1  UNL1        0.2000
     24 N           7.2426   -2.5317   21.4385 N.ar    1  UNL1       -0.2090
     25 C           3.6107   -4.1274   19.3141 C.3     1  UNL1        0.4350
     26 F           2.4001   -4.6594   18.6059 F       1  UNL1       -0.1644
     27 F           2.8412   -2.9018   19.7089 F       1  UNL1       -0.1644
     28 F           4.3802   -5.3530   18.9194 F       1  UNL1       -0.1644
     29 C           5.3926    0.5560   23.7587 C.3     1  UNL1        0.0021
     30 C           4.6795   -0.7197   24.0965 C.3     1  UNL1        0.0240
     31 C           3.1899   -0.8092   23.9445 C.3     1  UNL1        0.0021
@<TRIPOS>BOND
     1    29    30    1
     2    30    31    1
     3     1    30    1
     4     1     2    1
     5     2     3   ar
     6     3     4   ar
     7     4     9    1
     8     9    10   ar
     9    10    11   ar
    10    11    12   ar
    11    12    13   ar
    12    13    15    1
    13    15    16    1
    14    15    17    2
    15    15    18    2
    16    13    14   ar
    17     4     5   ar
    18     5     6   ar
    19     6     7    1
    20     7     8    1
    21     8    19    1
    22    19    20   ar
    23    20    21   ar
    24    21    25    1
    25    25    26    1
    26    25    27    1
    27    25    28    1
    28    21    22   ar
    29    22    23   ar
    30    23    24   ar
    31     8     1    1
    32    24    19   ar
    33     6     2   ar
    34    14     9   ar
@<TRIPOS>MOLECULE
*****
 31 34 0 0 0
SMALL
GASTEIGER

@<TRIPOS>ATOM
      1 C           7.2013   -1.8200   32.6681 C.3     1  UNL1        0.1160
      2 C           6.5064   -1.1157   33.7955 C.ar    1  UNL1        0.0960
      3 N           6.7104   -0.1861   34.9549 N.ar    1  UNL1       -0.1681
      4 N           5.3822    0.0240   35.6196 N.ar    1  UNL1       -0.2287
      5 C           4.3574   -0.7756   34.8710 C.ar    1  UNL1        0.0990
      6 C           5.0523   -1.4800   33.7436 C.ar    1  UNL1        0.0337
      7 C           4.8483   -2.4095   32.5841 C.3     1  UNL1        0.1220
      8 N           6.1765   -2.6197   31.9194 N.pl3   1  UNL1       -0.2853
      9 C           5.1241    0.8830   36.8219 C.ar    1  UNL1        0.0841
     10 C           6.2637    1.5794   37.5048 C.ar    1  UNL1        0.0192
     11 C           6.0055    2.4385   38.7071 C.ar    1  UNL1        0.0029
     12 C           4.6077    2.6011   39.2265 C.ar    1  UNL1        0.0184
     13 C           3.4681    1.9047   38.5437 C.ar    1  UNL1        0.1072
     14 C           3.7263    1.0457   37.3414 C.ar    1  UNL1        0.0375
     15 S           2.0704    2.0672   39.0630 S.O2    1  UNL1        0.0105
     16 C           0.6725    2.2297   39.5824 C.3     1  UNL1        0.1816
     17 O           2.5501    3.1108   40.0278 O.2     1  UNL1       -0.1686
     18 O           1.5906    1.0235   38.0982 O.2     1  UNL1       -0.1686
     19 C           6.4346   -3.4787   30.7171 C.ar    1  UNL1        0.1354
     20 C           6.3399   -2.8903   29.3406 C.ar    1  UNL1        0.0574
     21 C           6.5980   -3.7492   28.1383 C.ar    1  UNL1        0.1571
     22 N           6.9508   -5.1968   28.3126 N.ar    1  UNL1       -0.2199
     23 C           7.0456   -5.7852   29.6890 C.ar    1  UNL1        0.2000
     24 N           6.7875   -4.9261   30.8913 N.ar    1  UNL1       -0.2090
     25 C           6.5032   -3.1608   26.7618 C.3     1  UNL1        0.4350
     26 F           6.4086   -2.5724   25.3852 F       1  UNL1       -0.1644
     27 F           5.2432   -2.4473   27.1535 F       1  UNL1       -0.1644
     28 F           7.7632   -3.8743   26.3701 F       1  UNL1       -0.1644
     29 C           9.2574   -0.4448   31.8740 C.3     1  UNL1        0.0021
     30 C           8.6640   -1.7390   32.3459 C.3     1  UNL1        0.0240
     31 C           9.5333   -2.9523   32.4955 C.3     1  UNL1        0.0021
@<TRIPOS>BOND
     1    29    30    1
     2    30    31    1
     3     1    30    1
     4     1     2    1
     5     2     3   ar
     6     3     4   ar
     7     4     9    1
     8     9    10   ar
     9    10    11   ar
    10    11    12   ar
    11    12    13   ar
    12    13    15    1
    13    15    16    1
    14    15    17    2
    15    15    18    2
    16    13    14   ar
    17     4     5   ar
    18     5     6   ar
    19     6     7    1
    20     7     8    1
    21     8    19    1
    22    19    20   ar
    23    20    21   ar
    24    21    25    1
    25    25    26    1
    26    25    27    1
    27    25    28    1
    28    21    22   ar
    29    22    23   ar
    30    23    24   ar
    31     8     1    1
    32    24    19   ar
    33     6     2   ar
    34    14     9   ar
@<TRIPOS>MOLECULE
*****
 31 34 0 0 0
SMALL
GASTEIGER

@<TRIPOS>ATOM
      1 C           4.5450   -0.8663   27.4892 C.3     1  UNL1        0.1160
      2 C           4.5544   -1.3648   26.0745 C.ar    1  UNL1        0.0960
      3 N           3.8213   -1.3185   24.7667 N.ar    1  UNL1       -0.1681
      4 N           4.5696   -2.1712   23.7854 N.ar    1  UNL1       -0.2287
      5 C           5.7652   -2.7446   24.4868 C.ar    1  UNL1        0.0990
      6 C           5.7558   -2.2461   25.9015 C.ar    1  UNL1        0.0337
      7 C           6.4889   -2.2924   27.2093 C.3     1  UNL1        0.1220
      8 N           5.7406   -1.4396   28.1906 N.pl3   1  UNL1       -0.2853
      9 C           4.1891   -2.4090   22.3541 C.ar    1  UNL1        0.0841
     10 C           4.5764   -3.6908   21.6781 C.ar    1  UNL1        0.0192
     11 C           4.1958   -3.9284   20.2467 C.ar    1  UNL1        0.0029
     12 C           3.4281   -2.8844   19.4914 C.ar    1  UNL1        0.0184
     13 C           3.0409   -1.6026   20.1674 C.ar    1  UNL1        0.1072
     14 C           3.4214   -1.3649   21.5988 C.ar    1  UNL1        0.0375
     15 S           2.2732   -0.5585   19.4122 S.O2    1  UNL1        0.0105
     16 C           1.5054    0.4856   18.6570 C.3     1  UNL1        0.1816
     17 O           3.5118   -0.2028   18.6446 O.2     1  UNL1       -0.1686
     18 O           1.0344   -0.9142   20.1798 O.2     1  UNL1       -0.1686
     19 C           6.1211   -1.2019   29.6219 C.ar    1  UNL1        0.1354
     20 C           5.2368   -1.7012   30.7260 C.ar    1  UNL1        0.0574
     21 C           5.6173   -1.4635   32.1572 C.ar    1  UNL1        0.1571
     22 N           6.8821   -0.7265   32.4846 N.ar    1  UNL1       -0.2199
     23 C           7.7664   -0.2272   31.3806 C.ar    1  UNL1        0.2000
     24 N           7.3858   -0.4649   29.9493 N.ar    1  UNL1       -0.2090
     25 C           4.7330   -1.9628   33.2613 C.3     1  UNL1        0.4350
     26 F           3.8488   -2.4621   34.3652 F       1  UNL1       -0.1644
     27 F           4.1523   -0.5886   33.4177 F       1  UNL1       -0.1644
     28 F           5.3136   -3.3370   33.1048 F       1  UNL1       -0.1644
     29 C           3.7898    1.5176   28.1935 C.3     1  UNL1        0.0021
     30 C           3.5201    0.0453   28.0961 C.3     1  UNL1        0.0240
     31 C           2.2254   -0.5153   28.6055 C.3     1  UNL1        0.0021
@<TRIPOS>BOND
     1    29    30    1
     2    30    31    1
     3     1    30    1
     4     1     2    1
     5     2     3   ar
     6     3     4   ar
     7     4     9    1
     8     9    10   ar
     9    10    11   ar
    10    11    12   ar
    11    12    13   ar
    12    13    15    1
    13    15    16    1
    14    15    17    2
    15    15    18    2
    16    13    14   ar
    17     4     5   ar
    18     5     6   ar
    19     6     7    1
    20     7     8    1
    21     8    19    1
    22    19    20   ar
    23    20    21   ar
    24    21    25    1
    25    25    26    1
    26    25    27    1
    27    25    28    1
    28    21    22   ar
    29    22    23   ar
    30    23    24   ar
    31     8     1    1
    32    24    19   ar
    33     6     2   ar
    34    14     9   ar
@<TRIPOS>MOLECULE
*****
 31 34 0 0 0
SMALL
GASTEIGER

@<TRIPOS>ATOM
      1 C           4.7865   -1.0392   27.9663 C.3     1  UNL1        0.1160
      2 C           4.6775   -1.3886   26.5116 C.ar    1  UNL1        0.0960
      3 N           3.8781   -1.1551   25.2641 N.ar    1  UNL1       -0.1681
      4 N           4.5013   -1.9539   24.1579 N.ar    1  UNL1       -0.2287
      5 C           5.6859   -2.6810   24.7218 C.ar    1  UNL1        0.0990
      6 C           5.7948   -2.3317   26.1765 C.ar    1  UNL1        0.0337
      7 C           6.5943   -2.5652   27.4240 C.3     1  UNL1        0.1220
      8 N           5.9711   -1.7663   28.5303 N.pl3   1  UNL1       -0.2853
      9 C           4.0238   -2.0148   22.7373 C.ar    1  UNL1        0.0841
     10 C           3.1358   -0.9331   22.1974 C.ar    1  UNL1        0.0192
     11 C           2.6583   -0.9942   20.7767 C.ar    1  UNL1        0.0029
     12 C           3.0688   -2.1368   19.8959 C.ar    1  UNL1        0.0184
     13 C           3.9568   -3.2185   20.4357 C.ar    1  UNL1        0.1072
     14 C           4.4343   -3.1574   21.8564 C.ar    1  UNL1        0.0375
     15 S           4.3673   -4.3611   19.5550 S.O2    1  UNL1        0.0105
     16 C           4.7777   -5.5038   18.6742 C.3     1  UNL1        0.1816
     17 O           5.7454   -4.3215   20.1458 O.2     1  UNL1       -0.1686
     18 O           2.9891   -4.4007   18.9641 O.2     1  UNL1       -0.1686
     19 C           6.4486   -1.7054   29.9508 C.ar    1  UNL1        0.1354
     20 C           5.4613   -1.7790   31.0778 C.ar    1  UNL1        0.0574
     21 C           5.9388   -1.7180   32.4984 C.ar    1  UNL1        0.1571
     22 N           7.4037   -1.5836   32.7921 N.ar    1  UNL1       -0.2199
     23 C           8.3910   -1.5100   31.6652 C.ar    1  UNL1        0.2000
     24 N           7.9134   -1.5710   30.2446 N.ar    1  UNL1       -0.2090
     25 C           4.9516   -1.7916   33.6254 C.3     1  UNL1        0.4350
     26 F           3.9644   -1.8652   34.7523 F       1  UNL1       -0.1644
     27 F           5.2746   -0.3756   34.0007 F       1  UNL1       -0.1644
     28 F           4.6287   -3.2075   33.2500 F       1  UNL1       -0.1644
     29 C           2.5052   -0.5936   29.1269 C.3     1  UNL1        0.0021
     30 C           3.8715   -0.1235   28.7240 C.3     1  UNL1        0.0240
     31 C           4.3227    1.2624   29.0788 C.3     1  UNL1        0.0021
@<TRIPOS>BOND
     1    29    30    1
     2    30    31    1
     3     1    30    1
     4     1     2    1
     5     2     3   ar
     6     3     4   ar
     7     4     9    1
     8     9    10   ar
     9    10    11   ar
    10    11    12   ar
    11    12    13   ar
    12    13    15    1
    13    15    16    1
    14    15    17    2
    15    15    18    2
    16    13    14   ar
    17     4     5   ar
    18     5     6   ar
    19     6     7    1
    20     7     8    1
    21     8    19    1
    22    19    20   ar
    23    20    21   ar
    24    21    25    1
    25    25    26    1
    26    25    27    1
    27    25    28    1
    28    21    22   ar
    29    22    23   ar
    30    23    24   ar
    31     8     1    1
    32    24    19   ar
    33     6     2   ar
    34    14     9   ar
