@<TRIPOS>MOLECULE
*****
 41 46 0 0 0
SMALL
GASTEIGER

@<TRIPOS>ATOM
      1 C          -0.4877    3.3668   22.2680 C.ar    1  UNL1        0.1516
      2 N           0.3596    2.3571   21.5520 N.ar    1  UNL1       -0.2031
      3 C           0.9757    1.2206   22.3126 C.ar    1  UNL1        0.2093
      4 N           0.7445    1.0936   23.7892 N.ar    1  UNL1       -0.2003
      5 C          -0.1027    2.1033   24.5053 C.ar    1  UNL1        0.1678
      6 C          -0.7189    3.2399   23.7447 C.ar    1  UNL1        0.1483
      7 N          -1.5015    4.0758   24.7136 N.ar    1  UNL1       -0.2195
      8 C          -1.3690    3.4558   26.0730 C.ar    1  UNL1        0.1798
      9 N          -0.5045    2.2367   25.9443 N.ar    1  UNL1       -0.2937
     10 C          -0.1110    1.3133   27.0589 C.3     1  UNL1        0.1175
     11 C           1.2832    0.8618   27.3791 C.3     1  UNL1        0.1577
     12 O           2.5285    1.2545   26.6409 O.3     1  UNL1       -0.3801
     13 C           1.2134   -0.0513   28.5671 C.3     1  UNL1        0.1390
     14 O           2.3766   -0.7321   29.2254 O.3     1  UNL1       -0.3819
     15 C          -0.2240   -0.1642   28.9811 C.3     1  UNL1        0.0314
     16 C          -1.7117   -0.0826   29.1543 C.3     1  UNL1        0.0046
     17 C          -1.0424    0.6792   28.0490 C.3     1  UNL1        0.0258
     18 H           2.2979    1.8533   25.9135 H       1  UNL1        0.2105
     19 H           2.0594   -1.2654   29.9710 H       1  UNL1        0.2104
     20 N          -1.1038    4.5034   21.5073 N.pl3   1  UNL1       -0.3165
     21 H          -0.9155    5.4326   21.7725 H       1  UNL1        0.1483
     22 C          -2.0069    4.2242   20.3426 C.3     1  UNL1        0.0929
     23 C          -3.1049    3.2104   20.4712 C.3     1  UNL1        0.0476
     24 C          -5.7699    3.7941   23.3534 C.ar    1  UNL1        0.1718
     25 C          -4.4919    3.4312   22.6570 C.ar    1  UNL1        0.0358
     26 C          -4.3829    3.5732   21.1677 C.ar    1  UNL1       -0.0173
     27 C          -5.5519    4.0780   20.3749 C.ar    1  UNL1       -0.0009
     28 C          -6.8300    4.4408   21.0713 C.ar    1  UNL1        0.0395
     29 C          -6.9390    4.2988   22.5606 C.ar    1  UNL1        0.1677
     30 O          -8.2169    4.6616   23.2571 O.3     1  UNL1       -0.5029
     31 H          -8.9472    4.9769   22.7619 H       1  UNL1        0.2923
     32 C          -5.0015    4.4731   25.7406 C.3     1  UNL1        0.2526
     33 O          -5.8789    3.6521   24.8427 O.3     1  UNL1       -0.4684
     34 C           1.8230    0.2108   21.5966 C.1     1  UNL1       -0.0210
     35 C           2.6704   -0.7988   20.8807 C.1     1  UNL1       -0.0568
     36 C           3.5177   -1.8084   20.1647 C.ar    1  UNL1        0.0421
     37 C           3.9118   -3.0809   20.8542 C.ar    1  UNL1        0.0082
     38 C           4.7592   -4.0905   20.1383 C.ar    1  UNL1        0.0006
     39 C           5.2124   -3.8277   18.7327 C.ar    1  UNL1        0.0000
     40 C           4.8183   -2.5553   18.0432 C.ar    1  UNL1        0.0006
     41 C           3.9709   -1.5456   18.7591 C.ar    1  UNL1        0.0082
@<TRIPOS>BOND
     1    32    33    1
     2    33    24    1
     3    24    25   ar
     4    25    26   ar
     5    26    23    1
     6    23    22    1
     7    22    20    1
     8    20     1    1
     9     1     2   ar
    10     2     3   ar
    11     3    34    1
    12    34    35    3
    13    35    36    1
    14    36    37   ar
    15    37    38   ar
    16    38    39   ar
    17    39    40   ar
    18    40    41   ar
    19     3     4   ar
    20     4     5   ar
    21     5     6   ar
    22     6     7   ar
    23     7     8   ar
    24     8     9   ar
    25    10     9    1
    26    10    11    1
    27    11    12    1
    28    11    13    1
    29    13    14    1
    30    13    15    1
    31    15    16    1
    32    17    16    1
    33    26    27   ar
    34    27    28   ar
    35    28    29   ar
    36    29    30    1
    37    29    24   ar
    38     6     1   ar
    39    17    10    1
    40    41    36   ar
    41     9     5   ar
    42    17    15    1
    43    20    21    1
    44    12    18    1
    45    14    19    1
    46    30    31    1
@<TRIPOS>MOLECULE
*****
 41 46 0 0 0
SMALL
GASTEIGER

@<TRIPOS>ATOM
      1 C           0.4126    2.5649   22.8382 C.ar    1  UNL1        0.1516
      2 N          -0.8969    3.2027   23.1968 N.ar    1  UNL1       -0.2031
      3 C          -1.3824    3.1720   24.6156 C.ar    1  UNL1        0.2093
      4 N          -0.5586    2.5036   25.6760 N.ar    1  UNL1       -0.2003
      5 C           0.7509    1.8658   25.3175 C.ar    1  UNL1        0.1678
      6 C           1.2365    1.8965   23.8986 C.ar    1  UNL1        0.1483
      7 N           2.5580    1.1887   23.8454 N.ar    1  UNL1       -0.2195
      8 C           2.8891    0.7207   25.2315 C.ar    1  UNL1        0.1798
      9 N           1.7723    1.1391   26.1413 N.ar    1  UNL1       -0.2937
     10 C           1.6911    0.8769   27.6160 C.3     1  UNL1        0.1175
     11 C           2.1861   -0.3506   28.3218 C.3     1  UNL1        0.1577
     12 O           2.8492   -1.5314   27.6768 O.3     1  UNL1       -0.3801
     13 C           1.9017   -0.1900   29.7858 C.3     1  UNL1        0.1390
     14 O           2.2303   -1.1820   30.8618 O.3     1  UNL1       -0.3819
     15 C           1.2309    1.1368   29.9848 C.3     1  UNL1        0.0314
     16 C           0.5916    2.4891   29.8729 C.3     1  UNL1        0.0046
     17 C           1.1007    1.7962   28.6438 C.3     1  UNL1        0.0258
     18 H           2.9128   -1.3839   26.7202 H       1  UNL1        0.2105
     19 H           1.9412   -0.8354   31.7204 H       1  UNL1        0.2104
     20 N           0.8982    2.5956   21.4192 N.pl3   1  UNL1       -0.3165
     21 H           1.6106    3.2221   21.1562 H       1  UNL1        0.1483
     22 C           0.2982    1.6717   20.4011 C.3     1  UNL1        0.0929
     23 C           0.5854    0.2007   20.4619 C.3     1  UNL1        0.0476
     24 C           3.5528   -2.1812   19.3344 C.ar    1  UNL1        0.1718
     25 C           2.4277   -1.6028   20.1404 C.ar    1  UNL1        0.0358
     26 C           1.7104   -0.3778   19.6559 C.ar    1  UNL1       -0.0173
     27 C           2.1182    0.2688   18.3653 C.ar    1  UNL1       -0.0009
     28 C           3.2433   -0.3096   17.5592 C.ar    1  UNL1        0.0395
     29 C           3.9605   -1.5346   18.0438 C.ar    1  UNL1        0.1677
     30 O           5.0856   -2.1131   17.2378 O.3     1  UNL1       -0.5029
     31 H           5.3403   -1.7092   16.4316 H       1  UNL1        0.2923
     32 C           3.8858   -4.7575   19.2933 C.3     1  UNL1        0.2526
     33 O           4.2700   -3.4062   19.8190 O.3     1  UNL1       -0.4684
     34 C          -2.6919    3.8098   24.9742 C.1     1  UNL1       -0.0210
     35 C          -4.0014    4.4475   25.3327 C.1     1  UNL1       -0.0568
     36 C          -5.3109    5.0853   25.6912 C.ar    1  UNL1        0.0421
     37 C          -6.3903    5.2140   24.6576 C.ar    1  UNL1        0.0082
     38 C          -7.6997    5.8518   25.0161 C.ar    1  UNL1        0.0006
     39 C          -7.9298    6.3609   26.4082 C.ar    1  UNL1        0.0000
     40 C          -6.8504    6.2322   27.4418 C.ar    1  UNL1        0.0006
     41 C          -5.5409    5.5944   27.0833 C.ar    1  UNL1        0.0082
@<TRIPOS>BOND
     1    32    33    1
     2    33    24    1
     3    24    25   ar
     4    25    26   ar
     5    26    23    1
     6    23    22    1
     7    22    20    1
     8    20     1    1
     9     1     2   ar
    10     2     3   ar
    11     3    34    1
    12    34    35    3
    13    35    36    1
    14    36    37   ar
    15    37    38   ar
    16    38    39   ar
    17    39    40   ar
    18    40    41   ar
    19     3     4   ar
    20     4     5   ar
    21     5     6   ar
    22     6     7   ar
    23     7     8   ar
    24     8     9   ar
    25    10     9    1
    26    10    11    1
    27    11    12    1
    28    11    13    1
    29    13    14    1
    30    13    15    1
    31    15    16    1
    32    17    16    1
    33    26    27   ar
    34    27    28   ar
    35    28    29   ar
    36    29    30    1
    37    29    24   ar
    38     6     1   ar
    39    17    10    1
    40    41    36   ar
    41     9     5   ar
    42    17    15    1
    43    20    21    1
    44    12    18    1
    45    14    19    1
    46    30    31    1
@<TRIPOS>MOLECULE
*****
 41 46 0 0 0
SMALL
GASTEIGER

@<TRIPOS>ATOM
      1 C          -0.1141    3.0063   20.4210 C.ar    1  UNL1        0.1516
      2 N           0.1372    2.7522   21.8779 N.ar    1  UNL1       -0.2031
      3 C          -0.9584    2.9744   22.8779 C.ar    1  UNL1        0.2093
      4 N          -2.3054    3.4508   22.4212 N.ar    1  UNL1       -0.2003
      5 C          -2.5568    3.7050   20.9644 C.ar    1  UNL1        0.1678
      6 C          -1.4611    3.4827   19.9643 C.ar    1  UNL1        0.1483
      7 N          -2.0002    3.8152   18.6046 N.ar    1  UNL1       -0.2195
      8 C          -3.4290    4.2429   18.7643 C.ar    1  UNL1        0.1798
      9 N          -3.7730    4.1748   20.2228 N.ar    1  UNL1       -0.2937
     10 C          -5.1002    4.5165   20.8325 C.3     1  UNL1        0.1175
     11 C          -5.7462    3.8134   21.9894 C.3     1  UNL1        0.1577
     12 O          -5.1784    2.6453   22.7397 O.3     1  UNL1       -0.3801
     13 C          -7.0597    4.4836   22.2643 C.3     1  UNL1        0.1390
     14 O          -8.0360    4.1033   23.3377 O.3     1  UNL1       -0.3819
     15 C          -7.2255    5.6009   21.2772 C.3     1  UNL1        0.0314
     16 C          -7.1118    6.6227   20.1850 C.3     1  UNL1        0.0046
     17 C          -6.0145    5.6212   20.3923 C.3     1  UNL1        0.0258
     18 H          -4.3176    2.4059   22.3619 H       1  UNL1        0.2105
     19 H          -8.8038    4.6949   23.3007 H       1  UNL1        0.2104
     20 N           0.9816    2.7841   19.4210 N.pl3   1  UNL1       -0.3165
     21 H           1.6720    3.4729   19.2860 H       1  UNL1        0.1483
     22 C           1.0255    1.5124   18.6267 C.3     1  UNL1        0.0929
     23 C           1.5301    0.2497   19.2600 C.3     1  UNL1        0.0476
     24 C           4.5606   -2.2854   18.8870 C.ar    1  UNL1        0.1718
     25 C           3.2710   -1.6767   19.3521 C.ar    1  UNL1        0.0358
     26 C           2.8197   -0.3591   18.7950 C.ar    1  UNL1       -0.0173
     27 C           3.6580    0.3496   17.7728 C.ar    1  UNL1       -0.0009
     28 C           4.9477   -0.2591   17.3077 C.ar    1  UNL1        0.0395
     29 C           5.3989   -1.5767   17.8648 C.ar    1  UNL1        0.1677
     30 O           6.6885   -2.1855   17.3998 O.3     1  UNL1       -0.5029
     31 H           7.2122   -1.7428   16.7613 H       1  UNL1        0.2923
     32 C           4.4854   -4.8823   18.8643 C.3     1  UNL1        0.2526
     33 O           5.0118   -3.6030   19.4441 O.3     1  UNL1       -0.4684
     34 C          -0.7071    2.7203   24.3348 C.1     1  UNL1       -0.0210
     35 C          -0.4558    2.4662   25.7916 C.1     1  UNL1       -0.0568
     36 C          -0.2046    2.2121   27.2484 C.ar    1  UNL1        0.0421
     37 C           0.4539    3.2644   28.0905 C.ar    1  UNL1        0.0082
     38 C           0.7052    3.0103   29.5473 C.ar    1  UNL1        0.0006
     39 C           0.2980    1.7040   30.1620 C.ar    1  UNL1        0.0000
     40 C          -0.3605    0.6517   29.3198 C.ar    1  UNL1        0.0006
     41 C          -0.6117    0.9058   27.8630 C.ar    1  UNL1        0.0082
@<TRIPOS>BOND
     1    32    33    1
     2    33    24    1
     3    24    25   ar
     4    25    26   ar
     5    26    23    1
     6    23    22    1
     7    22    20    1
     8    20     1    1
     9     1     2   ar
    10     2     3   ar
    11     3    34    1
    12    34    35    3
    13    35    36    1
    14    36    37   ar
    15    37    38   ar
    16    38    39   ar
    17    39    40   ar
    18    40    41   ar
    19     3     4   ar
    20     4     5   ar
    21     5     6   ar
    22     6     7   ar
    23     7     8   ar
    24     8     9   ar
    25    10     9    1
    26    10    11    1
    27    11    12    1
    28    11    13    1
    29    13    14    1
    30    13    15    1
    31    15    16    1
    32    17    16    1
    33    26    27   ar
    34    27    28   ar
    35    28    29   ar
    36    29    30    1
    37    29    24   ar
    38     6     1   ar
    39    17    10    1
    40    41    36   ar
    41     9     5   ar
    42    17    15    1
    43    20    21    1
    44    12    18    1
    45    14    19    1
    46    30    31    1
@<TRIPOS>MOLECULE
*****
 41 46 0 0 0
SMALL
GASTEIGER

@<TRIPOS>ATOM
      1 C          -0.2985    2.4059   20.4394 C.ar    1  UNL1        0.1516
      2 N          -0.3534    2.4460   21.9379 N.ar    1  UNL1       -0.2031
      3 C           0.4904    1.5043   22.7448 C.ar    1  UNL1        0.2093
      4 N           1.3891    0.5224   22.0533 N.ar    1  UNL1       -0.2003
      5 C           1.4440    0.4823   20.5548 C.ar    1  UNL1        0.1678
      6 C           0.6002    1.4240   19.7479 C.ar    1  UNL1        0.1483
      7 N           0.8630    1.1539   18.2960 N.ar    1  UNL1       -0.2195
      8 C           1.8693    0.0452   18.2057 C.ar    1  UNL1        0.1798
      9 N           2.2283   -0.3699   19.6016 N.ar    1  UNL1       -0.2937
     10 C           3.2010   -1.4479   19.9783 C.3     1  UNL1        0.1175
     11 C           4.3003   -1.3287   20.9919 C.3     1  UNL1        0.1577
     12 O           4.6199   -0.1105   21.8067 O.3     1  UNL1       -0.3801
     13 C           5.0239   -2.6414   21.0475 C.3     1  UNL1        0.1390
     14 O           6.1941   -2.9666   21.9278 O.3     1  UNL1       -0.3819
     15 C           4.3718   -3.5720   20.0683 C.3     1  UNL1        0.0314
     16 C           3.5317   -4.2581   19.0323 C.3     1  UNL1        0.0046
     17 C           3.2452   -2.8343   19.4075 C.3     1  UNL1        0.0258
     18 H           4.0019    0.6018   21.5795 H       1  UNL1        0.2105
     19 H           6.4733   -3.8819   21.7696 H       1  UNL1        0.2104
     20 N          -1.1424    3.3477   19.6326 N.pl3   1  UNL1       -0.3165
     21 H          -0.8939    3.5584   18.7035 H       1  UNL1        0.1483
     22 C          -2.3648    3.9683   20.2412 C.3     1  UNL1        0.0929
     23 C          -3.6064    3.1485   20.4318 C.3     1  UNL1        0.0476
     24 C          -5.5125    3.7277   23.8643 C.ar    1  UNL1        0.1718
     25 C          -4.4697    3.2915   22.8782 C.ar    1  UNL1        0.0358
     26 C          -4.6491    3.5846   21.4180 C.ar    1  UNL1       -0.0173
     27 C          -5.8711    4.3139   20.9441 C.ar    1  UNL1       -0.0009
     28 C          -6.9139    4.7501   21.9303 C.ar    1  UNL1        0.0395
     29 C          -6.7345    4.4569   23.3904 C.ar    1  UNL1        0.1677
     30 O          -7.7772    4.8931   24.3765 O.3     1  UNL1       -0.5029
     31 H          -8.5406    5.3487   24.0805 H       1  UNL1        0.2923
     32 C          -4.6808    4.4473   26.2181 C.3     1  UNL1        0.2526
     33 O          -5.3330    3.4345   25.3244 O.3     1  UNL1       -0.4684
     34 C           0.4356    1.5444   24.2433 C.1     1  UNL1       -0.0210
     35 C           0.3808    1.5845   25.7418 C.1     1  UNL1       -0.0568
     36 C           0.3260    1.6246   27.2402 C.ar    1  UNL1        0.0421
     37 C           1.1360    2.6378   27.9934 C.ar    1  UNL1        0.0082
     38 C           1.0812    2.6780   29.4919 C.ar    1  UNL1        0.0006
     39 C           0.2164    1.7049   30.2371 C.ar    1  UNL1        0.0000
     40 C          -0.5935    0.6917   29.4839 C.ar    1  UNL1        0.0006
     41 C          -0.5388    0.6516   27.9855 C.ar    1  UNL1        0.0082
@<TRIPOS>BOND
     1    32    33    1
     2    33    24    1
     3    24    25   ar
     4    25    26   ar
     5    26    23    1
     6    23    22    1
     7    22    20    1
     8    20     1    1
     9     1     2   ar
    10     2     3   ar
    11     3    34    1
    12    34    35    3
    13    35    36    1
    14    36    37   ar
    15    37    38   ar
    16    38    39   ar
    17    39    40   ar
    18    40    41   ar
    19     3     4   ar
    20     4     5   ar
    21     5     6   ar
    22     6     7   ar
    23     7     8   ar
    24     8     9   ar
    25    10     9    1
    26    10    11    1
    27    11    12    1
    28    11    13    1
    29    13    14    1
    30    13    15    1
    31    15    16    1
    32    17    16    1
    33    26    27   ar
    34    27    28   ar
    35    28    29   ar
    36    29    30    1
    37    29    24   ar
    38     6     1   ar
    39    17    10    1
    40    41    36   ar
    41     9     5   ar
    42    17    15    1
    43    20    21    1
    44    12    18    1
    45    14    19    1
    46    30    31    1
@<TRIPOS>MOLECULE
*****
 41 46 0 0 0
SMALL
GASTEIGER

@<TRIPOS>ATOM
      1 C           5.6652   -3.1493   21.7534 C.ar    1  UNL1        0.1516
      2 N           4.6194   -2.1126   22.0395 N.ar    1  UNL1       -0.2031
      3 C           4.2543   -1.7870   23.4574 C.ar    1  UNL1        0.2093
      4 N           4.9350   -2.4979   24.5893 N.ar    1  UNL1       -0.2003
      5 C           5.9807   -3.5345   24.3033 C.ar    1  UNL1        0.1678
      6 C           6.3458   -3.8602   22.8853 C.ar    1  UNL1        0.1483
      7 N           7.4066   -4.9204   22.9116 N.ar    1  UNL1       -0.2195
      8 C           7.6971   -5.2500   24.3458 C.ar    1  UNL1        0.1798
      9 N           6.8158   -4.3935   25.2060 N.ar    1  UNL1       -0.2937
     10 C           6.7766   -4.3956   26.7054 C.3     1  UNL1        0.1175
     11 C           6.5818   -5.5981   27.5806 C.3     1  UNL1        0.1577
     12 O           6.3920   -7.0096   27.1100 O.3     1  UNL1       -0.3801
     13 C           6.6101   -5.1413   29.0091 C.3     1  UNL1        0.1390
     14 O           6.4536   -6.0158   30.2177 O.3     1  UNL1       -0.3819
     15 C           6.8224   -3.6564   29.0167 C.3     1  UNL1        0.0314
     16 C           7.0383   -2.2036   28.7125 C.3     1  UNL1        0.0046
     17 C           6.9254   -3.1955   27.5930 C.3     1  UNL1        0.0258
     18 H           6.4138   -7.0329   26.1405 H       1  UNL1        0.2105
     19 H           6.5105   -5.4727   31.0194 H       1  UNL1        0.2104
     20 N           6.0303   -3.4749   20.3354 N.pl3   1  UNL1       -0.3165
     21 H           6.8569   -3.1107   19.9438 H       1  UNL1        0.1483
     22 C           5.1359   -4.3554   19.5139 C.3     1  UNL1        0.0929
     23 C           3.7914   -3.8566   19.0738 C.3     1  UNL1        0.0476
     24 C           2.4761   -0.1489   19.5964 C.ar    1  UNL1        0.1718
     25 C           2.6987   -1.6170   19.8089 C.ar    1  UNL1        0.0358
     26 C           3.5688   -2.3885   18.8614 C.ar    1  UNL1       -0.0173
     27 C           4.2164   -1.6919   17.7015 C.ar    1  UNL1       -0.0009
     28 C           3.9938   -0.2237   17.4890 C.ar    1  UNL1        0.0395
     29 C           3.1237    0.5477   18.4365 C.ar    1  UNL1        0.1677
     30 O           2.9011    2.0158   18.2241 O.3     1  UNL1       -0.5029
     31 H           3.3056    2.4510   17.4996 H       1  UNL1        0.2923
     32 C           0.1619    0.8580   20.2133 C.3     1  UNL1        0.2526
     33 O           1.6059    0.6225   20.5439 O.3     1  UNL1       -0.4684
     34 C           3.2086   -0.7503   23.7435 C.1     1  UNL1       -0.0210
     35 C           2.1629    0.2863   24.0296 C.1     1  UNL1       -0.0568
     36 C           1.1172    1.3230   24.3156 C.ar    1  UNL1        0.0421
     37 C           0.1518    1.1224   25.4460 C.ar    1  UNL1        0.0082
     38 C          -0.8939    2.1591   25.7321 C.ar    1  UNL1        0.0006
     39 C          -0.9742    3.3963   24.8878 C.ar    1  UNL1        0.0000
     40 C          -0.0088    3.5969   23.7574 C.ar    1  UNL1        0.0006
     41 C           1.0369    2.5602   23.4713 C.ar    1  UNL1        0.0082
@<TRIPOS>BOND
     1    32    33    1
     2    33    24    1
     3    24    25   ar
     4    25    26   ar
     5    26    23    1
     6    23    22    1
     7    22    20    1
     8    20     1    1
     9     1     2   ar
    10     2     3   ar
    11     3    34    1
    12    34    35    3
    13    35    36    1
    14    36    37   ar
    15    37    38   ar
    16    38    39   ar
    17    39    40   ar
    18    40    41   ar
    19     3     4   ar
    20     4     5   ar
    21     5     6   ar
    22     6     7   ar
    23     7     8   ar
    24     8     9   ar
    25    10     9    1
    26    10    11    1
    27    11    12    1
    28    11    13    1
    29    13    14    1
    30    13    15    1
    31    15    16    1
    32    17    16    1
    33    26    27   ar
    34    27    28   ar
    35    28    29   ar
    36    29    30    1
    37    29    24   ar
    38     6     1   ar
    39    17    10    1
    40    41    36   ar
    41     9     5   ar
    42    17    15    1
    43    20    21    1
    44    12    18    1
    45    14    19    1
    46    30    31    1
@<TRIPOS>MOLECULE
*****
 41 46 0 0 0
SMALL
GASTEIGER

@<TRIPOS>ATOM
      1 C           5.6615   -1.9963   26.7976 C.ar    1  UNL1        0.1516
      2 N           5.5045   -1.8892   25.3096 N.ar    1  UNL1       -0.2031
      3 C           4.2931   -1.2217   24.7294 C.ar    1  UNL1        0.2093
      4 N           3.2386   -0.6611   25.6371 N.ar    1  UNL1       -0.2003
      5 C           3.3956   -0.7682   27.1250 C.ar    1  UNL1        0.1678
      6 C           4.6071   -1.4357   27.7052 C.ar    1  UNL1        0.1483
      7 N           4.4887   -1.3930   29.1999 N.ar    1  UNL1       -0.2195
      8 C           3.2040   -0.6991   29.5435 C.ar    1  UNL1        0.1798
      9 N           2.5285   -0.3129   28.2611 N.ar    1  UNL1       -0.2937
     10 C           1.2162    0.4030   28.1367 C.3     1  UNL1        0.1175
     11 C           0.9981    1.7382   27.4890 C.3     1  UNL1        0.1577
     12 O           2.0541    2.5921   26.8520 O.3     1  UNL1       -0.3801
     13 C          -0.4613    2.0698   27.5902 C.3     1  UNL1        0.1390
     14 O          -1.1209    3.3133   27.0721 O.3     1  UNL1       -0.3819
     15 C          -1.1452    0.9394   28.3004 C.3     1  UNL1        0.0314
     16 C          -1.5414   -0.3152   29.0210 C.3     1  UNL1        0.0046
     17 C          -0.1085   -0.0908   28.6382 C.3     1  UNL1        0.0258
     18 H           2.9138    2.1481   26.9206 H       1  UNL1        0.2105
     19 H          -2.0707    3.2803   27.2661 H       1  UNL1        0.2104
     20 N           6.8731   -2.6639   27.3777 N.pl3   1  UNL1       -0.3165
     21 H           7.6777   -2.1339   27.5800 H       1  UNL1        0.1483
     22 C           6.8586   -4.1389   27.6497 C.3     1  UNL1        0.0929
     23 C           8.0803   -4.9644   27.3738 C.3     1  UNL1        0.0476
     24 C           7.9617   -5.5767   23.4544 C.ar    1  UNL1        0.1718
     25 C           7.7848   -4.9230   24.7928 C.ar    1  UNL1        0.0358
     26 C           8.2572   -5.6180   26.0353 C.ar    1  UNL1       -0.0173
     27 C           8.9065   -6.9668   25.9393 C.ar    1  UNL1       -0.0009
     28 C           9.0834   -7.6206   24.6009 C.ar    1  UNL1        0.0395
     29 C           8.6110   -6.9254   23.3584 C.ar    1  UNL1        0.1677
     30 O           8.7879   -7.5791   22.0200 O.3     1  UNL1       -0.5029
     31 H           9.1935   -8.4216   21.9600 H       1  UNL1        0.2923
     32 C           6.5539   -3.7136   22.3157 C.3     1  UNL1        0.2526
     33 O           7.4894   -4.8815   22.2120 O.3     1  UNL1       -0.4684
     34 C           4.1360   -1.1146   23.2414 C.1     1  UNL1       -0.0210
     35 C           3.9789   -1.0076   21.7535 C.1     1  UNL1       -0.0568
     36 C           3.8219   -0.9006   20.2656 C.ar    1  UNL1        0.0421
     37 C           4.6156   -1.7963   19.3614 C.ar    1  UNL1        0.0082
     38 C           4.4585   -1.6893   17.8735 C.ar    1  UNL1        0.0006
     39 C           3.5078   -0.6866   17.2898 C.ar    1  UNL1        0.0000
     40 C           2.7141    0.2091   18.1941 C.ar    1  UNL1        0.0006
     41 C           2.8711    0.1021   19.6820 C.ar    1  UNL1        0.0082
@<TRIPOS>BOND
     1    32    33    1
     2    33    24    1
     3    24    25   ar
     4    25    26   ar
     5    26    23    1
     6    23    22    1
     7    22    20    1
     8    20     1    1
     9     1     2   ar
    10     2     3   ar
    11     3    34    1
    12    34    35    3
    13    35    36    1
    14    36    37   ar
    15    37    38   ar
    16    38    39   ar
    17    39    40   ar
    18    40    41   ar
    19     3     4   ar
    20     4     5   ar
    21     5     6   ar
    22     6     7   ar
    23     7     8   ar
    24     8     9   ar
    25    10     9    1
    26    10    11    1
    27    11    12    1
    28    11    13    1
    29    13    14    1
    30    13    15    1
    31    15    16    1
    32    17    16    1
    33    26    27   ar
    34    27    28   ar
    35    28    29   ar
    36    29    30    1
    37    29    24   ar
    38     6     1   ar
    39    17    10    1
    40    41    36   ar
    41     9     5   ar
    42    17    15    1
    43    20    21    1
    44    12    18    1
    45    14    19    1
    46    30    31    1
@<TRIPOS>MOLECULE
*****
 41 46 0 0 0
SMALL
GASTEIGER

@<TRIPOS>ATOM
      1 C           1.9226    0.5224   24.4600 C.ar    1  UNL1        0.1516
      2 N           0.6072    1.2435   24.4683 N.ar    1  UNL1       -0.2031
      3 C           0.0778    1.8233   25.7462 C.ar    1  UNL1        0.2093
      4 N           0.8636    1.6822   27.0161 N.ar    1  UNL1       -0.2003
      5 C           2.1789    0.9612   27.0079 C.ar    1  UNL1        0.1678
      6 C           2.7084    0.3813   25.7298 C.ar    1  UNL1        0.1483
      7 N           4.0258   -0.2714   26.0276 N.ar    1  UNL1       -0.2195
      8 C           4.3105   -0.0948   27.4897 C.ar    1  UNL1        0.1798
      9 N           3.1691    0.6669   28.0956 N.ar    1  UNL1       -0.2937
     10 C           3.0405    1.0646   29.5361 C.3     1  UNL1        0.1175
     11 C           1.7941    0.9793   30.3665 C.3     1  UNL1        0.1577
     12 O           0.4577    0.4813   29.9019 O.3     1  UNL1       -0.3801
     13 C           2.1189    1.4793   31.7428 C.3     1  UNL1        0.1390
     14 O           1.1643    1.5692   32.8963 O.3     1  UNL1       -0.3819
     15 C           3.5660    1.8737   31.7632 C.3     1  UNL1        0.0314
     16 C           5.0082    2.1768   31.4836 C.3     1  UNL1        0.0046
     17 C           4.1356    1.6174   30.3994 C.3     1  UNL1        0.0258
     18 H           0.5168    0.2177   28.9703 H       1  UNL1        0.2105
     19 H           1.6262    1.9257   33.6713 H       1  UNL1        0.2104
     20 N           2.4520   -0.0575   23.1819 N.pl3   1  UNL1       -0.3165
     21 H           3.1140   -0.7857   23.2087 H       1  UNL1        0.1483
     22 C           1.9727    0.4721   21.8629 C.3     1  UNL1        0.0929
     23 C           1.7515   -0.4662   20.7137 C.3     1  UNL1        0.0476
     24 C           4.6742   -2.6937   19.2149 C.ar    1  UNL1        0.1718
     25 C           3.5152   -2.2594   20.0623 C.ar    1  UNL1        0.0358
     26 C           2.9105   -0.9007   19.8664 C.ar    1  UNL1       -0.0173
     27 C           3.4649    0.0236   18.8232 C.ar    1  UNL1       -0.0009
     28 C           4.6240   -0.4108   17.9758 C.ar    1  UNL1        0.0395
     29 C           5.2286   -1.7695   18.1717 C.ar    1  UNL1        0.1677
     30 O           6.3877   -2.2039   17.3244 O.3     1  UNL1       -0.5029
     31 H           6.7340   -1.6265   16.6727 H       1  UNL1        0.2923
     32 C           4.6494   -5.2531   18.7689 C.3     1  UNL1        0.2526
     33 O           5.2788   -4.0524   19.4109 O.3     1  UNL1       -0.4684
     34 C          -1.2376    2.5444   25.7545 C.1     1  UNL1       -0.0210
     35 C          -2.5528    3.2655   25.7628 C.1     1  UNL1       -0.0568
     36 C          -3.8681    3.9866   25.7711 C.ar    1  UNL1        0.0421
     37 C          -4.1877    4.9509   26.8747 C.ar    1  UNL1        0.0082
     38 C          -5.5030    5.6720   26.8829 C.ar    1  UNL1        0.0006
     39 C          -6.4986    5.4288   25.7877 C.ar    1  UNL1        0.0000
     40 C          -6.1790    4.4644   24.6841 C.ar    1  UNL1        0.0006
     41 C          -4.8637    3.7433   24.6758 C.ar    1  UNL1        0.0082
@<TRIPOS>BOND
     1    32    33    1
     2    33    24    1
     3    24    25   ar
     4    25    26   ar
     5    26    23    1
     6    23    22    1
     7    22    20    1
     8    20     1    1
     9     1     2   ar
    10     2     3   ar
    11     3    34    1
    12    34    35    3
    13    35    36    1
    14    36    37   ar
    15    37    38   ar
    16    38    39   ar
    17    39    40   ar
    18    40    41   ar
    19     3     4   ar
    20     4     5   ar
    21     5     6   ar
    22     6     7   ar
    23     7     8   ar
    24     8     9   ar
    25    10     9    1
    26    10    11    1
    27    11    12    1
    28    11    13    1
    29    13    14    1
    30    13    15    1
    31    15    16    1
    32    17    16    1
    33    26    27   ar
    34    27    28   ar
    35    28    29   ar
    36    29    30    1
    37    29    24   ar
    38     6     1   ar
    39    17    10    1
    40    41    36   ar
    41     9     5   ar
    42    17    15    1
    43    20    21    1
    44    12    18    1
    45    14    19    1
    46    30    31    1
@<TRIPOS>MOLECULE
*****
 41 46 0 0 0
SMALL
GASTEIGER

@<TRIPOS>ATOM
      1 C           5.7715   -1.7764   28.3656 C.ar    1  UNL1        0.1516
      2 N           5.7583   -2.0801   26.8967 N.ar    1  UNL1       -0.2031
      3 C           4.5682   -1.7057   26.0641 C.ar    1  UNL1        0.2093
      4 N           3.3912   -1.0275   26.7002 N.ar    1  UNL1       -0.2003
      5 C           3.4043   -0.7238   28.1691 C.ar    1  UNL1        0.1678
      6 C           4.5944   -1.0983   29.0018 C.ar    1  UNL1        0.1483
      7 N           4.3232   -0.6749   30.4150 N.ar    1  UNL1       -0.2195
      8 C           2.9654   -0.0388   30.4557 C.ar    1  UNL1        0.1798
      9 N           2.3975   -0.0690   29.0677 N.ar    1  UNL1       -0.2937
     10 C           1.0579    0.4623   28.6514 C.3     1  UNL1        0.1175
     11 C           0.8129    1.7090   27.8540 C.3     1  UNL1        0.1577
     12 O           1.8645    2.6432   27.3329 O.3     1  UNL1       -0.3801
     13 C          -0.6682    1.8575   27.6691 C.3     1  UNL1        0.1390
     14 O          -1.3578    2.9662   26.9308 O.3     1  UNL1       -0.3819
     15 C          -1.3386    0.7026   28.3523 C.3     1  UNL1        0.0314
     16 C          -1.7159   -0.5376   29.1071 C.3     1  UNL1        0.0046
     17 C          -0.2718   -0.1597   28.9594 C.3     1  UNL1        0.0258
     18 H           2.7416    2.3188   27.5907 H       1  UNL1        0.2105
     19 H          -2.3172    2.8259   26.9594 H       1  UNL1        0.2104
     20 N           6.9617   -2.1509   29.1983 N.pl3   1  UNL1       -0.3165
     21 H           7.7697   -1.5887   29.1830 H       1  UNL1        0.1483
     22 C           6.9208   -3.3821   30.0541 C.3     1  UNL1        0.0929
     23 C           7.3585   -3.3140   31.4872 C.3     1  UNL1        0.0476
     24 C           6.4476   -0.4122   34.0368 C.ar    1  UNL1        0.1718
     25 C           7.2159   -1.2485   33.0568 C.ar    1  UNL1        0.0358
     26 C           6.5902   -2.4777   32.4672 C.ar    1  UNL1       -0.0173
     27 C           5.1962   -2.8705   32.8575 C.ar    1  UNL1       -0.0009
     28 C           4.4278   -2.0343   33.8375 C.ar    1  UNL1        0.0395
     29 C           5.0535   -0.8051   34.4271 C.ar    1  UNL1        0.1677
     30 O           4.2853    0.0312   35.4071 O.3     1  UNL1       -0.5029
     31 H           3.4145   -0.2141   35.6509 H       1  UNL1        0.2923
     32 C           8.5648    0.9766   34.6186 C.3     1  UNL1        0.2526
     33 O           7.0733    0.8169   34.6263 O.3     1  UNL1       -0.4684
     34 C           4.5550   -2.0093   24.5951 C.1     1  UNL1       -0.0210
     35 C           4.5418   -2.3130   23.1262 C.1     1  UNL1       -0.0568
     36 C           4.5285   -2.6166   21.6574 C.ar    1  UNL1        0.0421
     37 C           5.4985   -3.6089   21.0879 C.ar    1  UNL1        0.0082
     38 C           5.4853   -3.9125   19.6190 C.ar    1  UNL1        0.0006
     39 C           4.5020   -3.2238   18.7196 C.ar    1  UNL1        0.0000
     40 C           3.5320   -2.2315   19.2891 C.ar    1  UNL1        0.0006
     41 C           3.5453   -1.9279   20.7580 C.ar    1  UNL1        0.0082
@<TRIPOS>BOND
     1    32    33    1
     2    33    24    1
     3    24    25   ar
     4    25    26   ar
     5    26    23    1
     6    23    22    1
     7    22    20    1
     8    20     1    1
     9     1     2   ar
    10     2     3   ar
    11     3    34    1
    12    34    35    3
    13    35    36    1
    14    36    37   ar
    15    37    38   ar
    16    38    39   ar
    17    39    40   ar
    18    40    41   ar
    19     3     4   ar
    20     4     5   ar
    21     5     6   ar
    22     6     7   ar
    23     7     8   ar
    24     8     9   ar
    25    10     9    1
    26    10    11    1
    27    11    12    1
    28    11    13    1
    29    13    14    1
    30    13    15    1
    31    15    16    1
    32    17    16    1
    33    26    27   ar
    34    27    28   ar
    35    28    29   ar
    36    29    30    1
    37    29    24   ar
    38     6     1   ar
    39    17    10    1
    40    41    36   ar
    41     9     5   ar
    42    17    15    1
    43    20    21    1
    44    12    18    1
    45    14    19    1
    46    30    31    1
@<TRIPOS>MOLECULE
*****
 41 46 0 0 0
SMALL
GASTEIGER

@<TRIPOS>ATOM
      1 C           1.0163    2.7809   19.5263 C.ar    1  UNL1        0.1516
      2 N           1.1914    2.3843   20.9624 N.ar    1  UNL1       -0.2031
      3 C           0.0249    2.4402   21.9035 C.ar    1  UNL1        0.2093
      4 N          -1.3169    2.8928   21.4088 N.ar    1  UNL1       -0.2003
      5 C          -1.4921    3.2893   19.9728 C.ar    1  UNL1        0.1678
      6 C          -0.3255    3.2334   19.0316 C.ar    1  UNL1        0.1483
      7 N          -0.7979    3.6823   17.6806 N.ar    1  UNL1       -0.2195
      8 C          -2.2565    4.0157   17.7868 C.ar    1  UNL1        0.1798
      9 N          -2.6856    3.7729   19.2035 N.ar    1  UNL1       -0.2937
     10 C          -4.0657    3.9776   19.7541 C.3     1  UNL1        0.1175
     11 C          -4.4044    4.6056   21.0736 C.3     1  UNL1        0.1577
     12 O          -3.4223    5.1391   22.0740 O.3     1  UNL1       -0.3801
     13 C          -5.8975    4.6064   21.2170 C.3     1  UNL1        0.1390
     14 O          -6.6707    5.1409   22.3859 O.3     1  UNL1       -0.3819
     15 C          -6.4817    3.9789   19.9861 C.3     1  UNL1        0.0314
     16 C          -6.7661    3.3226   18.6677 C.3     1  UNL1        0.0046
     17 C          -5.3496    3.5903   19.0820 C.3     1  UNL1        0.0258
     18 H          -2.5204    5.0171   21.7385 H       1  UNL1        0.2105
     19 H          -7.6201    5.0199   22.2281 H       1  UNL1        0.2104
     20 N           2.1830    2.7249   18.5852 N.pl3   1  UNL1       -0.3165
     21 H           2.2935    3.4195   17.8963 H       1  UNL1        0.1483
     22 C           3.1813    1.6106   18.6936 C.3     1  UNL1        0.0929
     23 C           2.7713    0.2029   18.3766 C.3     1  UNL1        0.0476
     24 C           3.8024   -1.9648   21.5370 C.ar    1  UNL1        0.1718
     25 C           3.2871   -0.8281   20.7050 C.ar    1  UNL1        0.0358
     26 C           3.2867   -0.9337   19.2087 C.ar    1  UNL1       -0.0173
     27 C           3.8017   -2.1761   18.5445 C.ar    1  UNL1       -0.0009
     28 C           4.3171   -3.3129   19.3765 C.ar    1  UNL1        0.0395
     29 C           4.3175   -3.2072   20.8728 C.ar    1  UNL1        0.1677
     30 O           4.8329   -4.3438   21.7049 O.3     1  UNL1       -0.5029
     31 H           5.1546   -5.1199   21.2900 H       1  UNL1        0.2923
     32 C           3.1220   -0.7026   23.7036 C.3     1  UNL1        0.2526
     33 O           3.8028   -1.8590   23.0333 O.3     1  UNL1       -0.4684
     34 C           0.2000    2.0436   23.3396 C.1     1  UNL1       -0.0210
     35 C           0.3750    1.6471   24.7756 C.1     1  UNL1       -0.0568
     36 C           0.5501    1.2505   26.2116 C.ar    1  UNL1        0.0421
     37 C          -0.6382    1.1987   27.1255 C.ar    1  UNL1        0.0082
     38 C          -0.4631    0.8022   28.5615 C.ar    1  UNL1        0.0006
     39 C           0.9002    0.4574   29.0836 C.ar    1  UNL1        0.0000
     40 C           2.0885    0.5092   28.1696 C.ar    1  UNL1        0.0006
     41 C           1.9134    0.9058   26.7336 C.ar    1  UNL1        0.0082
@<TRIPOS>BOND
     1    32    33    1
     2    33    24    1
     3    24    25   ar
     4    25    26   ar
     5    26    23    1
     6    23    22    1
     7    22    20    1
     8    20     1    1
     9     1     2   ar
    10     2     3   ar
    11     3    34    1
    12    34    35    3
    13    35    36    1
    14    36    37   ar
    15    37    38   ar
    16    38    39   ar
    17    39    40   ar
    18    40    41   ar
    19     3     4   ar
    20     4     5   ar
    21     5     6   ar
    22     6     7   ar
    23     7     8   ar
    24     8     9   ar
    25    10     9    1
    26    10    11    1
    27    11    12    1
    28    11    13    1
    29    13    14    1
    30    13    15    1
    31    15    16    1
    32    17    16    1
    33    26    27   ar
    34    27    28   ar
    35    28    29   ar
    36    29    30    1
    37    29    24   ar
    38     6     1   ar
    39    17    10    1
    40    41    36   ar
    41     9     5   ar
    42    17    15    1
    43    20    21    1
    44    12    18    1
    45    14    19    1
    46    30    31    1
