@<TRIPOS>MOLECULE
*****
 22 26 0 0 0
SMALL
GASTEIGER

@<TRIPOS>ATOM
      1 O          -8.4766  -19.2908   19.0354 O.2     1  UNL1       -0.2258
      2 C          -7.3480  -19.2187   20.0207 C.2     1  UNL1        0.4086
      3 O          -5.8853  -19.2331   19.6885 O.3     1  UNL1       -0.4384
      4 C          -5.1171  -19.1429   20.9737 C.3     1  UNL1        0.1706
      5 C          -4.2526  -19.2201   19.7503 C.3     1  UNL1        0.1145
      6 N          -2.7587  -19.2030   19.8853 N.3     1  UNL1       -0.2697
      7 C          -2.1294  -19.1087   21.2436 C.3     1  UNL1        0.0723
      8 C          -2.9939  -19.0315   22.4669 C.3     1  UNL1        0.0209
      9 C          -4.4877  -19.0486   22.3320 C.3     1  UNL1        0.0427
     10 C          -4.4199  -19.1349   21.0366 C.3     1  UNL1        0.0209
     11 C          -3.9589  -19.1761   20.3842 C.3     1  UNL1        0.0723
     12 C          -6.1050  -19.0728   22.1002 C.3     1  UNL1        0.1428
     13 N          -7.4837  -19.1197   21.5113 N.am    1  UNL1       -0.2214
     14 C          -8.7721  -19.0753   22.2783 C.ar    1  UNL1        0.0571
     15 C          -8.9925  -20.0119   23.4291 C.ar    1  UNL1        0.0155
     16 C         -10.2808  -19.9674   24.1960 C.ar    1  UNL1        0.0078
     17 C         -11.3487  -18.9865   23.8121 C.ar    1  UNL1        0.0296
     18 S         -12.7107  -18.7129   24.3781 S.2     1  UNL1       -0.0864
     19 C         -13.3320  -17.6073   23.5771 C.ar    1  UNL1        0.0354
     20 C         -12.3540  -17.1976   22.5161 C.ar    1  UNL1        0.0075
     21 C         -11.1283  -18.0500   22.6614 C.ar    1  UNL1        0.0077
     22 C          -9.8400  -18.0944   21.8944 C.ar    1  UNL1        0.0155
@<TRIPOS>BOND
     1     1     2    2
     2     2     3    1
     3     3     4    1
     4     4     5    1
     5     5     6    1
     6     6     7    1
     7     7     8    1
     8     8     9    1
     9     9    10    1
    10    10    11    1
    11     4    12    1
    12    12    13    1
    13    13    14    1
    14    14    15   ar
    15    15    16   ar
    16    16    17   ar
    17    17    18   ar
    18    18    19   ar
    19    19    20   ar
    20    20    21   ar
    21    21    22   ar
    22    13     2   am
    23    22    14   ar
    24     9     4    1
    25    21    17   ar
    26    11     6    1
@<TRIPOS>MOLECULE
*****
 22 26 0 0 0
SMALL
GASTEIGER

@<TRIPOS>ATOM
      1 O          -6.4963  -15.3517   24.5394 O.2     1  UNL1       -0.2258
      2 C          -6.0786  -16.5029   23.6732 C.2     1  UNL1        0.4086
      3 O          -4.6701  -16.9590   23.4319 O.3     1  UNL1       -0.4384
      4 C          -4.7169  -18.1381   22.5059 C.3     1  UNL1        0.1706
      5 C          -3.3311  -17.7466   22.9255 C.3     1  UNL1        0.1145
      6 N          -2.1482  -18.5177   22.4193 N.3     1  UNL1       -0.2697
      7 C          -2.3511  -19.6802   21.4935 C.3     1  UNL1        0.0723
      8 C          -3.7369  -20.0717   21.0738 C.3     1  UNL1        0.0209
      9 C          -4.9198  -19.3006   21.5800 C.3     1  UNL1        0.0427
     10 C          -4.1649  -18.4979   22.2696 C.3     1  UNL1        0.0209
     11 C          -3.4258  -18.2891   22.4935 C.3     1  UNL1        0.0723
     12 C          -6.1543  -18.4107   22.1749 C.3     1  UNL1        0.1428
     13 N          -6.9959  -17.4002   22.8964 N.am    1  UNL1       -0.2214
     14 C          -8.4920  -17.3038   22.8493 C.ar    1  UNL1        0.0571
     15 C          -9.1529  -16.3597   21.8891 C.ar    1  UNL1        0.0155
     16 C         -10.6490  -16.2633   21.8420 C.ar    1  UNL1        0.0078
     17 C         -11.4843  -17.1111   22.7551 C.ar    1  UNL1        0.0296
     18 S         -12.9687  -17.2319   22.9339 S.2     1  UNL1       -0.0864
     19 C         -13.2253  -18.2507   24.0045 C.ar    1  UNL1        0.0354
     20 C         -11.8994  -18.7595   24.4874 C.ar    1  UNL1        0.0075
     21 C         -10.8234  -18.0551   23.7152 C.ar    1  UNL1        0.0077
     22 C          -9.3273  -18.1515   23.7623 C.ar    1  UNL1        0.0155
@<TRIPOS>BOND
     1     1     2    2
     2     2     3    1
     3     3     4    1
     4     4     5    1
     5     5     6    1
     6     6     7    1
     7     7     8    1
     8     8     9    1
     9     9    10    1
    10    10    11    1
    11     4    12    1
    12    12    13    1
    13    13    14    1
    14    14    15   ar
    15    15    16   ar
    16    16    17   ar
    17    17    18   ar
    18    18    19   ar
    19    19    20   ar
    20    20    21   ar
    21    21    22   ar
    22    13     2   am
    23    22    14   ar
    24     9     4    1
    25    21    17   ar
    26    11     6    1
@<TRIPOS>MOLECULE
*****
 22 26 0 0 0
SMALL
GASTEIGER

@<TRIPOS>ATOM
      1 O          -7.0603  -21.4656   19.3872 O.2     1  UNL1       -0.2258
      2 C          -6.2886  -20.5411   20.2814 C.2     1  UNL1        0.4086
      3 O          -4.7967  -20.5015   20.4318 O.3     1  UNL1       -0.4384
      4 C          -4.4592  -19.4298   21.4255 C.3     1  UNL1        0.1706
      5 C          -3.2635  -20.1458   20.8709 C.3     1  UNL1        0.1145
      6 N          -1.8848  -19.7639   21.3217 N.3     1  UNL1       -0.2697
      7 C          -1.7017  -18.6660   22.3272 C.3     1  UNL1        0.0723
      8 C          -2.8973  -17.9500   22.8818 C.3     1  UNL1        0.0209
      9 C          -4.2761  -18.3319   22.4310 C.3     1  UNL1        0.0427
     10 C          -3.8158  -19.2515   21.6359 C.3     1  UNL1        0.0209
     11 C          -3.1781  -19.6334   21.3401 C.3     1  UNL1        0.0723
     12 C          -5.7426  -18.8070   21.8893 C.3     1  UNL1        0.1428
     13 N          -6.8732  -19.4938   21.1822 N.am    1  UNL1       -0.2214
     14 C          -8.3322  -19.1871   21.3470 C.ar    1  UNL1        0.0571
     15 C          -9.2174  -19.0815   20.1405 C.ar    1  UNL1        0.0155
     16 C         -10.6763  -18.7749   20.3054 C.ar    1  UNL1        0.0078
     17 C         -11.2502  -18.5739   21.6766 C.ar    1  UNL1        0.0296
     18 S         -12.6401  -18.2625   22.1473 S.2     1  UNL1       -0.0864
     19 C         -12.6139  -18.1756   23.6445 C.ar    1  UNL1        0.0354
     20 C         -11.2080  -18.4334   24.0992 C.ar    1  UNL1        0.0075
     21 C         -10.3652  -18.6795   22.8829 C.ar    1  UNL1        0.0077
     22 C          -8.9061  -18.9861   22.7182 C.ar    1  UNL1        0.0155
@<TRIPOS>BOND
     1     1     2    2
     2     2     3    1
     3     3     4    1
     4     4     5    1
     5     5     6    1
     6     6     7    1
     7     7     8    1
     8     8     9    1
     9     9    10    1
    10    10    11    1
    11     4    12    1
    12    12    13    1
    13    13    14    1
    14    14    15   ar
    15    15    16   ar
    16    16    17   ar
    17    17    18   ar
    18    18    19   ar
    19    19    20   ar
    20    20    21   ar
    21    21    22   ar
    22    13     2   am
    23    22    14   ar
    24     9     4    1
    25    21    17   ar
    26    11     6    1
@<TRIPOS>MOLECULE
*****
 22 26 0 0 0
SMALL
GASTEIGER

@<TRIPOS>ATOM
      1 O          -8.0889  -14.8423   21.2224 O.2     1  UNL1       -0.2258
      2 C          -8.7972  -15.9186   21.9903 C.2     1  UNL1        0.4086
      3 O         -10.2773  -16.0127   22.2154 O.3     1  UNL1       -0.4384
      4 C         -10.5447  -17.2420   23.0322 C.3     1  UNL1        0.1706
      5 C         -11.7782  -16.4675   22.6738 C.3     1  UNL1        0.1145
      6 N         -13.1241  -16.9469   23.1306 N.3     1  UNL1       -0.2697
      7 C         -13.2365  -18.2009   23.9459 C.3     1  UNL1        0.0723
      8 C         -12.0030  -18.9755   24.3044 C.3     1  UNL1        0.0209
      9 C         -10.6571  -18.4960   23.8475 C.3     1  UNL1        0.0427
     10 C         -11.1728  -17.4658   23.2454 C.3     1  UNL1        0.0209
     11 C         -11.8307  -17.0527   23.0542 C.3     1  UNL1        0.0723
     12 C          -9.2300  -17.9077   23.3119 C.3     1  UNL1        0.1428
     13 N          -8.1500  -17.0898   22.6680 N.am    1  UNL1       -0.2214
     14 C          -6.6807  -17.3904   22.6968 C.ar    1  UNL1        0.0571
     15 C          -5.7630  -16.5658   23.5500 C.ar    1  UNL1        0.0155
     16 C          -4.2938  -16.8664   23.5786 C.ar    1  UNL1        0.0078
     17 C          -3.7422  -17.9916   22.7542 C.ar    1  UNL1        0.0296
     18 S          -2.3489  -18.5197   22.5809 S.2     1  UNL1       -0.0864
     19 C          -2.4055  -19.6707   21.6206 C.ar    1  UNL1        0.0354
     20 C          -3.8337  -19.8539   21.2004 C.ar    1  UNL1        0.0075
     21 C          -4.6598  -18.8161   21.9011 C.ar    1  UNL1        0.0077
     22 C          -6.1291  -18.5156   21.8723 C.ar    1  UNL1        0.0155
@<TRIPOS>BOND
     1     1     2    2
     2     2     3    1
     3     3     4    1
     4     4     5    1
     5     5     6    1
     6     6     7    1
     7     7     8    1
     8     8     9    1
     9     9    10    1
    10    10    11    1
    11     4    12    1
    12    12    13    1
    13    13    14    1
    14    14    15   ar
    15    15    16   ar
    16    16    17   ar
    17    17    18   ar
    18    18    19   ar
    19    19    20   ar
    20    20    21   ar
    21    21    22   ar
    22    13     2   am
    23    22    14   ar
    24     9     4    1
    25    21    17   ar
    26    11     6    1
@<TRIPOS>MOLECULE
*****
 22 26 0 0 0
SMALL
GASTEIGER

@<TRIPOS>ATOM
      1 O          -8.9198  -18.9611   18.7456 O.2     1  UNL1       -0.2258
      2 C          -9.2873  -18.9107   20.1990 C.2     1  UNL1        0.4086
      3 O         -10.6633  -18.6883   20.7534 O.3     1  UNL1       -0.4384
      4 C         -10.5698  -18.7140   22.2502 C.3     1  UNL1        0.1706
      5 C         -11.9572  -18.4823   21.7295 C.3     1  UNL1        0.1145
      6 N         -13.0973  -18.3015   22.6874 N.3     1  UNL1       -0.2697
      7 C         -12.8499  -18.3524   24.1660 C.3     1  UNL1        0.0723
      8 C         -11.4624  -18.5840   24.6866 C.3     1  UNL1        0.0209
      9 C         -10.3224  -18.7649   23.7288 C.3     1  UNL1        0.0427
     10 C         -11.1018  -18.6296   22.6972 C.3     1  UNL1        0.0209
     11 C         -11.8418  -18.5060   22.4195 C.3     1  UNL1        0.0723
     12 C          -9.1360  -18.9523   22.6210 C.3     1  UNL1        0.1428
     13 N          -8.3434  -19.0738   21.3533 N.am    1  UNL1       -0.2214
     14 C          -6.8662  -19.3160   21.2569 C.ar    1  UNL1        0.0571
     15 C          -6.3385  -20.3766   20.3367 C.ar    1  UNL1        0.0155
     16 C          -4.8614  -20.6187   20.2403 C.ar    1  UNL1        0.0078
     17 C          -3.9119  -19.8003   21.0641 C.ar    1  UNL1        0.0296
     18 S          -2.4163  -19.8116   21.1792 S.2     1  UNL1       -0.0864
     19 C          -2.0197  -18.7580   22.1705 C.ar    1  UNL1        0.0354
     20 C          -3.2701  -18.0956   22.6681 C.ar    1  UNL1        0.0075
     21 C          -4.4395  -18.7398   21.9843 C.ar    1  UNL1        0.0077
     22 C          -5.9167  -18.4976   22.0807 C.ar    1  UNL1        0.0155
@<TRIPOS>BOND
     1     1     2    2
     2     2     3    1
     3     3     4    1
     4     4     5    1
     5     5     6    1
     6     6     7    1
     7     7     8    1
     8     8     9    1
     9     9    10    1
    10    10    11    1
    11     4    12    1
    12    12    13    1
    13    13    14    1
    14    14    15   ar
    15    15    16   ar
    16    16    17   ar
    17    17    18   ar
    18    18    19   ar
    19    19    20   ar
    20    20    21   ar
    21    21    22   ar
    22    13     2   am
    23    22    14   ar
    24     9     4    1
    25    21    17   ar
    26    11     6    1
@<TRIPOS>MOLECULE
*****
 22 26 0 0 0
SMALL
GASTEIGER

@<TRIPOS>ATOM
      1 O          -5.8275  -21.2034   20.4191 O.2     1  UNL1       -0.2258
      2 C          -4.9265  -20.0412   20.7152 C.2     1  UNL1        0.4086
      3 O          -3.5190  -19.8698   20.2258 O.3     1  UNL1       -0.4384
      4 C          -2.9974  -18.5691   20.7608 C.3     1  UNL1        0.1706
      5 C          -2.0124  -19.3196   19.9144 C.3     1  UNL1        0.1145
      6 N          -0.6456  -18.7511   19.6719 N.3     1  UNL1       -0.2697
      7 C          -0.2638  -17.4323   20.2760 C.3     1  UNL1        0.0723
      8 C          -1.2489  -16.6819   21.1224 C.3     1  UNL1        0.0209
      9 C          -2.6156  -17.2503   21.3649 C.3     1  UNL1        0.0427
     10 C          -2.3596  -18.3039   20.6477 C.3     1  UNL1        0.0209
     11 C          -1.8342  -18.7041   20.1962 C.3     1  UNL1        0.0723
     12 C          -4.0826  -17.9368   21.5809 C.3     1  UNL1        0.1428
     13 N          -5.2749  -18.8465   21.5527 N.am    1  UNL1       -0.2214
     14 C          -6.5853  -18.6042   22.2410 C.ar    1  UNL1        0.0571
     15 C          -6.9087  -17.2422   22.7802 C.ar    1  UNL1        0.0155
     16 C          -8.2191  -16.9999   23.4686 C.ar    1  UNL1        0.0078
     17 C          -9.2062  -18.1195   23.6178 C.ar    1  UNL1        0.0296
     18 S         -10.5678  -18.1803   24.2444 S.2     1  UNL1       -0.0864
     19 C         -11.0859  -19.5798   24.0924 C.ar    1  UNL1        0.0354
     20 C         -10.0446  -20.3838   23.3720 C.ar    1  UNL1        0.0075
     21 C          -8.8829  -19.4813   23.0787 C.ar    1  UNL1        0.0077
     22 C          -7.5724  -19.7237   22.3903 C.ar    1  UNL1        0.0155
@<TRIPOS>BOND
     1     1     2    2
     2     2     3    1
     3     3     4    1
     4     4     5    1
     5     5     6    1
     6     6     7    1
     7     7     8    1
     8     8     9    1
     9     9    10    1
    10    10    11    1
    11     4    12    1
    12    12    13    1
    13    13    14    1
    14    14    15   ar
    15    15    16   ar
    16    16    17   ar
    17    17    18   ar
    18    18    19   ar
    19    19    20   ar
    20    20    21   ar
    21    21    22   ar
    22    13     2   am
    23    22    14   ar
    24     9     4    1
    25    21    17   ar
    26    11     6    1
@<TRIPOS>MOLECULE
*****
 22 26 0 0 0
SMALL
GASTEIGER

@<TRIPOS>ATOM
      1 O          -5.9755  -20.9157   22.8005 O.2     1  UNL1       -0.2258
      2 C          -5.2963  -20.0544   21.7774 C.2     1  UNL1        0.4086
      3 O          -3.8177  -19.9667   21.5402 O.3     1  UNL1       -0.4384
      4 C          -3.5839  -18.9877   20.4281 C.3     1  UNL1        0.1706
      5 C          -2.3282  -19.5923   20.9827 C.3     1  UNL1        0.1145
      6 N          -0.9945  -19.1997   20.4196 N.3     1  UNL1       -0.2697
      7 C          -0.9165  -18.2024   19.3019 C.3     1  UNL1        0.0723
      8 C          -2.1722  -17.5978   18.7473 C.3     1  UNL1        0.0209
      9 C          -3.5059  -17.9904   19.3104 C.3     1  UNL1        0.0427
     10 C          -2.9615  -18.8045   20.1654 C.3     1  UNL1        0.0209
     11 C          -2.2918  -19.1269   20.4611 C.3     1  UNL1        0.0723
     12 C          -4.9179  -18.4703   19.9780 C.3     1  UNL1        0.1428
     13 N          -5.9762  -19.1295   20.8119 N.am    1  UNL1       -0.2214
     14 C          -7.4549  -18.9036   20.6999 C.ar    1  UNL1        0.0571
     15 C          -8.2346  -19.5696   19.6051 C.ar    1  UNL1        0.0155
     16 C          -9.7132  -19.3436   19.4932 C.ar    1  UNL1        0.0078
     17 C         -10.4121  -18.4516   20.4760 C.ar    1  UNL1        0.0296
     18 S         -11.8488  -18.0435   20.6159 S.2     1  UNL1       -0.0864
     19 C         -11.9569  -17.1253   21.7971 C.ar    1  UNL1        0.0354
     20 C         -10.5872  -16.9659   22.3872 C.ar    1  UNL1        0.0075
     21 C          -9.6324  -17.7856   21.5707 C.ar    1  UNL1        0.0077
     22 C          -8.1538  -18.0116   21.6827 C.ar    1  UNL1        0.0155
@<TRIPOS>BOND
     1     1     2    2
     2     2     3    1
     3     3     4    1
     4     4     5    1
     5     5     6    1
     6     6     7    1
     7     7     8    1
     8     8     9    1
     9     9    10    1
    10    10    11    1
    11     4    12    1
    12    12    13    1
    13    13    14    1
    14    14    15   ar
    15    15    16   ar
    16    16    17   ar
    17    17    18   ar
    18    18    19   ar
    19    19    20   ar
    20    20    21   ar
    21    21    22   ar
    22    13     2   am
    23    22    14   ar
    24     9     4    1
    25    21    17   ar
    26    11     6    1
@<TRIPOS>MOLECULE
*****
 22 26 0 0 0
SMALL
GASTEIGER

@<TRIPOS>ATOM
      1 O          -7.1534  -16.1488   24.4218 O.2     1  UNL1       -0.2258
      2 C          -8.1541  -16.7989   23.5129 C.2     1  UNL1        0.4086
      3 O          -9.6343  -16.5560   23.5137 O.3     1  UNL1       -0.4384
      4 C         -10.2453  -17.4130   22.4450 C.3     1  UNL1        0.1706
      5 C         -11.2372  -16.5766   23.1976 C.3     1  UNL1        0.1145
      6 N         -12.6948  -16.6484   22.8510 N.3     1  UNL1       -0.2697
      7 C         -13.1605  -17.5566   21.7518 C.3     1  UNL1        0.0723
      8 C         -12.1686  -18.3930   20.9992 C.3     1  UNL1        0.0209
      9 C         -10.7110  -18.3212   21.3458 C.3     1  UNL1        0.0427
     10 C         -10.9255  -17.4465   22.2833 C.3     1  UNL1        0.0209
     11 C         -11.4545  -17.0005   22.6847 C.3     1  UNL1        0.0723
     12 C          -9.1427  -18.1857   21.7838 C.3     1  UNL1        0.1428
     13 N          -7.8502  -17.8062   22.4438 N.am    1  UNL1       -0.2214
     14 C          -6.4924  -18.3402   22.0957 C.ar    1  UNL1        0.0571
     15 C          -6.3613  -19.4978   21.1509 C.ar    1  UNL1        0.0155
     16 C          -5.0035  -20.0317   20.8029 C.ar    1  UNL1        0.0078
     17 C          -3.7768  -19.4081   21.3996 C.ar    1  UNL1        0.0296
     18 S          -2.3170  -19.7165   21.2443 S.2     1  UNL1       -0.0864
     19 C          -1.5460  -18.7496   22.0930 C.ar    1  UNL1        0.0354
     20 C          -2.5291  -17.8435   22.7730 C.ar    1  UNL1        0.0075
     21 C          -3.9079  -18.2505   22.3444 C.ar    1  UNL1        0.0077
     22 C          -5.2657  -17.7165   22.6925 C.ar    1  UNL1        0.0155
@<TRIPOS>BOND
     1     1     2    2
     2     2     3    1
     3     3     4    1
     4     4     5    1
     5     5     6    1
     6     6     7    1
     7     7     8    1
     8     8     9    1
     9     9    10    1
    10    10    11    1
    11     4    12    1
    12    12    13    1
    13    13    14    1
    14    14    15   ar
    15    15    16   ar
    16    16    17   ar
    17    17    18   ar
    18    18    19   ar
    19    19    20   ar
    20    20    21   ar
    21    21    22   ar
    22    13     2   am
    23    22    14   ar
    24     9     4    1
    25    21    17   ar
    26    11     6    1
@<TRIPOS>MOLECULE
*****
 22 26 0 0 0
SMALL
GASTEIGER

@<TRIPOS>ATOM
      1 O         -16.0389   -4.7604   19.8520 O.2     1  UNL1       -0.2258
      2 C         -14.8070   -5.5031   19.4271 C.2     1  UNL1        0.4086
      3 O         -13.4044   -4.9719   19.4527 O.3     1  UNL1       -0.4384
      4 C         -12.4918   -6.0480   18.9435 C.3     1  UNL1        0.1706
      5 C         -11.7866   -4.7807   19.3264 C.3     1  UNL1        0.1145
      6 N         -10.2970   -4.6784   19.1827 N.3     1  UNL1       -0.2697
      7 C          -9.5126   -5.8435   18.6562 C.3     1  UNL1        0.0723
      8 C         -10.2178   -7.1108   18.2733 C.3     1  UNL1        0.0209
      9 C         -11.7074   -7.2130   18.4170 C.3     1  UNL1        0.0427
     10 C         -11.7966   -6.0002   18.8765 C.3     1  UNL1        0.0209
     11 C         -11.4205   -5.3244   19.0807 C.3     1  UNL1        0.0723
     12 C         -13.3304   -7.2442   18.6032 C.3     1  UNL1        0.1428
     13 N         -14.7612   -6.9075   18.9020 N.am    1  UNL1       -0.2214
     14 C         -15.9394   -7.8157   18.7096 C.ar    1  UNL1        0.0571
     15 C         -16.3189   -8.7900   19.7851 C.ar    1  UNL1        0.0155
     16 C         -17.4971   -9.6981   19.5927 C.ar    1  UNL1        0.0078
     17 C         -18.2957   -9.6320   18.3247 C.ar    1  UNL1        0.0296
     18 S         -19.4986  -10.3955   17.8551 S.2     1  UNL1       -0.0864
     19 C         -19.8624   -9.8931   16.4894 C.ar    1  UNL1        0.0354
     20 C         -18.8845   -8.8191   16.1149 C.ar    1  UNL1        0.0075
     21 C         -17.9162   -8.6578   17.2492 C.ar    1  UNL1        0.0077
     22 C         -16.7380   -7.7496   17.4417 C.ar    1  UNL1        0.0155
@<TRIPOS>BOND
     1     1     2    2
     2     2     3    1
     3     3     4    1
     4     4     5    1
     5     5     6    1
     6     6     7    1
     7     7     8    1
     8     8     9    1
     9     9    10    1
    10    10    11    1
    11     4    12    1
    12    12    13    1
    13    13    14    1
    14    14    15   ar
    15    15    16   ar
    16    16    17   ar
    17    17    18   ar
    18    18    19   ar
    19    19    20   ar
    20    20    21   ar
    21    21    22   ar
    22    13     2   am
    23    22    14   ar
    24     9     4    1
    25    21    17   ar
    26    11     6    1
