@<TRIPOS>MOLECULE
*****
 36 38 0 0 0
SMALL
GASTEIGER

@<TRIPOS>ATOM
      1 N          -5.1792  -15.1847   23.1642 N.am    1  UNL1       -0.2683
      2 C          -4.3357  -16.3207   22.6661 C.2     1  UNL1        0.3044
      3 O          -4.8813  -17.7180   22.6704 O.2     1  UNL1       -0.2525
      4 N          -2.9468  -16.0594   22.1636 N.am    1  UNL1       -0.2903
      5 H          -4.8211  -14.2676   23.1614 H       1  UNL1        0.1564
      6 H          -2.5887  -15.1424   22.1608 H       1  UNL1        0.1509
      7 C          -9.0820  -15.9039   23.1964 C.ar    1  UNL1        0.0360
      8 C          -7.6930  -15.6426   22.6940 C.ar    1  UNL1        0.0176
      9 C          -6.5682  -15.4460   23.6667 C.ar    1  UNL1        0.0517
     10 C          -6.8324  -15.5106   25.1418 C.ar    1  UNL1        0.0176
     11 C          -8.2213  -15.7719   25.6442 C.ar    1  UNL1        0.0360
     12 C          -9.3461  -15.9686   24.6715 C.ar    1  UNL1        0.0058
     13 C         -11.6095  -16.2768   22.7248 C.3     1  UNL1        0.0773
     14 C         -10.2068  -16.1006   22.2237 C.2     1  UNL1        0.1735
     15 O          -9.9288  -16.1211   20.7498 O.2     1  UNL1       -0.2913
     16 C          -8.4856  -15.8366   27.1194 C.2     1  UNL1        0.1735
     17 C          -8.4131  -14.5895   27.9496 C.3     1  UNL1        0.0773
     18 O          -8.8222  -17.1484   27.7642 O.2     1  UNL1       -0.2913
     19 C          -2.1034  -17.1954   21.6655 C.3     1  UNL1        0.0745
     20 C          -1.5630  -18.2081   22.6313 C.3     1  UNL1        0.0214
     21 C          -1.8003  -17.3188   20.2017 C.3     1  UNL1        0.0369
     22 C          -2.8927  -17.6733   19.2368 C.3     1  UNL1        0.0738
     23 N          -3.8862  -18.7409   19.5879 N.3     1  UNL1       -0.2726
     24 C          -3.4098  -20.0968   20.0174 C.3     1  UNL1        0.0721
     25 C          -4.4033  -21.1643   20.3685 C.3     1  UNL1        0.0174
     26 C          -5.8733  -20.8759   20.2900 C.3     1  UNL1        0.0031
     27 C          -6.3497  -19.5200   19.8605 C.3     1  UNL1        0.0204
     28 C          -5.3562  -18.4525   19.5095 C.3     1  UNL1        0.0724
     29 C          -7.8196  -19.2316   19.7821 C.3     1  UNL1        0.0277
     30 C          -8.6839  -19.4059   20.9955 C.ar    1  UNL1       -0.0220
     31 C         -10.1602  -19.6220   20.8402 C.ar    1  UNL1       -0.0020
     32 C         -11.0245  -19.7962   22.0536 C.ar    1  UNL1        0.0293
     33 C         -10.4126  -19.7544   23.4225 C.ar    1  UNL1        0.1401
     34 F         -11.2770  -19.9287   24.6360 F       1  UNL1       -0.2042
     35 C          -8.9364  -19.5384   23.5780 C.ar    1  UNL1        0.0293
     36 C          -8.0720  -19.3641   22.3644 C.ar    1  UNL1       -0.0020
@<TRIPOS>BOND
     1    13    14    1
     2    14    15    2
     3    14     7    1
     4     7     8   ar
     5     8     9   ar
     6     9     1    1
     7     1     2   am
     8     2     3    2
     9     2     4   am
    10     4    19    1
    11    19    20    1
    12    19    21    1
    13    21    22    1
    14    22    23    1
    15    23    24    1
    16    24    25    1
    17    25    26    1
    18    26    27    1
    19    27    29    1
    20    29    30    1
    21    30    31   ar
    22    31    32   ar
    23    32    33   ar
    24    33    34    1
    25    33    35   ar
    26    35    36   ar
    27    27    28    1
    28     9    10   ar
    29    10    11   ar
    30    11    16    1
    31    16    17    1
    32    16    18    2
    33    11    12   ar
    34    12     7   ar
    35    28    23    1
    36    36    30   ar
    37     1     5    1
    38     4     6    1
@<TRIPOS>MOLECULE
*****
 36 38 0 0 0
SMALL
GASTEIGER

@<TRIPOS>ATOM
      1 N          -5.1795  -15.1773   23.1678 N.am    1  UNL1       -0.2683
      2 C          -4.3357  -16.3128   22.6691 C.2     1  UNL1        0.3044
      3 O          -4.8808  -17.7103   22.6729 O.2     1  UNL1       -0.2525
      4 N          -2.9468  -16.0509   22.1668 N.am    1  UNL1       -0.2903
      5 H          -4.8218  -14.2601   23.1653 H       1  UNL1        0.1564
      6 H          -2.5890  -15.1337   22.1644 H       1  UNL1        0.1509
      7 C          -8.2217  -15.7653   25.6476 C.ar    1  UNL1        0.0360
      8 C          -6.8328  -15.5034   25.1452 C.ar    1  UNL1        0.0176
      9 C          -6.5684  -15.4393   23.6701 C.ar    1  UNL1        0.0517
     10 C          -7.6929  -15.6373   22.6973 C.ar    1  UNL1        0.0176
     11 C          -9.0818  -15.8993   23.1997 C.ar    1  UNL1        0.0360
     12 C          -9.3461  -15.9633   24.6748 C.ar    1  UNL1        0.0058
     13 C          -8.4093  -14.5827   27.9532 C.3     1  UNL1        0.0773
     14 C          -8.4860  -15.8294   27.1227 C.2     1  UNL1        0.1735
     15 O          -8.8272  -17.1401   27.7673 O.2     1  UNL1       -0.2913
     16 C         -10.2063  -16.0973   22.2269 C.2     1  UNL1        0.1735
     17 C         -11.6081  -16.2803   22.7282 C.3     1  UNL1        0.0773
     18 O          -9.9290  -16.1122   20.7528 O.2     1  UNL1       -0.2913
     19 C          -2.1030  -17.1864   21.6682 C.3     1  UNL1        0.0745
     20 C          -1.5624  -18.1993   22.6335 C.3     1  UNL1        0.0214
     21 C          -1.7997  -17.3090   20.2043 C.3     1  UNL1        0.0369
     22 C          -2.8920  -17.6635   19.2393 C.3     1  UNL1        0.0738
     23 N          -3.8842  -18.7327   19.5893 N.3     1  UNL1       -0.2726
     24 C          -3.4062  -20.0886   20.0170 C.3     1  UNL1        0.0721
     25 C          -4.3984  -21.1576   20.3670 C.3     1  UNL1        0.0174
     26 C          -5.8687  -20.8708   20.2893 C.3     1  UNL1        0.0031
     27 C          -6.3467  -19.5148   19.8617 C.3     1  UNL1        0.0204
     28 C          -5.3545  -18.4458   19.5117 C.3     1  UNL1        0.0724
     29 C          -7.8170  -19.2280   19.7840 C.3     1  UNL1        0.0277
     30 C          -8.6804  -19.4032   20.9979 C.ar    1  UNL1       -0.0220
     31 C          -8.0689  -19.3540   22.3668 C.ar    1  UNL1       -0.0020
     32 C          -8.9324  -19.5292   23.5807 C.ar    1  UNL1        0.0293
     33 C         -10.4074  -19.7537   23.4259 C.ar    1  UNL1        0.1401
     34 F         -11.2709  -19.9290   24.6399 F       1  UNL1       -0.2042
     35 C         -11.0189  -19.8030   22.0571 C.ar    1  UNL1        0.0293
     36 C         -10.1554  -19.6278   20.8431 C.ar    1  UNL1       -0.0020
@<TRIPOS>BOND
     1    13    14    1
     2    14    15    2
     3    14     7    1
     4     7     8   ar
     5     8     9   ar
     6     9     1    1
     7     1     2   am
     8     2     3    2
     9     2     4   am
    10     4    19    1
    11    19    20    1
    12    19    21    1
    13    21    22    1
    14    22    23    1
    15    23    24    1
    16    24    25    1
    17    25    26    1
    18    26    27    1
    19    27    29    1
    20    29    30    1
    21    30    31   ar
    22    31    32   ar
    23    32    33   ar
    24    33    34    1
    25    33    35   ar
    26    35    36   ar
    27    27    28    1
    28     9    10   ar
    29    10    11   ar
    30    11    16    1
    31    16    17    1
    32    16    18    2
    33    11    12   ar
    34    12     7   ar
    35    28    23    1
    36    36    30   ar
    37     1     5    1
    38     4     6    1
@<TRIPOS>MOLECULE
*****
 36 38 0 0 0
SMALL
GASTEIGER

@<TRIPOS>ATOM
      1 N          -5.4532  -20.7864   20.2677 N.am    1  UNL1       -0.2683
      2 C          -6.7483  -20.3554   19.6456 C.2     1  UNL1        0.3044
      3 O          -7.0645  -18.8956   19.5069 O.2     1  UNL1       -0.2525
      4 N          -7.7271  -21.3840   19.1622 N.am    1  UNL1       -0.2903
      5 H          -5.2457  -21.7445   20.3588 H       1  UNL1        0.1564
      6 H          -7.5196  -22.3421   19.2533 H       1  UNL1        0.1509
      7 C          -3.6973  -18.0694   22.5665 C.ar    1  UNL1        0.0360
      8 C          -4.6761  -19.0981   22.0831 C.ar    1  UNL1        0.0176
      9 C          -4.4744  -19.7577   20.7511 C.ar    1  UNL1        0.0517
     10 C          -3.2939  -19.3886   19.9025 C.ar    1  UNL1        0.0176
     11 C          -2.3151  -18.3599   20.3859 C.ar    1  UNL1        0.0360
     12 C          -2.5168  -17.7003   21.7179 C.ar    1  UNL1        0.0058
     13 C          -4.6526  -16.1160   23.9883 C.3     1  UNL1        0.0773
     14 C          -3.8990  -17.4098   23.8985 C.2     1  UNL1        0.1735
     15 O          -3.3470  -18.0439   25.1407 O.2     1  UNL1       -0.2913
     16 C          -1.1345  -17.9907   19.5373 C.2     1  UNL1        0.1735
     17 C           0.1562  -17.5838   20.1841 C.3     1  UNL1        0.0773
     18 O          -1.2448  -18.0285   18.0418 O.2     1  UNL1       -0.2913
     19 C          -9.0222  -20.9530   18.5401 C.3     1  UNL1        0.0745
     20 C          -9.2471  -21.1419   17.0691 C.3     1  UNL1        0.0214
     21 C         -10.0923  -20.3331   19.3889 C.3     1  UNL1        0.0369
     22 C         -10.3122  -18.8498   19.3538 C.3     1  UNL1        0.0738
     23 N         -10.8101  -18.1362   20.5757 N.3     1  UNL1       -0.2726
     24 C         -11.8107  -17.0269   20.4410 C.3     1  UNL1        0.0721
     25 C         -12.3085  -16.3134   21.6629 C.3     1  UNL1        0.0174
     26 C         -11.8057  -16.7092   23.0195 C.3     1  UNL1        0.0031
     27 C         -10.8051  -17.8185   23.1543 C.3     1  UNL1        0.0204
     28 C         -10.3073  -18.5320   21.9324 C.3     1  UNL1        0.0724
     29 C         -10.3023  -18.2143   24.5109 C.3     1  UNL1        0.0277
     30 C          -9.3801  -17.3024   25.2644 C.ar    1  UNL1       -0.0220
     31 C          -9.1540  -17.5105   26.7327 C.ar    1  UNL1       -0.0020
     32 C          -8.2317  -16.5986   27.4862 C.ar    1  UNL1        0.0293
     33 C          -7.5355  -15.4785   26.7715 C.ar    1  UNL1        0.1401
     34 F          -6.6132  -14.5666   27.5251 F       1  UNL1       -0.2042
     35 C          -7.7616  -15.2704   25.3034 C.ar    1  UNL1        0.0293
     36 C          -8.6839  -16.1823   24.5498 C.ar    1  UNL1       -0.0020
@<TRIPOS>BOND
     1    13    14    1
     2    14    15    2
     3    14     7    1
     4     7     8   ar
     5     8     9   ar
     6     9     1    1
     7     1     2   am
     8     2     3    2
     9     2     4   am
    10     4    19    1
    11    19    20    1
    12    19    21    1
    13    21    22    1
    14    22    23    1
    15    23    24    1
    16    24    25    1
    17    25    26    1
    18    26    27    1
    19    27    29    1
    20    29    30    1
    21    30    31   ar
    22    31    32   ar
    23    32    33   ar
    24    33    34    1
    25    33    35   ar
    26    35    36   ar
    27    27    28    1
    28     9    10   ar
    29    10    11   ar
    30    11    16    1
    31    16    17    1
    32    16    18    2
    33    11    12   ar
    34    12     7   ar
    35    28    23    1
    36    36    30   ar
    37     1     5    1
    38     4     6    1
@<TRIPOS>MOLECULE
*****
 36 38 0 0 0
SMALL
GASTEIGER

@<TRIPOS>ATOM
      1 N          -5.5137  -20.7793   20.3460 N.am    1  UNL1       -0.2683
      2 C          -6.7813  -20.3402   19.6749 C.2     1  UNL1        0.3044
      3 O          -7.0617  -18.8789   19.4845 O.2     1  UNL1       -0.2525
      4 N          -7.7684  -21.3622   19.1942 N.am    1  UNL1       -0.2903
      5 H          -5.3296  -21.7383   20.4710 H       1  UNL1        0.1564
      6 H          -7.5843  -22.3212   19.3192 H       1  UNL1        0.1509
      7 C          -2.3611  -18.3711   20.4536 C.ar    1  UNL1        0.0360
      8 C          -3.3482  -19.3931   19.9730 C.ar    1  UNL1        0.0176
      9 C          -4.5266  -19.7572   20.8267 C.ar    1  UNL1        0.0517
     10 C          -4.7179  -19.0993   22.1610 C.ar    1  UNL1        0.0176
     11 C          -3.7308  -18.0772   22.6416 C.ar    1  UNL1        0.0360
     12 C          -2.5524  -17.7131   21.7879 C.ar    1  UNL1        0.0058
     13 C           0.0671  -17.4734   20.2348 C.3     1  UNL1        0.0773
     14 C          -1.1827  -18.0070   19.5999 C.2     1  UNL1        0.1735
     15 O          -1.2541  -18.1765   18.1113 O.2     1  UNL1       -0.2913
     16 C          -3.9221  -17.4192   23.9760 C.2     1  UNL1        0.1735
     17 C          -4.6519  -16.1121   24.0700 C.3     1  UNL1        0.0773
     18 O          -3.3835  -18.0683   25.2164 O.2     1  UNL1       -0.2913
     19 C          -9.0359  -20.9231   18.5231 C.3     1  UNL1        0.0745
     20 C          -9.2152  -21.1321   17.0486 C.3     1  UNL1        0.0214
     21 C         -10.1242  -20.2749   19.3265 C.3     1  UNL1        0.0369
     22 C         -10.2582  -18.7810   19.3400 C.3     1  UNL1        0.0738
     23 N         -10.7733  -18.0852   20.5650 N.3     1  UNL1       -0.2726
     24 C         -11.7868  -16.9872   20.4337 C.3     1  UNL1        0.0721
     25 C         -12.3018  -16.2915   21.6587 C.3     1  UNL1        0.0174
     26 C         -11.8034  -16.6938   23.0150 C.3     1  UNL1        0.0031
     27 C         -10.7900  -17.7918   23.1464 C.3     1  UNL1        0.0204
     28 C         -10.2749  -18.4875   21.9214 C.3     1  UNL1        0.0724
     29 C         -10.2916  -18.1940   24.5028 C.3     1  UNL1        0.0277
     30 C          -9.3743  -17.2843   25.2650 C.ar    1  UNL1       -0.0220
     31 C          -8.6756  -16.1605   24.5587 C.ar    1  UNL1       -0.0020
     32 C          -7.7583  -15.2507   25.3209 C.ar    1  UNL1        0.0293
     33 C          -7.5398  -15.4647   26.7893 C.ar    1  UNL1        0.1401
     34 F          -6.6225  -14.5549   27.5515 F       1  UNL1       -0.2042
     35 C          -8.2385  -16.5885   27.4956 C.ar    1  UNL1        0.0293
     36 C          -9.1558  -17.4983   26.7335 C.ar    1  UNL1       -0.0020
@<TRIPOS>BOND
     1    13    14    1
     2    14    15    2
     3    14     7    1
     4     7     8   ar
     5     8     9   ar
     6     9     1    1
     7     1     2   am
     8     2     3    2
     9     2     4   am
    10     4    19    1
    11    19    20    1
    12    19    21    1
    13    21    22    1
    14    22    23    1
    15    23    24    1
    16    24    25    1
    17    25    26    1
    18    26    27    1
    19    27    29    1
    20    29    30    1
    21    30    31   ar
    22    31    32   ar
    23    32    33   ar
    24    33    34    1
    25    33    35   ar
    26    35    36   ar
    27    27    28    1
    28     9    10   ar
    29    10    11   ar
    30    11    16    1
    31    16    17    1
    32    16    18    2
    33    11    12   ar
    34    12     7   ar
    35    28    23    1
    36    36    30   ar
    37     1     5    1
    38     4     6    1
@<TRIPOS>MOLECULE
*****
 36 38 0 0 0
SMALL
GASTEIGER

@<TRIPOS>ATOM
      1 N          -9.3381  -18.1477   24.6148 N.am    1  UNL1       -0.2683
      2 C          -8.8190  -16.8953   25.2567 C.2     1  UNL1        0.3044
      3 O          -8.5222  -15.6890   24.4160 O.2     1  UNL1       -0.2525
      4 N          -8.5967  -16.8492   26.7394 N.am    1  UNL1       -0.2903
      5 H          -9.5329  -18.9394   25.1666 H       1  UNL1        0.1564
      6 H          -8.7915  -17.6409   27.2912 H       1  UNL1        0.1509
      7 C         -10.8911  -17.4396   21.0319 C.ar    1  UNL1        0.0360
      8 C         -10.6688  -17.3936   22.5146 C.ar    1  UNL1        0.0176
      9 C          -9.5604  -18.1937   23.1320 C.ar    1  UNL1        0.0517
     10 C          -8.6743  -19.0399   22.2667 C.ar    1  UNL1        0.0176
     11 C          -8.8966  -19.0860   20.7840 C.ar    1  UNL1        0.0360
     12 C         -10.0050  -18.2858   20.1666 C.ar    1  UNL1        0.0058
     13 C         -11.7007  -15.6768   19.3037 C.3     1  UNL1        0.0773
     14 C         -11.9995  -16.6395   20.4145 C.2     1  UNL1        0.1735
     15 O         -13.4066  -16.8021   20.9078 O.2     1  UNL1       -0.2913
     16 C          -8.0104  -19.9322   19.9187 C.2     1  UNL1        0.1735
     17 C          -6.6034  -20.2265   20.3472 C.3     1  UNL1        0.0773
     18 O          -8.5313  -20.4840   18.6248 O.2     1  UNL1       -0.2913
     19 C          -8.0777  -15.5968   27.3814 C.3     1  UNL1        0.0745
     20 C          -9.0364  -14.5532   27.8731 C.3     1  UNL1        0.0214
     21 C          -6.5999  -15.3881   27.5317 C.3     1  UNL1        0.0369
     22 C          -5.6395  -16.3975   26.9762 C.3     1  UNL1        0.0738
     23 N          -5.1299  -16.2548   25.5726 N.3     1  UNL1       -0.2726
     24 C          -5.4159  -15.0047   24.7944 C.3     1  UNL1        0.0721
     25 C          -4.9063  -14.8620   23.3909 C.3     1  UNL1        0.0174
     26 C          -4.1108  -15.9693   22.7656 C.3     1  UNL1        0.0031
     27 C          -3.8248  -17.2193   23.5438 C.3     1  UNL1        0.0204
     28 C          -4.3344  -17.3620   24.9473 C.3     1  UNL1        0.0724
     29 C          -3.0293  -18.3266   22.9185 C.3     1  UNL1        0.0277
     30 C          -2.5785  -18.2134   21.4923 C.ar    1  UNL1       -0.0220
     31 C          -3.3089  -18.9569   20.4135 C.ar    1  UNL1       -0.0020
     32 C          -2.8581  -18.8436   18.9874 C.ar    1  UNL1        0.0293
     33 C          -1.6769  -17.9868   18.6400 C.ar    1  UNL1        0.1401
     34 F          -1.2261  -17.8736   17.2138 F       1  UNL1       -0.2042
     35 C          -0.9465  -17.2433   19.7187 C.ar    1  UNL1        0.0293
     36 C          -1.3973  -17.3566   21.1449 C.ar    1  UNL1       -0.0020
@<TRIPOS>BOND
     1    13    14    1
     2    14    15    2
     3    14     7    1
     4     7     8   ar
     5     8     9   ar
     6     9     1    1
     7     1     2   am
     8     2     3    2
     9     2     4   am
    10     4    19    1
    11    19    20    1
    12    19    21    1
    13    21    22    1
    14    22    23    1
    15    23    24    1
    16    24    25    1
    17    25    26    1
    18    26    27    1
    19    27    29    1
    20    29    30    1
    21    30    31   ar
    22    31    32   ar
    23    32    33   ar
    24    33    34    1
    25    33    35   ar
    26    35    36   ar
    27    27    28    1
    28     9    10   ar
    29    10    11   ar
    30    11    16    1
    31    16    17    1
    32    16    18    2
    33    11    12   ar
    34    12     7   ar
    35    28    23    1
    36    36    30   ar
    37     1     5    1
    38     4     6    1
@<TRIPOS>MOLECULE
*****
 36 38 0 0 0
SMALL
GASTEIGER

@<TRIPOS>ATOM
      1 N          -9.3737  -18.1490   24.5982 N.am    1  UNL1       -0.2683
      2 C          -8.8315  -16.9083   25.2436 C.2     1  UNL1        0.3044
      3 O          -8.5109  -15.7059   24.4059 O.2     1  UNL1       -0.2525
      4 N          -8.6098  -16.8699   26.7266 N.am    1  UNL1       -0.2903
      5 H          -9.5841  -18.9382   25.1479 H       1  UNL1        0.1564
      6 H          -8.8201  -17.6591   27.2763 H       1  UNL1        0.1509
      7 C          -8.9296  -19.0663   20.7626 C.ar    1  UNL1        0.0360
      8 C          -8.7080  -19.0279   22.2456 C.ar    1  UNL1        0.0176
      9 C          -9.5954  -18.1874   23.1151 C.ar    1  UNL1        0.0517
     10 C         -10.7045  -17.3853   22.5016 C.ar    1  UNL1        0.0176
     11 C         -10.9262  -17.4236   21.0185 C.ar    1  UNL1        0.0360
     12 C         -10.0387  -18.2641   20.1491 C.ar    1  UNL1        0.0058
     13 C          -8.5518  -20.4266   18.5816 C.3     1  UNL1        0.0773
     14 C          -8.0422  -19.9068   19.8931 C.2     1  UNL1        0.1735
     15 O          -6.6451  -20.2274   20.3351 O.2     1  UNL1       -0.2913
     16 C         -12.0353  -16.6215   20.4050 C.2     1  UNL1        0.1735
     17 C         -11.7371  -15.6518   19.3001 C.3     1  UNL1        0.0773
     18 O         -13.4426  -16.7891   20.8963 O.2     1  UNL1       -0.2913
     19 C          -8.0675  -15.6292   27.3720 C.3     1  UNL1        0.0745
     20 C          -9.0074  -14.5821   27.8919 C.3     1  UNL1        0.0214
     21 C          -6.5854  -15.4355   27.4975 C.3     1  UNL1        0.0369
     22 C          -5.6448  -16.4565   26.9291 C.3     1  UNL1        0.0738
     23 N          -5.1150  -16.2943   25.5351 N.3     1  UNL1       -0.2726
     24 C          -5.4105  -15.0439   24.7612 C.3     1  UNL1        0.0721
     25 C          -4.8807  -14.8818   23.3673 C.3     1  UNL1        0.0174
     26 C          -4.0556  -15.9702   22.7473 C.3     1  UNL1        0.0031
     27 C          -3.7601  -17.2207   23.5212 C.3     1  UNL1        0.0204
     28 C          -4.2899  -17.3828   24.9151 C.3     1  UNL1        0.0724
     29 C          -2.9349  -18.3091   22.9012 C.3     1  UNL1        0.0277
     30 C          -2.5262  -18.2125   21.4612 C.ar    1  UNL1       -0.0220
     31 C          -1.2058  -17.6016   21.0957 C.ar    1  UNL1       -0.0020
     32 C          -0.7970  -17.5050   19.6558 C.ar    1  UNL1        0.0293
     33 C          -1.7085  -18.0193   18.5812 C.ar    1  UNL1        0.1401
     34 F          -1.2997  -17.9227   17.1412 F       1  UNL1       -0.2042
     35 C          -3.0288  -18.6302   18.9466 C.ar    1  UNL1        0.0293
     36 C          -3.4377  -18.7268   20.3867 C.ar    1  UNL1       -0.0020
@<TRIPOS>BOND
     1    13    14    1
     2    14    15    2
     3    14     7    1
     4     7     8   ar
     5     8     9   ar
     6     9     1    1
     7     1     2   am
     8     2     3    2
     9     2     4   am
    10     4    19    1
    11    19    20    1
    12    19    21    1
    13    21    22    1
    14    22    23    1
    15    23    24    1
    16    24    25    1
    17    25    26    1
    18    26    27    1
    19    27    29    1
    20    29    30    1
    21    30    31   ar
    22    31    32   ar
    23    32    33   ar
    24    33    34    1
    25    33    35   ar
    26    35    36   ar
    27    27    28    1
    28     9    10   ar
    29    10    11   ar
    30    11    16    1
    31    16    17    1
    32    16    18    2
    33    11    12   ar
    34    12     7   ar
    35    28    23    1
    36    36    30   ar
    37     1     5    1
    38     4     6    1
@<TRIPOS>MOLECULE
*****
 36 38 0 0 0
SMALL
GASTEIGER

@<TRIPOS>ATOM
      1 N           1.9412    0.5481   22.4325 N.am    1  UNL1       -0.2683
      2 C           2.4407    1.9434   22.2011 C.2     1  UNL1        0.3044
      3 O           3.9128    2.2012   22.0716 O.2     1  UNL1       -0.2525
      4 N           1.4682    3.0809   22.0991 N.am    1  UNL1       -0.2903
      5 H           0.9751    0.3788   22.5175 H       1  UNL1        0.1564
      6 H           0.5021    2.9116   22.1840 H       1  UNL1        0.1509
      7 C           4.6277   -1.9670   23.9182 C.ar    1  UNL1        0.0360
      8 C           3.6552   -0.8296   23.8162 C.ar    1  UNL1        0.0176
      9 C           2.9138   -0.5894   22.5345 C.ar    1  UNL1        0.0517
     10 C           3.1449   -1.4866   21.3549 C.ar    1  UNL1        0.0176
     11 C           4.1174   -2.6240   21.4569 C.ar    1  UNL1        0.0360
     12 C           4.8588   -2.8642   22.7386 C.ar    1  UNL1        0.0058
     13 C           6.3518   -3.3362   25.2976 C.3     1  UNL1        0.0773
     14 C           5.3691   -2.2072   25.1998 C.2     1  UNL1        0.1735
     15 O           5.1278   -1.3184   26.3838 O.2     1  UNL1       -0.2913
     16 C           4.3486   -3.5213   20.2773 C.2     1  UNL1        0.1735
     17 C           3.6128   -3.2766   18.9933 C.3     1  UNL1        0.0773
     18 O           5.3155   -4.6633   20.3817 O.2     1  UNL1       -0.2913
     19 C           1.9677    4.4762   21.8676 C.3     1  UNL1        0.0745
     20 C           2.4466    5.3028   23.0241 C.3     1  UNL1        0.0214
     21 C           1.9883    5.0449   20.4798 C.3     1  UNL1        0.0369
     22 C           1.3096    4.3138   19.3595 C.3     1  UNL1        0.0738
     23 N           1.7938    2.9548   18.9488 N.3     1  UNL1       -0.2726
     24 C           0.8336    1.8042   18.8849 C.3     1  UNL1        0.0721
     25 C           1.3178    0.4453   18.4742 C.3     1  UNL1        0.0174
     26 C           2.7622    0.2369   18.1274 C.3     1  UNL1        0.0031
     27 C           3.7224    1.3874   18.1913 C.3     1  UNL1        0.0204
     28 C           3.2382    2.7464   18.6020 C.3     1  UNL1        0.0724
     29 C           5.1668    1.1791   17.8444 C.3     1  UNL1        0.0277
     30 C           5.9696    0.1394   18.5687 C.ar    1  UNL1       -0.0220
     31 C           6.2687    0.3057   20.0292 C.ar    1  UNL1       -0.0020
     32 C           7.0715   -0.7340   20.7534 C.ar    1  UNL1        0.0293
     33 C           7.5752   -1.9399   20.0173 C.ar    1  UNL1        0.1401
     34 F           8.3780   -2.9796   20.7416 F       1  UNL1       -0.2042
     35 C           7.2761   -2.1063   18.5569 C.ar    1  UNL1        0.0293
     36 C           6.4733   -1.0666   17.8326 C.ar    1  UNL1       -0.0020
@<TRIPOS>BOND
     1    13    14    1
     2    14    15    2
     3    14     7    1
     4     7     8   ar
     5     8     9   ar
     6     9     1    1
     7     1     2   am
     8     2     3    2
     9     2     4   am
    10     4    19    1
    11    19    20    1
    12    19    21    1
    13    21    22    1
    14    22    23    1
    15    23    24    1
    16    24    25    1
    17    25    26    1
    18    26    27    1
    19    27    29    1
    20    29    30    1
    21    30    31   ar
    22    31    32   ar
    23    32    33   ar
    24    33    34    1
    25    33    35   ar
    26    35    36   ar
    27    27    28    1
    28     9    10   ar
    29    10    11   ar
    30    11    16    1
    31    16    17    1
    32    16    18    2
    33    11    12   ar
    34    12     7   ar
    35    28    23    1
    36    36    30   ar
    37     1     5    1
    38     4     6    1
@<TRIPOS>MOLECULE
*****
 36 38 0 0 0
SMALL
GASTEIGER

@<TRIPOS>ATOM
      1 N           5.0824   -3.5047   33.0822 N.am    1  UNL1       -0.2683
      2 C           6.1458   -3.8941   32.0985 C.2     1  UNL1        0.3044
      3 O           6.7638   -2.8544   31.2113 O.2     1  UNL1       -0.2525
      4 N           6.5911   -5.3232   32.0020 N.am    1  UNL1       -0.2903
      5 H           4.6768   -4.1871   33.6645 H       1  UNL1        0.1564
      6 H           6.1855   -6.0056   32.5843 H       1  UNL1        0.1509
      7 C           4.5513    0.1714   34.4802 C.ar    1  UNL1        0.0360
      8 C           4.9966   -1.2577   34.3837 C.ar    1  UNL1        0.0176
      9 C           4.6371   -2.0756   33.1788 C.ar    1  UNL1        0.0517
     10 C           3.8322   -1.4643   32.0704 C.ar    1  UNL1        0.0176
     11 C           3.3869   -0.0352   32.1669 C.ar    1  UNL1        0.0360
     12 C           3.7464    0.7826   33.3718 C.ar    1  UNL1        0.0058
     13 C           5.5162    0.3274   36.8874 C.3     1  UNL1        0.0773
     14 C           4.9108    0.9892   35.6852 C.2     1  UNL1        0.1735
     15 O           4.6649    2.4689   35.6879 O.2     1  UNL1       -0.2913
     16 C           2.5821    0.5761   31.0585 C.2     1  UNL1        0.1735
     17 C           3.1381    0.6241   29.6662 C.3     1  UNL1        0.0773
     18 O           1.2211    1.1393   31.3424 O.2     1  UNL1       -0.2913
     19 C           7.6545   -5.7126   31.0183 C.3     1  UNL1        0.0745
     20 C           9.0672   -5.9130   31.4811 C.3     1  UNL1        0.0214
     21 C           7.3051   -5.9016   29.5719 C.3     1  UNL1        0.0369
     22 C           8.2308   -6.6630   28.6700 C.3     1  UNL1        0.0738
     23 N           8.0906   -6.5475   27.1810 N.3     1  UNL1       -0.2726
     24 C           8.4549   -7.7064   26.3012 C.3     1  UNL1        0.0721
     25 C           8.3146   -7.5907   24.8123 C.3     1  UNL1        0.0174
     26 C           7.8100   -6.3162   24.2032 C.3     1  UNL1        0.0031
     27 C           7.4457   -5.1573   25.0830 C.3     1  UNL1        0.0204
     28 C           7.5859   -5.2729   26.5720 C.3     1  UNL1        0.0724
     29 C           6.9410   -3.8828   24.4740 C.3     1  UNL1        0.0277
     30 C           6.5055   -3.8584   23.0388 C.ar    1  UNL1       -0.0220
     31 C           5.0446   -3.8479   22.6985 C.ar    1  UNL1       -0.0020
     32 C           4.6091   -3.8235   21.2633 C.ar    1  UNL1        0.0293
     33 C           5.6343   -3.8096   20.1685 C.ar    1  UNL1        0.1401
     34 F           5.1987   -3.7852   18.7333 F       1  UNL1       -0.2042
     35 C           7.0952   -3.8201   20.5088 C.ar    1  UNL1        0.0293
     36 C           7.5308   -3.8445   21.9440 C.ar    1  UNL1       -0.0020
@<TRIPOS>BOND
     1    13    14    1
     2    14    15    2
     3    14     7    1
     4     7     8   ar
     5     8     9   ar
     6     9     1    1
     7     1     2   am
     8     2     3    2
     9     2     4   am
    10     4    19    1
    11    19    20    1
    12    19    21    1
    13    21    22    1
    14    22    23    1
    15    23    24    1
    16    24    25    1
    17    25    26    1
    18    26    27    1
    19    27    29    1
    20    29    30    1
    21    30    31   ar
    22    31    32   ar
    23    32    33   ar
    24    33    34    1
    25    33    35   ar
    26    35    36   ar
    27    27    28    1
    28     9    10   ar
    29    10    11   ar
    30    11    16    1
    31    16    17    1
    32    16    18    2
    33    11    12   ar
    34    12     7   ar
    35    28    23    1
    36    36    30   ar
    37     1     5    1
    38     4     6    1
@<TRIPOS>MOLECULE
*****
 36 38 0 0 0
SMALL
GASTEIGER

@<TRIPOS>ATOM
      1 N           3.7465   -1.2291   24.3446 N.am    1  UNL1       -0.2683
      2 C           4.6195   -0.0898   24.7804 C.2     1  UNL1        0.3044
      3 O           5.2802    0.7835   23.7553 O.2     1  UNL1       -0.2525
      4 N           4.8319    0.1761   26.2413 N.am    1  UNL1       -0.2903
      5 H           3.3129   -1.8023   25.0174 H       1  UNL1        0.1564
      6 H           4.3983   -0.3971   26.9140 H       1  UNL1        0.1509
      7 C           4.1066   -2.8382   20.7347 C.ar    1  UNL1        0.0360
      8 C           4.3189   -2.5723   22.1956 C.ar    1  UNL1        0.0176
      9 C           3.5341   -1.4949   22.8836 C.ar    1  UNL1        0.0517
     10 C           2.5370   -0.6835   22.1108 C.ar    1  UNL1        0.0176
     11 C           2.3247   -0.9494   20.6500 C.ar    1  UNL1        0.0360
     12 C           3.1095   -2.0267   19.9619 C.ar    1  UNL1        0.0058
     13 C           4.3975   -4.4939   18.7538 C.3     1  UNL1        0.0773
     14 C           4.8914   -3.9155   20.0466 C.2     1  UNL1        0.1735
     15 O           6.1702   -4.4145   20.6514 O.2     1  UNL1       -0.2913
     16 C           1.3275   -0.1379   19.8771 C.2     1  UNL1        0.1735
     17 C           1.6853    0.3979   18.5225 C.3     1  UNL1        0.0773
     18 O          -0.0273    0.1376   20.4588 O.2     1  UNL1       -0.2913
     19 C           5.7049    1.3153   26.6771 C.3     1  UNL1        0.0745
     20 C           7.1977    1.1716   26.6436 C.3     1  UNL1        0.0214
     21 C           5.0853    2.5982   27.1463 C.3     1  UNL1        0.0369
     22 C           4.2920    2.6264   28.4191 C.3     1  UNL1        0.0738
     23 N           3.1466    1.6768   28.6101 N.3     1  UNL1       -0.2726
     24 C           3.2848    0.5138   29.5472 C.3     1  UNL1        0.0721
     25 C           2.1395   -0.4357   29.7382 C.3     1  UNL1        0.0174
     26 C           0.8558   -0.2222   28.9921 C.3     1  UNL1        0.0031
     27 C           0.7176    0.9408   28.0550 C.3     1  UNL1        0.0204
     28 C           1.8629    1.8903   27.8640 C.3     1  UNL1        0.0724
     29 C          -0.5661    1.1543   27.3089 C.3     1  UNL1        0.0277
     30 C          -0.5439    1.7561   25.9351 C.ar    1  UNL1       -0.0220
     31 C           0.3761    1.2015   24.8881 C.ar    1  UNL1       -0.0020
     32 C           0.3983    1.8033   23.5143 C.ar    1  UNL1        0.0293
     33 C          -0.4994    2.9597   23.1874 C.ar    1  UNL1        0.1401
     34 F          -0.4772    3.5615   21.8136 F       1  UNL1       -0.2042
     35 C          -1.4194    3.5143   24.2343 C.ar    1  UNL1        0.0293
     36 C          -1.4416    2.9125   25.6082 C.ar    1  UNL1       -0.0020
@<TRIPOS>BOND
     1    13    14    1
     2    14    15    2
     3    14     7    1
     4     7     8   ar
     5     8     9   ar
     6     9     1    1
     7     1     2   am
     8     2     3    2
     9     2     4   am
    10     4    19    1
    11    19    20    1
    12    19    21    1
    13    21    22    1
    14    22    23    1
    15    23    24    1
    16    24    25    1
    17    25    26    1
    18    26    27    1
    19    27    29    1
    20    29    30    1
    21    30    31   ar
    22    31    32   ar
    23    32    33   ar
    24    33    34    1
    25    33    35   ar
    26    35    36   ar
    27    27    28    1
    28     9    10   ar
    29    10    11   ar
    30    11    16    1
    31    16    17    1
    32    16    18    2
    33    11    12   ar
    34    12     7   ar
    35    28    23    1
    36    36    30   ar
    37     1     5    1
    38     4     6    1
