@<TRIPOS>MOLECULE
*****
 25 28 0 0 0
SMALL
GASTEIGER

@<TRIPOS>ATOM
      1 C          -8.0817  -17.8654   21.7674 C.3     1  UNL1        0.1140
      2 C          -9.5794  -17.7873   21.7370 C.ar    1  UNL1        0.0273
      3 C         -10.6018  -18.4536   20.8648 C.ar    1  UNL1        0.1379
      4 F         -10.1649  -19.3974   19.7840 F       1  UNL1       -0.2044
      5 C         -12.0611  -18.1760   21.0734 C.ar    1  UNL1        0.0294
      6 C         -12.4979  -17.2321   22.1542 C.ar    1  UNL1        0.0023
      7 C         -11.4756  -16.5658   23.0265 C.ar    1  UNL1        0.0014
      8 C         -10.0163  -16.8433   22.8179 C.ar    1  UNL1        0.0173
      9 C          -8.7887  -16.3382   23.5163 C.ar    1  UNL1        0.0804
     10 C          -8.3000  -15.4426   24.6159 C.ar    1  UNL1        0.1178
     11 N          -6.8024  -15.5208   24.6463 N.ar    1  UNL1       -0.2223
     12 C          -6.3654  -16.4647   23.5655 C.ar    1  UNL1        0.1788
     13 N          -7.5931  -16.9699   22.8671 N.ar    1  UNL1       -0.3068
     14 C          -7.2234  -18.6938   20.8579 C.3     1  UNL1        0.0565
     15 O          -6.5458  -20.7235   22.3314 O.3     1  UNL1       -0.3844
     16 C          -6.1628  -19.5847   21.4333 C.3     1  UNL1        0.1127
     17 H          -7.5100  -20.7426   22.4360 H       1  UNL1        0.2103
     18 C          -4.7190  -19.3369   21.1107 C.3     1  UNL1        0.0272
     19 C          -3.6963  -19.3269   22.2079 C.3     1  UNL1        0.0049
     20 C          -2.2525  -19.0791   21.8853 C.3     1  UNL1        0.0293
     21 C          -1.8314  -18.8414   20.4654 C.3     1  UNL1        0.1105
     22 O          -0.3876  -18.5936   20.1427 O.3     1  UNL1       -0.3845
     23 C          -2.8541  -18.8513   19.3681 C.3     1  UNL1        0.0293
     24 C          -4.2979  -19.0991   19.6907 C.3     1  UNL1        0.0049
     25 H          -0.2882  -18.4600   19.1871 H       1  UNL1        0.2103
@<TRIPOS>BOND
     1    16    15    1
     2    16    14    1
     3     1    14    1
     4     1     2    1
     5     2     3   ar
     6     3     4    1
     7     3     5   ar
     8     5     6   ar
     9     6     7   ar
    10     7     8   ar
    11     8     9    1
    12     9    10   ar
    13    10    11   ar
    14    11    12   ar
    15    12    13   ar
    16    16    18    1
    17    18    19    1
    18    19    20    1
    19    20    21    1
    20    21    22    1
    21    21    23    1
    22    23    24    1
    23    13     1    1
    24    24    18    1
    25     8     2   ar
    26    13     9   ar
    27    15    17    1
    28    22    25    1
@<TRIPOS>MOLECULE
*****
 25 28 0 0 0
SMALL
GASTEIGER

@<TRIPOS>ATOM
      1 C          -6.6845  -18.5788   22.3614 C.3     1  UNL1        0.1140
      2 C          -5.2129  -18.7704   22.1431 C.ar    1  UNL1        0.0273
      3 C          -4.4343  -19.8366   21.4311 C.ar    1  UNL1        0.1379
      4 F          -5.1527  -20.9777   20.7742 F       1  UNL1       -0.2044
      5 C          -2.9371  -19.7615   21.3759 C.ar    1  UNL1        0.0294
      6 C          -2.2187  -18.6204   22.0328 C.ar    1  UNL1        0.0023
      7 C          -2.9973  -17.5542   22.7448 C.ar    1  UNL1        0.0014
      8 C          -4.4944  -17.6292   22.8000 C.ar    1  UNL1        0.0173
      9 C          -5.5220  -16.7323   23.4243 C.ar    1  UNL1        0.0804
     10 C          -5.7130  -15.4727   24.2160 C.ar    1  UNL1        0.1178
     11 N          -7.1846  -15.2811   24.4343 N.ar    1  UNL1       -0.2223
     12 C          -7.9031  -16.4223   23.7775 C.ar    1  UNL1        0.1788
     13 N          -6.8755  -17.3192   23.1532 N.ar    1  UNL1       -0.3068
     14 C          -7.7739  -19.4873   21.8736 C.3     1  UNL1        0.0565
     15 O          -8.8832  -18.6050   19.6962 O.3     1  UNL1       -0.3844
     16 C          -8.9640  -18.9161   21.1614 C.3     1  UNL1        0.1127
     17 H          -7.9994  -18.8306   19.3660 H       1  UNL1        0.2103
     18 C         -10.2350  -18.6560   21.9143 C.3     1  UNL1        0.0272
     19 C         -10.3518  -19.0651   23.3527 C.3     1  UNL1        0.0049
     20 C         -11.6228  -18.8050   24.1056 C.3     1  UNL1        0.0293
     21 C         -12.7770  -18.1358   23.4201 C.3     1  UNL1        0.1105
     22 O         -14.0480  -17.8757   24.1731 O.3     1  UNL1       -0.3845
     23 C         -12.6603  -17.7267   21.9817 C.3     1  UNL1        0.0293
     24 C         -11.3893  -17.9868   21.2288 C.3     1  UNL1        0.0049
     25 H         -14.6872  -17.4401   23.5877 H       1  UNL1        0.2103
@<TRIPOS>BOND
     1    16    15    1
     2    16    14    1
     3     1    14    1
     4     1     2    1
     5     2     3   ar
     6     3     4    1
     7     3     5   ar
     8     5     6   ar
     9     6     7   ar
    10     7     8   ar
    11     8     9    1
    12     9    10   ar
    13    10    11   ar
    14    11    12   ar
    15    12    13   ar
    16    16    18    1
    17    18    19    1
    18    19    20    1
    19    20    21    1
    20    21    22    1
    21    21    23    1
    22    23    24    1
    23    13     1    1
    24    24    18    1
    25     8     2   ar
    26    13     9   ar
    27    15    17    1
    28    22    25    1
@<TRIPOS>MOLECULE
*****
 25 28 0 0 0
SMALL
GASTEIGER

@<TRIPOS>ATOM
      1 C          -7.2209  -18.3424   21.9679 C.3     1  UNL1        0.1140
      2 C          -5.8470  -18.8776   21.6923 C.ar    1  UNL1        0.0273
      3 C          -4.5340  -18.6795   22.3901 C.ar    1  UNL1        0.1379
      4 F          -4.4548  -17.8023   23.6042 F       1  UNL1       -0.2044
      5 C          -3.3003  -19.3586   21.8737 C.ar    1  UNL1        0.0294
      6 C          -3.3795  -20.2358   20.6596 C.ar    1  UNL1        0.0023
      7 C          -4.6925  -20.4340   19.9618 C.ar    1  UNL1        0.0014
      8 C          -5.9262  -19.7549   20.4781 C.ar    1  UNL1        0.0173
      9 C          -7.3491  -19.7618   20.0033 C.ar    1  UNL1        0.0804
     10 C          -8.2774  -20.3083   18.9595 C.ar    1  UNL1        0.1178
     11 N          -9.6513  -19.7731   19.2351 N.ar    1  UNL1       -0.2223
     12 C          -9.5721  -18.8958   20.4493 C.ar    1  UNL1        0.1788
     13 N          -8.1492  -18.8889   20.9241 N.ar    1  UNL1       -0.3068
     14 C          -7.6000  -17.4223   23.0903 C.3     1  UNL1        0.0565
     15 O          -8.4839  -15.0528   22.4949 O.3     1  UNL1       -0.3844
     16 C          -8.7441  -16.4668   22.9229 C.3     1  UNL1        0.1127
     17 H          -7.5308  -14.9230   22.3698 H       1  UNL1        0.2103
     18 C         -10.1483  -16.9252   23.1835 C.3     1  UNL1        0.0272
     19 C         -11.3004  -16.2227   22.5283 C.3     1  UNL1        0.0049
     20 C         -12.7046  -16.6811   22.7889 C.3     1  UNL1        0.0293
     21 C         -12.9569  -17.8420   23.7048 C.3     1  UNL1        0.1105
     22 O         -14.3611  -18.3004   23.9654 O.3     1  UNL1       -0.3845
     23 C         -11.8048  -18.5445   24.3600 C.3     1  UNL1        0.0293
     24 C         -10.4005  -18.0861   24.0994 C.3     1  UNL1        0.0049
     25 H         -14.3471  -19.0551   24.5746 H       1  UNL1        0.2103
@<TRIPOS>BOND
     1    16    15    1
     2    16    14    1
     3     1    14    1
     4     1     2    1
     5     2     3   ar
     6     3     4    1
     7     3     5   ar
     8     5     6   ar
     9     6     7   ar
    10     7     8   ar
    11     8     9    1
    12     9    10   ar
    13    10    11   ar
    14    11    12   ar
    15    12    13   ar
    16    16    18    1
    17    18    19    1
    18    19    20    1
    19    20    21    1
    20    21    22    1
    21    21    23    1
    22    23    24    1
    23    13     1    1
    24    24    18    1
    25     8     2   ar
    26    13     9   ar
    27    15    17    1
    28    22    25    1
@<TRIPOS>MOLECULE
*****
 25 28 0 0 0
SMALL
GASTEIGER

@<TRIPOS>ATOM
      1 C          -6.9105  -19.1579   22.0955 C.3     1  UNL1        0.1140
      2 C          -6.3780  -17.9520   22.8113 C.ar    1  UNL1        0.0273
      3 C          -7.0333  -16.9517   23.7169 C.ar    1  UNL1        0.1379
      4 F          -8.4922  -17.0769   24.0418 F       1  UNL1       -0.2044
      5 C          -6.2294  -15.8262   24.2976 C.ar    1  UNL1        0.0294
      6 C          -4.7704  -15.7011   23.9727 C.ar    1  UNL1        0.0023
      7 C          -4.1152  -16.7014   23.0671 C.ar    1  UNL1        0.0014
      8 C          -4.9190  -17.8268   22.4864 C.ar    1  UNL1        0.0173
      9 C          -4.5497  -18.9554   21.5699 C.ar    1  UNL1        0.0804
     10 C          -3.4197  -19.5754   20.8026 C.ar    1  UNL1        0.1178
     11 N          -3.9522  -20.7813   20.0869 N.ar    1  UNL1       -0.2223
     12 C          -5.4113  -20.9066   20.4118 C.ar    1  UNL1        0.1788
     13 N          -5.7805  -19.7780   21.3283 N.ar    1  UNL1       -0.3068
     14 C          -8.3246  -19.6562   22.1394 C.3     1  UNL1        0.0565
     15 O          -9.2545  -18.2827   20.1397 O.3     1  UNL1       -0.3844
     16 C          -9.4246  -18.8468   21.5192 C.3     1  UNL1        0.1127
     17 H          -8.3835  -18.5324   19.7934 H       1  UNL1        0.2103
     18 C         -10.6948  -18.6014   22.2784 C.3     1  UNL1        0.0272
     19 C         -10.8267  -19.0794   23.6940 C.3     1  UNL1        0.0049
     20 C         -12.0969  -18.8340   24.4532 C.3     1  UNL1        0.0293
     21 C         -13.2352  -18.1105   23.7968 C.3     1  UNL1        0.1105
     22 O         -14.5054  -17.8651   24.5560 O.3     1  UNL1       -0.3845
     23 C         -13.1033  -17.6324   22.3811 C.3     1  UNL1        0.0293
     24 C         -11.8331  -17.8779   21.6219 C.3     1  UNL1        0.0049
     25 H         -15.1334  -17.3893   23.9903 H       1  UNL1        0.2103
@<TRIPOS>BOND
     1    16    15    1
     2    16    14    1
     3     1    14    1
     4     1     2    1
     5     2     3   ar
     6     3     4    1
     7     3     5   ar
     8     5     6   ar
     9     6     7   ar
    10     7     8   ar
    11     8     9    1
    12     9    10   ar
    13    10    11   ar
    14    11    12   ar
    15    12    13   ar
    16    16    18    1
    17    18    19    1
    18    19    20    1
    19    20    21    1
    20    21    22    1
    21    21    23    1
    22    23    24    1
    23    13     1    1
    24    24    18    1
    25     8     2   ar
    26    13     9   ar
    27    15    17    1
    28    22    25    1
@<TRIPOS>MOLECULE
*****
 25 28 0 0 0
SMALL
GASTEIGER

@<TRIPOS>ATOM
      1 C         -12.9979   -6.7412   18.8289 C.3     1  UNL1        0.1140
      2 C         -13.7200   -5.5403   19.3643 C.ar    1  UNL1        0.0273
      3 C         -15.1494   -5.3245   19.7645 C.ar    1  UNL1        0.1379
      4 F         -16.1372   -6.4476   19.6529 F       1  UNL1       -0.2044
      5 C         -15.5909   -3.9853   20.2763 C.ar    1  UNL1        0.0294
      6 C         -14.6030   -2.8622   20.3879 C.ar    1  UNL1        0.0023
      7 C         -13.1736   -3.0780   19.9877 C.ar    1  UNL1        0.0014
      8 C         -12.7320   -4.4170   19.4758 C.ar    1  UNL1        0.0173
      9 C         -11.3994   -4.9237   19.0095 C.ar    1  UNL1        0.0804
     10 C          -9.9653   -4.5426   18.7903 C.ar    1  UNL1        0.1178
     11 N          -9.2433   -5.7435   18.2550 N.ar    1  UNL1       -0.2223
     12 C         -10.2312   -6.8668   18.1434 C.ar    1  UNL1        0.1788
     13 N         -11.5638   -6.3601   18.6097 N.ar    1  UNL1       -0.3068
     14 C         -13.6036   -8.0868   18.5601 C.3     1  UNL1        0.0565
     15 O         -14.1200   -7.7697   16.0336 O.3     1  UNL1       -0.3844
     16 C         -14.5200   -8.2761   17.3878 C.3     1  UNL1        0.1127
     17 H         -13.2478   -7.3491   16.0904 H       1  UNL1        0.2103
     18 C         -15.8365   -8.9718   17.5696 C.3     1  UNL1        0.0272
     19 C         -15.9013  -10.2714   18.3157 C.3     1  UNL1        0.0049
     20 C         -17.2177  -10.9671   18.4975 C.3     1  UNL1        0.0293
     21 C         -18.4693  -10.3631   17.9331 C.3     1  UNL1        0.1105
     22 O         -19.7858  -11.0588   18.1149 O.3     1  UNL1       -0.3845
     23 C         -18.4046   -9.0634   17.1869 C.3     1  UNL1        0.0293
     24 C         -17.0882   -8.3678   17.0051 C.3     1  UNL1        0.0049
     25 H         -20.4873  -10.5386   17.6927 H       1  UNL1        0.2103
@<TRIPOS>BOND
     1    16    15    1
     2    16    14    1
     3     1    14    1
     4     1     2    1
     5     2     3   ar
     6     3     4    1
     7     3     5   ar
     8     5     6   ar
     9     6     7   ar
    10     7     8   ar
    11     8     9    1
    12     9    10   ar
    13    10    11   ar
    14    11    12   ar
    15    12    13   ar
    16    16    18    1
    17    18    19    1
    18    19    20    1
    19    20    21    1
    20    21    22    1
    21    21    23    1
    22    23    24    1
    23    13     1    1
    24    24    18    1
    25     8     2   ar
    26    13     9   ar
    27    15    17    1
    28    22    25    1
@<TRIPOS>MOLECULE
*****
 25 28 0 0 0
SMALL
GASTEIGER

@<TRIPOS>ATOM
      1 C         -13.4397   -4.9123   18.1814 C.3     1  UNL1        0.1140
      2 C         -12.0993   -5.5254   18.4598 C.ar    1  UNL1        0.0273
      3 C         -11.6207   -6.9468   18.4330 C.ar    1  UNL1        0.1379
      4 F         -12.5701   -8.0512   18.0743 F       1  UNL1       -0.2044
      5 C         -10.1925   -7.2636   18.7649 C.ar    1  UNL1        0.0294
      6 C          -9.2432   -6.1590   19.1236 C.ar    1  UNL1        0.0023
      7 C          -9.7218   -4.7377   19.1504 C.ar    1  UNL1        0.0014
      8 C         -11.1499   -4.4209   18.8185 C.ar    1  UNL1        0.0173
      9 C         -11.9035   -3.1251   18.7618 C.ar    1  UNL1        0.0804
     10 C         -11.7824   -1.6417   18.9485 C.ar    1  UNL1        0.1178
     11 N         -13.1228   -1.0287   18.6701 N.ar    1  UNL1       -0.2223
     12 C         -14.0723   -2.1332   18.3114 C.ar    1  UNL1        0.1788
     13 N         -13.3187   -3.4289   18.3681 N.ar    1  UNL1       -0.3068
     14 C         -14.6829   -5.6526   17.7859 C.3     1  UNL1        0.0565
     15 O         -16.1683   -5.1225   19.8505 O.3     1  UNL1       -0.3844
     16 C         -15.6549   -6.1014   18.8364 C.3     1  UNL1        0.1127
     17 H         -15.7754   -4.2510   19.6864 H       1  UNL1        0.2103
     18 C         -16.1135   -7.5291   18.8730 C.3     1  UNL1        0.0272
     19 C         -15.4387   -8.5559   18.0127 C.3     1  UNL1        0.0049
     20 C         -15.8973   -9.9836   18.0493 C.3     1  UNL1        0.0293
     21 C         -17.0307  -10.3846   18.9463 C.3     1  UNL1        0.1105
     22 O         -17.4893  -11.8123   18.9829 O.3     1  UNL1       -0.3845
     23 C         -17.7055   -9.3577   19.8067 C.3     1  UNL1        0.0293
     24 C         -17.2469   -7.9300   19.7701 C.3     1  UNL1        0.0049
     25 H         -18.2246  -11.8997   19.6094 H       1  UNL1        0.2103
@<TRIPOS>BOND
     1    16    15    1
     2    16    14    1
     3     1    14    1
     4     1     2    1
     5     2     3   ar
     6     3     4    1
     7     3     5   ar
     8     5     6   ar
     9     6     7   ar
    10     7     8   ar
    11     8     9    1
    12     9    10   ar
    13    10    11   ar
    14    11    12   ar
    15    12    13   ar
    16    16    18    1
    17    18    19    1
    18    19    20    1
    19    20    21    1
    20    21    22    1
    21    21    23    1
    22    23    24    1
    23    13     1    1
    24    24    18    1
    25     8     2   ar
    26    13     9   ar
    27    15    17    1
    28    22    25    1
@<TRIPOS>MOLECULE
*****
 25 28 0 0 0
SMALL
GASTEIGER

@<TRIPOS>ATOM
      1 C         -13.0697   -4.9174   19.3752 C.3     1  UNL1        0.1140
      2 C         -12.9236   -3.4509   19.0957 C.ar    1  UNL1        0.0273
      3 C         -13.8520   -2.2917   19.3060 C.ar    1  UNL1        0.1379
      4 F         -15.2103   -2.5170   19.9009 F       1  UNL1       -0.2044
      5 C         -13.4219   -0.9070   18.9213 C.ar    1  UNL1        0.0294
      6 C         -12.0635   -0.6817   18.3265 C.ar    1  UNL1        0.0023
      7 C         -11.1351   -1.8409   18.1162 C.ar    1  UNL1        0.0014
      8 C         -11.5651   -3.2256   18.5008 C.ar    1  UNL1        0.0173
      9 C         -10.8717   -4.5527   18.4126 C.ar    1  UNL1        0.0804
     10 C          -9.6036   -5.2337   17.9905 C.ar    1  UNL1        0.1178
     11 N          -9.7497   -6.7001   18.2701 N.ar    1  UNL1       -0.2223
     12 C         -11.1081   -6.9255   18.8650 C.ar    1  UNL1        0.1788
     13 N         -11.8016   -5.5983   18.9531 N.ar    1  UNL1       -0.3068
     14 C         -14.2727   -5.5856   19.9721 C.3     1  UNL1        0.0565
     15 O         -16.1313   -4.9911   18.2569 O.3     1  UNL1       -0.3844
     16 C         -15.4103   -6.0084   19.0907 C.3     1  UNL1        0.1127
     17 H         -15.7396   -4.1160   18.4042 H       1  UNL1        0.2103
     18 C         -15.8270   -7.4486   19.0431 C.3     1  UNL1        0.0272
     19 C         -17.0398   -7.9039   19.7992 C.3     1  UNL1        0.0049
     20 C         -17.4565   -9.3441   19.7515 C.3     1  UNL1        0.0293
     21 C         -16.6604  -10.3290   18.9478 C.3     1  UNL1        0.1105
     22 O         -17.0770  -11.7691   18.9001 O.3     1  UNL1       -0.3845
     23 C         -15.4475   -9.8737   18.1916 C.3     1  UNL1        0.0293
     24 C         -15.0308   -8.4335   18.2393 C.3     1  UNL1        0.0049
     25 H         -16.4597  -12.2660   18.3408 H       1  UNL1        0.2103
@<TRIPOS>BOND
     1    16    15    1
     2    16    14    1
     3     1    14    1
     4     1     2    1
     5     2     3   ar
     6     3     4    1
     7     3     5   ar
     8     5     6   ar
     9     6     7   ar
    10     7     8   ar
    11     8     9    1
    12     9    10   ar
    13    10    11   ar
    14    11    12   ar
    15    12    13   ar
    16    16    18    1
    17    18    19    1
    18    19    20    1
    19    20    21    1
    20    21    22    1
    21    21    23    1
    22    23    24    1
    23    13     1    1
    24    24    18    1
    25     8     2   ar
    26    13     9   ar
    27    15    17    1
    28    22    25    1
@<TRIPOS>MOLECULE
*****
 25 28 0 0 0
SMALL
GASTEIGER

@<TRIPOS>ATOM
      1 C          -7.9588  -18.7584   22.3316 C.3     1  UNL1        0.1140
      2 C          -8.5612  -19.3054   21.0714 C.ar    1  UNL1        0.0273
      3 C          -9.9763  -19.6289   20.6936 C.ar    1  UNL1        0.1379
      4 F         -11.0853  -19.4056   21.6785 F       1  UNL1       -0.2044
      5 C         -10.2823  -20.1759   19.3307 C.ar    1  UNL1        0.0294
      6 C          -9.1733  -20.3992   18.3459 C.ar    1  UNL1        0.0023
      7 C          -7.7582  -20.0756   18.7237 C.ar    1  UNL1        0.0014
      8 C          -7.4521  -19.5287   20.0865 C.ar    1  UNL1        0.0173
      9 C          -6.1643  -19.1197   20.7379 C.ar    1  UNL1        0.0804
     10 C          -4.6830  -19.0050   20.5317 C.ar    1  UNL1        0.1178
     11 N          -4.0807  -18.4580   21.7919 N.ar    1  UNL1       -0.2223
     12 C          -5.1897  -18.2347   22.7768 C.ar    1  UNL1        0.1788
     13 N          -6.4775  -18.6436   22.1254 N.ar    1  UNL1       -0.3068
     14 C          -8.7065  -18.3907   23.5789 C.3     1  UNL1        0.0565
     15 O          -9.1991  -16.1753   24.8436 O.3     1  UNL1       -0.3844
     16 C          -9.4218  -17.0750   23.6642 C.3     1  UNL1        0.1127
     17 H          -8.5691  -16.5908   25.4529 H       1  UNL1        0.2103
     18 C         -10.3599  -16.6591   22.5701 C.3     1  UNL1        0.0272
     19 C         -11.8352  -16.8841   22.7212 C.3     1  UNL1        0.0049
     20 C         -12.7733  -16.4681   21.6271 C.3     1  UNL1        0.0293
     21 C         -12.2361  -15.8271   20.3820 C.3     1  UNL1        0.1105
     22 O         -13.1742  -15.4112   19.2879 O.3     1  UNL1       -0.3845
     23 C         -10.7607  -15.6021   20.2308 C.3     1  UNL1        0.0293
     24 C          -9.8227  -16.0180   21.3249 C.3     1  UNL1        0.0049
     25 H         -12.6679  -15.0167   18.5606 H       1  UNL1        0.2103
@<TRIPOS>BOND
     1    16    15    1
     2    16    14    1
     3     1    14    1
     4     1     2    1
     5     2     3   ar
     6     3     4    1
     7     3     5   ar
     8     5     6   ar
     9     6     7   ar
    10     7     8   ar
    11     8     9    1
    12     9    10   ar
    13    10    11   ar
    14    11    12   ar
    15    12    13   ar
    16    16    18    1
    17    18    19    1
    18    19    20    1
    19    20    21    1
    20    21    22    1
    21    21    23    1
    22    23    24    1
    23    13     1    1
    24    24    18    1
    25     8     2   ar
    26    13     9   ar
    27    15    17    1
    28    22    25    1
@<TRIPOS>MOLECULE
*****
 25 28 0 0 0
SMALL
GASTEIGER

@<TRIPOS>ATOM
      1 C          -7.8224  -17.5556   22.7747 C.3     1  UNL1        0.1140
      2 C          -9.2590  -17.1758   22.5697 C.ar    1  UNL1        0.0273
      3 C         -10.1869  -16.2973   23.3554 C.ar    1  UNL1        0.1379
      4 F          -9.7003  -15.6157   24.5997 F       1  UNL1       -0.2044
      5 C         -11.6014  -16.1005   22.8966 C.ar    1  UNL1        0.0294
      6 C         -12.0879  -16.7822   21.6523 C.ar    1  UNL1        0.0023
      7 C         -11.1601  -17.6607   20.8666 C.ar    1  UNL1        0.0014
      8 C          -9.7456  -17.8575   21.3253 C.ar    1  UNL1        0.0173
      9 C          -8.6098  -18.6586   20.7612 C.ar    1  UNL1        0.0804
     10 C          -8.2086  -19.5750   19.6435 C.ar    1  UNL1        0.1178
     11 N          -6.7720  -19.9547   19.8485 N.ar    1  UNL1       -0.2223
     12 C          -6.2854  -19.2731   21.0929 C.ar    1  UNL1        0.1788
     13 N          -7.4212  -18.4720   21.6570 N.ar    1  UNL1       -0.3068
     14 C          -6.9416  -17.0992   23.8998 C.3     1  UNL1        0.0565
     15 O          -5.9297  -14.7063   23.8788 O.3     1  UNL1       -0.3844
     16 C          -5.7902  -16.1781   23.6247 C.3     1  UNL1        0.1127
     17 H          -6.8196  -14.5195   24.2167 H       1  UNL1        0.2103
     18 C          -4.4991  -16.7288   23.0956 C.3     1  UNL1        0.0272
     19 C          -4.1865  -18.1876   23.2503 C.3     1  UNL1        0.0049
     20 C          -2.8955  -18.7382   22.7211 C.3     1  UNL1        0.0293
     21 C          -1.9170  -17.8300   22.0373 C.3     1  UNL1        0.1105
     22 O          -0.6260  -18.3806   21.5081 O.3     1  UNL1       -0.3845
     23 C          -2.2296  -16.3711   21.8826 C.3     1  UNL1        0.0293
     24 C          -3.5207  -15.8204   22.4117 C.3     1  UNL1        0.0049
     25 H          -0.1133  -17.6661   21.0989 H       1  UNL1        0.2103
@<TRIPOS>BOND
     1    16    15    1
     2    16    14    1
     3     1    14    1
     4     1     2    1
     5     2     3   ar
     6     3     4    1
     7     3     5   ar
     8     5     6   ar
     9     6     7   ar
    10     7     8   ar
    11     8     9    1
    12     9    10   ar
    13    10    11   ar
    14    11    12   ar
    15    12    13   ar
    16    16    18    1
    17    18    19    1
    18    19    20    1
    19    20    21    1
    20    21    22    1
    21    21    23    1
    22    23    24    1
    23    13     1    1
    24    24    18    1
    25     8     2   ar
    26    13     9   ar
    27    15    17    1
    28    22    25    1
