@<TRIPOS>MOLECULE
*****
 38 42 0 0 0
SMALL
GASTEIGER

@<TRIPOS>ATOM
      1 C           4.9774   -3.1228   23.0284 C.2     1  UNL1        0.2352
      2 O           4.3839   -4.3475   22.3976 O.2     1  UNL1       -0.2737
      3 N           6.4349   -3.0923   23.3814 N.am    1  UNL1       -0.3011
      4 H           6.8244   -2.2885   23.7954 H       1  UNL1        0.1497
      5 N           4.5531   -2.2619   24.7010 N.3     1  UNL1       -0.3162
      6 C           4.1134   -1.9286   23.3063 C.3     1  UNL1        0.1166
      7 C           3.9737   -2.0099   21.8149 C.3     1  UNL1        0.0739
      8 C           3.1227   -1.0128   21.0859 C.3     1  UNL1        0.2039
      9 N           2.4114    0.0657   21.8481 N.pl3   1  UNL1       -0.1931
     10 C           2.5510    0.1471   23.3393 C.3     1  UNL1        0.2039
     11 C           3.4021   -0.8501   24.0684 C.3     1  UNL1        0.0739
     12 H           5.1655   -3.0773   24.6787 H       1  UNL1        0.1192
     13 H           3.7355   -2.4665   25.2755 H       1  UNL1        0.1192
     14 C           1.5604    1.0628   21.1189 C.2     1  UNL1        0.3205
     15 N           0.1123    1.2177   21.4779 N.2     1  UNL1        0.0097
     16 C          -0.7387    2.2147   20.7488 C.2     1  UNL1        0.4717
     17 N          -0.1415    3.0571   19.6607 N.2     1  UNL1        0.0158
     18 C           1.3066    2.9023   19.3018 C.2     1  UNL1        0.3714
     19 N           2.1667    3.5879   18.2819 N.2     1  UNL1       -0.0339
     20 C           3.5493    3.0145   18.3807 C.2     1  UNL1        0.2323
     21 C           3.5437    1.9745   19.4617 C.2     1  UNL1        0.0486
     22 C           2.1576    1.9051   20.0309 C.3     1  UNL1        0.2428
     23 C           7.2990   -4.2866   23.1036 C.3     1  UNL1        0.0955
     24 C           7.4584   -5.3553   24.1440 C.ar    1  UNL1       -0.0044
     25 C           8.2093   -6.6125   23.8189 C.ar    1  UNL1       -0.0018
     26 C           8.3687   -7.6812   24.8593 C.ar    1  UNL1        0.0111
     27 C           7.7772   -7.4927   26.2248 C.ar    1  UNL1        0.0577
     28 CL          7.9367   -8.5614   27.2652 Cl      1  UNL1       -0.0822
     29 C           7.0264   -6.2355   26.5500 C.ar    1  UNL1        0.0111
     30 C           6.8670   -5.1667   25.5096 C.ar    1  UNL1       -0.0018
     31 C           8.0037   -4.4121   21.7854 C.3     1  UNL1        0.0414
     32 C           8.1648   -3.2093   20.9036 C.3     1  UNL1        0.0741
     33 N           7.0729   -2.8280   19.9484 N.3     1  UNL1       -0.2726
     34 C           6.9683   -1.4158   19.4539 C.3     1  UNL1        0.0721
     35 C           5.8765   -1.0345   18.4988 C.3     1  UNL1        0.0174
     36 C           4.8890   -2.0655   18.0382 C.3     1  UNL1        0.0029
     37 C           4.9936   -3.4778   18.5327 C.3     1  UNL1        0.0174
     38 C           6.0855   -3.8590   19.4879 C.3     1  UNL1        0.0721
@<TRIPOS>BOND
     1     5     6    1
     2     6     1    1
     3     1     2    2
     4     1     3   am
     5     3    23    1
     6    23    31    1
     7    31    32    1
     8    32    33    1
     9    33    34    1
    10    34    35    1
    11    35    36    1
    12    36    37    1
    13    37    38    1
    14    23    24    1
    15    24    25   ar
    16    25    26   ar
    17    26    27   ar
    18    27    28    1
    19    27    29   ar
    20    29    30   ar
    21     6     7    1
    22     7     8    1
    23     8     9    1
    24     9    14    1
    25    14    15    2
    26    15    16    1
    27    16    17    2
    28    17    18    1
    29    18    19    2
    30    19    20    1
    31    20    21    2
    32    21    22    1
    33     9    10    1
    34    10    11    1
    35    11     6    1
    36    38    33    1
    37    30    24   ar
    38    22    14    1
    39    22    18    1
    40     5    12    1
    41     5    13    1
    42     3     4    1
@<TRIPOS>MOLECULE
*****
 38 42 0 0 0
SMALL
GASTEIGER

@<TRIPOS>ATOM
      1 C           0.9225    1.9770   21.8909 C.2     1  UNL1        0.2352
      2 O           2.2783    2.5852   21.6863 O.2     1  UNL1       -0.2737
      3 N           0.2308    1.2865   20.7530 N.am    1  UNL1       -0.3011
      4 H          -0.6591    0.8873   20.8873 H       1  UNL1        0.1497
      5 N           1.3622    1.0937   23.5477 N.3     1  UNL1       -0.3162
      6 C           0.2584    2.0593   23.2333 C.3     1  UNL1        0.1166
      7 C          -0.6149    2.9965   22.4527 C.3     1  UNL1        0.0739
      8 C          -1.7689    3.6805   23.1236 C.3     1  UNL1        0.2039
      9 N          -2.0498    3.4275   24.5753 N.pl3   1  UNL1       -0.1931
     10 C          -1.1766    2.4904   25.3559 C.3     1  UNL1        0.2039
     11 C          -0.0225    1.8063   24.6848 C.3     1  UNL1        0.0739
     12 H           1.9200    0.9303   22.7095 H       1  UNL1        0.1192
     13 H           0.9616    0.2115   23.8667 H       1  UNL1        0.1192
     14 C          -3.2038    4.1116   25.2462 C.2     1  UNL1        0.3205
     15 N          -3.0120    4.7725   26.5790 N.2     1  UNL1        0.0097
     16 C          -4.1660    5.4566   27.2500 C.2     1  UNL1        0.4717
     17 N          -5.5119    5.4797   26.5882 N.2     1  UNL1        0.0158
     18 C          -5.7038    4.8188   25.2554 C.2     1  UNL1        0.3714
     19 N          -6.9048    4.6800   24.3675 N.2     1  UNL1       -0.0339
     20 C          -6.4930    3.9101   23.1478 C.2     1  UNL1        0.2323
     21 C          -5.0375    3.5731   23.2819 C.2     1  UNL1        0.0486
     22 C          -4.5497    4.1347   24.5844 C.3     1  UNL1        0.2428
     23 C           0.8949    1.2042   19.4105 C.3     1  UNL1        0.0955
     24 C           1.9133    0.1362   19.1419 C.ar    1  UNL1       -0.0044
     25 C           2.0739   -1.0055   20.1015 C.ar    1  UNL1       -0.0018
     26 C           3.0924   -2.0734   19.8328 C.ar    1  UNL1        0.0111
     27 C           3.9502   -1.9997   18.6045 C.ar    1  UNL1        0.0577
     28 CL          4.9687   -3.0677   18.3359 Cl      1  UNL1       -0.0822
     29 C           3.7897   -0.8581   17.6449 C.ar    1  UNL1        0.0111
     30 C           2.7712    0.2100   17.9136 C.ar    1  UNL1       -0.0018
     31 C           0.5405    2.1898   18.3368 C.3     1  UNL1        0.0414
     32 C          -0.1566    3.4692   18.6936 C.3     1  UNL1        0.0741
     33 N          -1.6136    3.6417   18.3813 N.3     1  UNL1       -0.2726
     34 C          -2.0548    3.8777   16.9673 C.3     1  UNL1        0.0721
     35 C          -3.5117    4.0502   16.6551 C.3     1  UNL1        0.0174
     36 C          -4.5275    3.9866   17.7570 C.3     1  UNL1        0.0029
     37 C          -4.0863    3.7506   19.1711 C.3     1  UNL1        0.0174
     38 C          -2.6293    3.5781   19.4832 C.3     1  UNL1        0.0721
@<TRIPOS>BOND
     1     5     6    1
     2     6     1    1
     3     1     2    2
     4     1     3   am
     5     3    23    1
     6    23    31    1
     7    31    32    1
     8    32    33    1
     9    33    34    1
    10    34    35    1
    11    35    36    1
    12    36    37    1
    13    37    38    1
    14    23    24    1
    15    24    25   ar
    16    25    26   ar
    17    26    27   ar
    18    27    28    1
    19    27    29   ar
    20    29    30   ar
    21     6     7    1
    22     7     8    1
    23     8     9    1
    24     9    14    1
    25    14    15    2
    26    15    16    1
    27    16    17    2
    28    17    18    1
    29    18    19    2
    30    19    20    1
    31    20    21    2
    32    21    22    1
    33     9    10    1
    34    10    11    1
    35    11     6    1
    36    38    33    1
    37    30    24   ar
    38    22    14    1
    39    22    18    1
    40     5    12    1
    41     5    13    1
    42     3     4    1
@<TRIPOS>MOLECULE
*****
 38 42 0 0 0
SMALL
GASTEIGER

@<TRIPOS>ATOM
      1 C           6.0048   -1.9180   26.5557 C.2     1  UNL1        0.2352
      2 O           6.8671   -0.7657   26.9781 O.2     1  UNL1       -0.2737
      3 N           6.0102   -3.1899   27.3510 N.am    1  UNL1       -0.3011
      4 H           5.4443   -3.9462   27.0738 H       1  UNL1        0.1497
      5 N           4.4666   -0.8002   26.2346 N.3     1  UNL1       -0.3162
      6 C           5.1369   -1.7987   25.3382 C.3     1  UNL1        0.1166
      7 C           6.1086   -2.8387   24.8645 C.3     1  UNL1        0.0739
      8 C           5.9797   -3.4125   23.4847 C.3     1  UNL1        0.2039
      9 N           4.8790   -2.9464   22.5784 N.pl3   1  UNL1       -0.1931
     10 C           3.9073   -1.9065   23.0519 C.3     1  UNL1        0.2039
     11 C           4.0363   -1.3326   24.4319 C.3     1  UNL1        0.0739
     12 H           4.9554   -0.7644   27.1291 H       1  UNL1        0.1192
     13 H           3.4971   -1.0778   26.3877 H       1  UNL1        0.1192
     14 C           4.7501   -3.5203   21.1985 C.2     1  UNL1        0.3205
     15 N           3.9579   -4.7750   20.9790 N.2     1  UNL1        0.0097
     16 C           3.8290   -5.3489   19.5992 C.2     1  UNL1        0.4717
     17 N           4.4923   -4.6681   18.4387 N.2     1  UNL1        0.0158
     18 C           5.2844   -3.4133   18.6582 C.2     1  UNL1        0.3714
     19 N           6.0437   -2.5279   17.7151 N.2     1  UNL1       -0.0339
     20 C           6.6419   -1.4068   18.5121 C.2     1  UNL1        0.2323
     21 C           6.2523   -1.5993   19.9478 C.2     1  UNL1        0.0486
     22 C           5.4133   -2.8395   20.0381 C.3     1  UNL1        0.2428
     23 C           6.8781   -3.3093   28.5686 C.3     1  UNL1        0.0955
     24 C           6.3370   -2.9308   29.9154 C.ar    1  UNL1       -0.0044
     25 C           5.5525   -1.6627   30.0791 C.ar    1  UNL1       -0.0018
     26 C           5.0114   -1.2842   31.4258 C.ar    1  UNL1        0.0111
     27 C           5.2547   -2.1736   32.6089 C.ar    1  UNL1        0.0577
     28 CL          4.7135   -1.7950   33.9557 Cl      1  UNL1       -0.0822
     29 C           6.0391   -3.4416   32.4453 C.ar    1  UNL1        0.0111
     30 C           6.5803   -3.8202   31.0984 C.ar    1  UNL1       -0.0018
     31 C           8.2871   -3.8073   28.4394 C.3     1  UNL1        0.0414
     32 C           8.9229   -3.9162   27.0851 C.3     1  UNL1        0.0741
     33 N           8.6456   -5.1099   26.2201 N.3     1  UNL1       -0.2726
     34 C           7.9410   -6.3038   26.7930 C.3     1  UNL1        0.0721
     35 C           7.6638   -7.4974   25.9281 C.3     1  UNL1        0.0174
     36 C           8.0910   -7.4972   24.4902 C.3     1  UNL1        0.0029
     37 C           8.7956   -6.3033   23.9173 C.3     1  UNL1        0.0174
     38 C           9.0728   -5.1096   24.7823 C.3     1  UNL1        0.0721
@<TRIPOS>BOND
     1     5     6    1
     2     6     1    1
     3     1     2    2
     4     1     3   am
     5     3    23    1
     6    23    31    1
     7    31    32    1
     8    32    33    1
     9    33    34    1
    10    34    35    1
    11    35    36    1
    12    36    37    1
    13    37    38    1
    14    23    24    1
    15    24    25   ar
    16    25    26   ar
    17    26    27   ar
    18    27    28    1
    19    27    29   ar
    20    29    30   ar
    21     6     7    1
    22     7     8    1
    23     8     9    1
    24     9    14    1
    25    14    15    2
    26    15    16    1
    27    16    17    2
    28    17    18    1
    29    18    19    2
    30    19    20    1
    31    20    21    2
    32    21    22    1
    33     9    10    1
    34    10    11    1
    35    11     6    1
    36    38    33    1
    37    30    24   ar
    38    22    14    1
    39    22    18    1
    40     5    12    1
    41     5    13    1
    42     3     4    1
@<TRIPOS>MOLECULE
*****
 38 42 0 0 0
SMALL
GASTEIGER

@<TRIPOS>ATOM
      1 C           0.9134    1.5693   23.1947 C.2     1  UNL1        0.2352
      2 O           1.8722    2.6619   23.5646 O.2     1  UNL1       -0.2737
      3 N          -0.1514    1.1462   24.1628 N.am    1  UNL1       -0.3011
      4 H          -0.7807    0.4291   23.9200 H       1  UNL1        0.1497
      5 N          -0.1815    1.7664   21.6196 N.3     1  UNL1       -0.3162
      6 C           1.0194    0.8996   21.8567 C.3     1  UNL1        0.1166
      7 C           2.1836    0.2653   22.5585 C.3     1  UNL1        0.0739
      8 C           3.0367   -0.7376   21.8400 C.3     1  UNL1        0.2039
      9 N           2.7257   -1.1064   20.4196 N.pl3   1  UNL1       -0.1931
     10 C           1.5615   -0.4721   19.7178 C.3     1  UNL1        0.2039
     11 C           0.7084    0.5308   20.4364 C.3     1  UNL1        0.0739
     12 H          -0.3870    2.3009   22.4637 H       1  UNL1        0.1192
     13 H          -0.9827    1.1804   21.3847 H       1  UNL1        0.1192
     14 C           3.5788   -2.1093   19.7011 C.2     1  UNL1        0.3205
     15 N           3.2629   -3.5722   19.8023 N.2     1  UNL1        0.0097
     16 C           4.1160   -4.5751   19.0839 C.2     1  UNL1        0.4717
     17 N           5.2851   -4.1153   18.2641 N.2     1  UNL1        0.0158
     18 C           5.6010   -2.6524   18.1630 C.2     1  UNL1        0.3714
     19 N           6.6800   -1.9066   17.4353 N.2     1  UNL1       -0.0339
     20 C           6.4937   -0.4427   17.7041 C.2     1  UNL1        0.2323
     21 C           5.2996   -0.2837   18.5978 C.2     1  UNL1        0.0486
     22 C           4.7478   -1.6494   18.8815 C.3     1  UNL1        0.2428
     23 C          -0.2575    1.8159   25.5008 C.3     1  UNL1        0.0955
     24 C           0.3798    1.1896   26.7056 C.ar    1  UNL1       -0.0044
     25 C           1.8727    1.0689   26.7869 C.ar    1  UNL1       -0.0018
     26 C           2.5100    0.4426   27.9917 C.ar    1  UNL1        0.0111
     27 C           1.6544   -0.0631   29.1152 C.ar    1  UNL1        0.0577
     28 CL          2.2918   -0.6894   30.3200 Cl      1  UNL1       -0.0822
     29 C           0.1615    0.0576   29.0339 C.ar    1  UNL1        0.0111
     30 C          -0.4759    0.6840   27.8291 C.ar    1  UNL1       -0.0018
     31 C          -1.0009    3.1120   25.6340 C.3     1  UNL1        0.0414
     32 C          -1.4397    3.8544   24.4067 C.3     1  UNL1        0.0741
     33 N          -2.8735    3.7995   23.9695 N.3     1  UNL1       -0.2726
     34 C          -3.9716    3.8629   24.9893 C.3     1  UNL1        0.0721
     35 C          -5.4053    3.8080   24.5520 C.3     1  UNL1        0.0174
     36 C          -5.7410    3.6896   23.0949 C.3     1  UNL1        0.0029
     37 C          -4.6429    3.6262   22.0750 C.3     1  UNL1        0.0174
     38 C          -3.2091    3.6812   22.5123 C.3     1  UNL1        0.0721
@<TRIPOS>BOND
     1     5     6    1
     2     6     1    1
     3     1     2    2
     4     1     3   am
     5     3    23    1
     6    23    31    1
     7    31    32    1
     8    32    33    1
     9    33    34    1
    10    34    35    1
    11    35    36    1
    12    36    37    1
    13    37    38    1
    14    23    24    1
    15    24    25   ar
    16    25    26   ar
    17    26    27   ar
    18    27    28    1
    19    27    29   ar
    20    29    30   ar
    21     6     7    1
    22     7     8    1
    23     8     9    1
    24     9    14    1
    25    14    15    2
    26    15    16    1
    27    16    17    2
    28    17    18    1
    29    18    19    2
    30    19    20    1
    31    20    21    2
    32    21    22    1
    33     9    10    1
    34    10    11    1
    35    11     6    1
    36    38    33    1
    37    30    24   ar
    38    22    14    1
    39    22    18    1
    40     5    12    1
    41     5    13    1
    42     3     4    1
@<TRIPOS>MOLECULE
*****
 38 42 0 0 0
SMALL
GASTEIGER

@<TRIPOS>ATOM
      1 C          -0.4138    2.5564   20.9273 C.2     1  UNL1        0.2352
      2 O          -1.9106    2.4616   20.9502 O.2     1  UNL1       -0.2737
      3 N           0.3091    3.2751   22.0277 N.am    1  UNL1       -0.3011
      4 H           1.2915    3.3373   22.0127 H       1  UNL1        0.1497
      5 N          -0.3815    2.9959   19.0500 N.3     1  UNL1       -0.3162
      6 C           0.3602    1.9325   19.8041 C.3     1  UNL1        0.1166
      7 C           0.8332    1.0856   20.9484 C.3     1  UNL1        0.0739
      8 C           1.8225   -0.0157   20.7075 C.3     1  UNL1        0.2039
      9 N           2.3390   -0.2704   19.3224 N.pl3   1  UNL1       -0.1931
     10 C           1.8660    0.5764   18.1781 C.3     1  UNL1        0.2039
     11 C           0.8766    1.6779   18.4191 C.3     1  UNL1        0.0739
     12 H          -0.9697    3.5230   19.6955 H       1  UNL1        0.1192
     13 H          -0.9655    2.5615   18.3354 H       1  UNL1        0.1192
     14 C           3.3283   -1.3718   19.0815 C.2     1  UNL1        0.3205
     15 N           3.0177   -2.7698   19.5278 N.2     1  UNL1        0.0097
     16 C           4.0070   -3.8712   19.2870 C.2     1  UNL1        0.4717
     17 N           5.3071   -3.5747   18.5999 N.2     1  UNL1        0.0158
     18 C           5.6177   -2.1767   18.1536 C.2     1  UNL1        0.3714
     19 N           6.8078   -1.5866   17.4569 N.2     1  UNL1       -0.0339
     20 C           6.5540   -0.1205   17.2671 C.2     1  UNL1        0.2323
     21 C           5.2070    0.1956   17.8466 C.2     1  UNL1        0.0486
     22 C           4.6283   -1.0752   18.3945 C.3     1  UNL1        0.2428
     23 C          -0.4649    3.8991   23.1510 C.3     1  UNL1        0.0955
     24 C          -0.6144    3.1710   24.4539 C.ar    1  UNL1       -0.0044
     25 C          -1.5083    3.7243   25.5240 C.ar    1  UNL1       -0.0018
     26 C          -1.6578    2.9963   26.8268 C.ar    1  UNL1        0.0111
     27 C          -0.9135    1.7149   27.0597 C.ar    1  UNL1        0.0577
     28 CL         -1.0631    0.9869   28.3627 Cl      1  UNL1       -0.0822
     29 C          -0.0197    1.1616   25.9897 C.ar    1  UNL1        0.0111
     30 C           0.1299    1.8897   24.6868 C.ar    1  UNL1       -0.0018
     31 C          -1.0892    5.2511   22.9713 C.3     1  UNL1        0.0414
     32 C          -2.3885    5.3851   22.2338 C.3     1  UNL1        0.0741
     33 N          -3.6841    5.1254   22.9436 N.3     1  UNL1       -0.2726
     34 C          -4.6364    4.0948   22.4134 C.3     1  UNL1        0.0721
     35 C          -5.9319    3.8352   23.1234 C.3     1  UNL1        0.0174
     36 C          -6.2752    4.6061   24.3635 C.3     1  UNL1        0.0029
     37 C          -5.3230    5.6366   24.8937 C.3     1  UNL1        0.0174
     38 C          -4.0274    5.8963   24.1838 C.3     1  UNL1        0.0721
@<TRIPOS>BOND
     1     5     6    1
     2     6     1    1
     3     1     2    2
     4     1     3   am
     5     3    23    1
     6    23    31    1
     7    31    32    1
     8    32    33    1
     9    33    34    1
    10    34    35    1
    11    35    36    1
    12    36    37    1
    13    37    38    1
    14    23    24    1
    15    24    25   ar
    16    25    26   ar
    17    26    27   ar
    18    27    28    1
    19    27    29   ar
    20    29    30   ar
    21     6     7    1
    22     7     8    1
    23     8     9    1
    24     9    14    1
    25    14    15    2
    26    15    16    1
    27    16    17    2
    28    17    18    1
    29    18    19    2
    30    19    20    1
    31    20    21    2
    32    21    22    1
    33     9    10    1
    34    10    11    1
    35    11     6    1
    36    38    33    1
    37    30    24   ar
    38    22    14    1
    39    22    18    1
    40     5    12    1
    41     5    13    1
    42     3     4    1
@<TRIPOS>MOLECULE
*****
 38 42 0 0 0
SMALL
GASTEIGER

@<TRIPOS>ATOM
      1 C           0.2873    2.8791   21.0852 C.2     1  UNL1        0.2352
      2 O           1.0266    4.0914   21.5687 O.2     1  UNL1       -0.2737
      3 N          -0.9889    2.4625   21.7543 N.am    1  UNL1       -0.3011
      4 H          -1.4741    1.6668   21.4369 H       1  UNL1        0.1497
      5 N           0.0344    3.1190   19.1886 N.3     1  UNL1       -0.3162
      6 C           0.8242    2.0834   19.9326 C.3     1  UNL1        0.1166
      7 C           1.4277    1.3241   21.0769 C.3     1  UNL1        0.0739
      8 C           2.2937    0.1288   20.8102 C.3     1  UNL1        0.2039
      9 N           2.5563   -0.3073   19.3992 N.pl3   1  UNL1       -0.1931
     10 C           1.9529    0.4519   18.2549 C.3     1  UNL1        0.2039
     11 C           1.0869    1.6473   18.5216 C.3     1  UNL1        0.0739
     12 H          -0.4049    3.7547   19.8544 H       1  UNL1        0.1192
     13 H          -0.6857    2.6609   18.6300 H       1  UNL1        0.1192
     14 C           3.4223   -1.5027   19.1325 C.2     1  UNL1        0.3205
     15 N           2.9391   -2.8752   19.4970 N.2     1  UNL1        0.0097
     16 C           3.8051   -4.0705   19.2304 C.2     1  UNL1        0.4717
     17 N           5.1544   -3.8935   18.5993 N.2     1  UNL1        0.0158
     18 C           5.6376   -2.5210   18.2348 C.2     1  UNL1        0.3714
     19 N           6.9113   -2.0396   17.6058 N.2     1  UNL1       -0.0339
     20 C           6.8326   -0.5466   17.4837 C.2     1  UNL1        0.2323
     21 C           5.5101   -0.1054   18.0372 C.2     1  UNL1        0.0486
     22 C           4.7715   -1.3256   18.5015 C.3     1  UNL1        0.2428
     23 C          -1.5258    3.2582   22.9069 C.3     1  UNL1        0.0955
     24 C          -1.2159    2.8423   24.3144 C.ar    1  UNL1       -0.0044
     25 C          -2.0270    3.3862   25.4530 C.ar    1  UNL1       -0.0018
     26 C          -1.7171    2.9703   26.8605 C.ar    1  UNL1        0.0111
     27 C          -0.5961    2.0105   27.1293 C.ar    1  UNL1        0.0577
     28 CL         -0.2863    1.5946   28.5369 Cl      1  UNL1       -0.0822
     29 C           0.2149    1.4666   25.9908 C.ar    1  UNL1        0.0111
     30 C          -0.0950    1.8825   24.5832 C.ar    1  UNL1       -0.0018
     31 C          -2.3727    4.4697   22.6520 C.3     1  UNL1        0.0414
     32 C          -3.8373    4.3146   22.3671 C.3     1  UNL1        0.0741
     33 N          -4.3086    4.0970   20.9598 N.3     1  UNL1       -0.2726
     34 C          -3.3349    4.1782   19.8217 C.3     1  UNL1        0.0721
     35 C          -3.8063    3.9606   18.4145 C.3     1  UNL1        0.0174
     36 C          -5.2514    3.6618   18.1453 C.3     1  UNL1        0.0029
     37 C          -6.2251    3.5807   19.2834 C.3     1  UNL1        0.0174
     38 C          -5.7537    3.7983   20.6907 C.3     1  UNL1        0.0721
@<TRIPOS>BOND
     1     5     6    1
     2     6     1    1
     3     1     2    2
     4     1     3   am
     5     3    23    1
     6    23    31    1
     7    31    32    1
     8    32    33    1
     9    33    34    1
    10    34    35    1
    11    35    36    1
    12    36    37    1
    13    37    38    1
    14    23    24    1
    15    24    25   ar
    16    25    26   ar
    17    26    27   ar
    18    27    28    1
    19    27    29   ar
    20    29    30   ar
    21     6     7    1
    22     7     8    1
    23     8     9    1
    24     9    14    1
    25    14    15    2
    26    15    16    1
    27    16    17    2
    28    17    18    1
    29    18    19    2
    30    19    20    1
    31    20    21    2
    32    21    22    1
    33     9    10    1
    34    10    11    1
    35    11     6    1
    36    38    33    1
    37    30    24   ar
    38    22    14    1
    39    22    18    1
    40     5    12    1
    41     5    13    1
    42     3     4    1
@<TRIPOS>MOLECULE
*****
 38 42 0 0 0
SMALL
GASTEIGER

@<TRIPOS>ATOM
      1 C           4.9567   -2.9639   23.3707 C.2     1  UNL1        0.2352
      2 O           4.3127   -4.1309   22.6827 O.2     1  UNL1       -0.2737
      3 N           6.4246   -2.9911   23.6780 N.am    1  UNL1       -0.3011
      4 H           6.8473   -2.2251   24.1295 H       1  UNL1        0.1497
      5 N           4.7858   -2.0661   25.0687 N.3     1  UNL1       -0.3162
      6 C           4.1328   -1.7696   23.7513 C.3     1  UNL1        0.1166
      7 C           3.7659   -1.8878   22.3017 C.3     1  UNL1        0.0739
      8 C           2.8020   -0.9148   21.6902 C.3     1  UNL1        0.2039
      9 N           2.2048    0.1765   22.5284 N.pl3   1  UNL1       -0.1931
     10 C           2.5717    0.2948   23.9780 C.3     1  UNL1        0.2039
     11 C           3.5357   -0.6783   24.5895 C.3     1  UNL1        0.0739
     12 H           5.3963   -2.8773   24.9707 H       1  UNL1        0.1192
     13 H           4.0687   -2.2627   25.7670 H       1  UNL1        0.1192
     14 C           1.2409    1.1496   21.9169 C.2     1  UNL1        0.3205
     15 N           1.1863    1.3154   20.4271 N.2     1  UNL1        0.0097
     16 C           0.2224    2.2884   19.8156 C.2     1  UNL1        0.4717
     17 N          -0.6871    3.0957   20.6939 N.2     1  UNL1        0.0158
     18 C          -0.6325    2.9298   22.1836 C.2     1  UNL1        0.3714
     19 N          -1.3998    3.5827   23.2949 N.2     1  UNL1       -0.0339
     20 C          -0.9100    3.0132   24.5933 C.2     1  UNL1        0.2323
     21 C           0.1599    2.0083   24.2844 C.2     1  UNL1        0.0486
     22 C           0.3315    1.9568   22.7952 C.3     1  UNL1        0.2428
     23 C           7.2486   -4.1853   23.2973 C.3     1  UNL1        0.0955
     24 C           7.4455   -5.3038   24.2772 C.ar    1  UNL1       -0.0044
     25 C           8.1769   -6.5455   23.8610 C.ar    1  UNL1       -0.0018
     26 C           8.3737   -7.6640   24.8409 C.ar    1  UNL1        0.0111
     27 C           7.8392   -7.5408   26.2370 C.ar    1  UNL1        0.0577
     28 CL          8.0361   -8.6594   27.2169 Cl      1  UNL1       -0.0822
     29 C           7.1078   -6.2992   26.6532 C.ar    1  UNL1        0.0111
     30 C           6.9109   -5.1806   25.6733 C.ar    1  UNL1       -0.0018
     31 C           7.8756   -4.2610   21.9368 C.3     1  UNL1        0.0414
     32 C           7.8658   -3.0597   21.0385 C.3     1  UNL1        0.0741
     33 N           6.6780   -2.7869   20.1640 N.3     1  UNL1       -0.2726
     34 C           5.7846   -3.9144   19.7392 C.3     1  UNL1        0.0721
     35 C           4.5969   -3.6415   18.8648 C.3     1  UNL1        0.0174
     36 C           4.3025   -2.2411   18.4151 C.3     1  UNL1        0.0029
     37 C           5.1959   -1.1135   18.8399 C.3     1  UNL1        0.0174
     38 C           6.3837   -1.3865   19.7144 C.3     1  UNL1        0.0721
@<TRIPOS>BOND
     1     5     6    1
     2     6     1    1
     3     1     2    2
     4     1     3   am
     5     3    23    1
     6    23    31    1
     7    31    32    1
     8    32    33    1
     9    33    34    1
    10    34    35    1
    11    35    36    1
    12    36    37    1
    13    37    38    1
    14    23    24    1
    15    24    25   ar
    16    25    26   ar
    17    26    27   ar
    18    27    28    1
    19    27    29   ar
    20    29    30   ar
    21     6     7    1
    22     7     8    1
    23     8     9    1
    24     9    14    1
    25    14    15    2
    26    15    16    1
    27    16    17    2
    28    17    18    1
    29    18    19    2
    30    19    20    1
    31    20    21    2
    32    21    22    1
    33     9    10    1
    34    10    11    1
    35    11     6    1
    36    38    33    1
    37    30    24   ar
    38    22    14    1
    39    22    18    1
    40     5    12    1
    41     5    13    1
    42     3     4    1
@<TRIPOS>MOLECULE
*****
 38 42 0 0 0
SMALL
GASTEIGER

@<TRIPOS>ATOM
      1 C           6.0705   -3.5397   22.6583 C.2     1  UNL1        0.2352
      2 O           7.0452   -3.1833   21.5753 O.2     1  UNL1       -0.2737
      3 N           4.5958   -3.4397   22.4027 N.am    1  UNL1       -0.3011
      4 H           3.9561   -3.6737   23.1136 H       1  UNL1        0.1497
      5 N           7.1291   -5.0821   23.1262 N.3     1  UNL1       -0.3162
      6 C           6.5704   -3.9960   23.9968 C.3     1  UNL1        0.1166
      7 C           5.8381   -2.7514   24.4027 C.3     1  UNL1        0.0739
      8 C           5.7997   -2.3403   25.8447 C.3     1  UNL1        0.2039
      9 N           6.4936   -3.1739   26.8810 N.pl3   1  UNL1       -0.1931
     10 C           7.2259   -4.4185   26.4752 C.3     1  UNL1        0.2039
     11 C           7.2643   -4.8295   25.0331 C.3     1  UNL1        0.0739
     12 H           6.8672   -4.9085   22.1558 H       1  UNL1        0.1192
     13 H           6.7542   -5.9829   23.4235 H       1  UNL1        0.1192
     14 C           6.4552   -2.7628   28.3231 C.2     1  UNL1        0.3205
     15 N           6.2297   -1.3253   28.6874 N.2     1  UNL1        0.0097
     16 C           6.1913   -0.9142   30.1293 C.2     1  UNL1        0.4717
     17 N           6.3784   -1.9405   31.2072 N.2     1  UNL1        0.0158
     18 C           6.6039   -3.3780   30.8429 C.2     1  UNL1        0.3714
     19 N           6.8186   -4.6038   31.6803 N.2     1  UNL1       -0.0339
     20 C           6.9898   -5.7726   30.7557 C.2     1  UNL1        0.2323
     21 C           6.8808   -5.2691   29.3469 C.2     1  UNL1        0.0486
     22 C           6.6423   -3.7891   29.4008 C.3     1  UNL1        0.2428
     23 C           4.0958   -2.9834   21.0641 C.3     1  UNL1        0.0955
     24 C           3.6600   -1.5611   20.8714 C.ar    1  UNL1       -0.0044
     25 C           4.6422   -0.4434   21.0614 C.ar    1  UNL1       -0.0018
     26 C           4.2064    0.9789   20.8686 C.ar    1  UNL1        0.0111
     27 C           2.7884    1.2834   20.4859 C.ar    1  UNL1        0.0577
     28 CL          2.3526    2.7058   20.2932 Cl      1  UNL1       -0.0822
     29 C           1.8062    0.1658   20.2959 C.ar    1  UNL1        0.0111
     30 C           2.2420   -1.2565   20.4887 C.ar    1  UNL1       -0.0018
     31 C           4.0317   -3.9493   19.9183 C.3     1  UNL1        0.0414
     32 C           4.9712   -3.8005   18.7585 C.3     1  UNL1        0.0741
     33 N           5.2431   -2.4423   18.1830 N.3     1  UNL1       -0.2726
     34 C           6.6119   -1.8396   18.2971 C.3     1  UNL1        0.0721
     35 C           6.8836   -0.4814   17.7216 C.3     1  UNL1        0.0174
     36 C           5.7865    0.2743   17.0320 C.3     1  UNL1        0.0029
     37 C           4.4177   -0.3284   16.9180 C.3     1  UNL1        0.0174
     38 C           4.1459   -1.6867   17.4935 C.3     1  UNL1        0.0721
@<TRIPOS>BOND
     1     5     6    1
     2     6     1    1
     3     1     2    2
     4     1     3   am
     5     3    23    1
     6    23    31    1
     7    31    32    1
     8    32    33    1
     9    33    34    1
    10    34    35    1
    11    35    36    1
    12    36    37    1
    13    37    38    1
    14    23    24    1
    15    24    25   ar
    16    25    26   ar
    17    26    27   ar
    18    27    28    1
    19    27    29   ar
    20    29    30   ar
    21     6     7    1
    22     7     8    1
    23     8     9    1
    24     9    14    1
    25    14    15    2
    26    15    16    1
    27    16    17    2
    28    17    18    1
    29    18    19    2
    30    19    20    1
    31    20    21    2
    32    21    22    1
    33     9    10    1
    34    10    11    1
    35    11     6    1
    36    38    33    1
    37    30    24   ar
    38    22    14    1
    39    22    18    1
    40     5    12    1
    41     5    13    1
    42     3     4    1
@<TRIPOS>MOLECULE
*****
 38 42 0 0 0
SMALL
GASTEIGER

@<TRIPOS>ATOM
      1 C           4.2432   -0.6070   26.1331 C.2     1  UNL1        0.2352
      2 O           4.7893    0.7897   26.1636 O.2     1  UNL1       -0.2737
      3 N           3.0199   -0.9516   26.9300 N.am    1  UNL1       -0.3011
      4 H           2.6615   -1.8683   26.9100 H       1  UNL1        0.1497
      5 N           5.6946   -1.7942   26.5833 N.3     1  UNL1       -0.3162
      6 C           4.9202   -1.6593   25.3058 C.3     1  UNL1        0.1166
      7 C           3.9106   -1.1589   24.3156 C.3     1  UNL1        0.0739
      8 C           3.8470   -1.7576   22.9418 C.3     1  UNL1        0.2039
      9 N           4.7930   -2.8568   22.5581 N.pl3   1  UNL1       -0.1931
     10 C           5.8025   -3.3571   23.5483 C.3     1  UNL1        0.2039
     11 C           5.8661   -2.7583   24.9221 C.3     1  UNL1        0.0739
     12 H           5.3419   -1.1245   27.2670 H       1  UNL1        0.1192
     13 H           6.6815   -1.6090   26.4038 H       1  UNL1        0.1192
     14 C           4.7293   -3.4555   21.1842 C.2     1  UNL1        0.3205
     15 N           3.9766   -4.7329   20.9569 N.2     1  UNL1        0.0097
     16 C           3.9130   -5.3316   19.5832 C.2     1  UNL1        0.4717
     17 N           4.6020   -4.6529   18.4365 N.2     1  UNL1        0.0158
     18 C           5.3547   -3.3755   18.6638 C.2     1  UNL1        0.3714
     19 N           6.1267   -2.4865   17.7345 N.2     1  UNL1       -0.0339
     20 C           6.6674   -1.3383   18.5340 C.2     1  UNL1        0.2323
     21 C           6.2297   -1.5177   19.9574 C.2     1  UNL1        0.0486
     22 C           5.4183   -2.7768   20.0377 C.3     1  UNL1        0.2428
     23 C           2.3428    0.1006   27.7573 C.3     1  UNL1        0.0955
     24 C           1.2017    0.8870   27.1832 C.ar    1  UNL1       -0.0044
     25 C           0.0402    1.2672   28.0529 C.ar    1  UNL1       -0.0018
     26 C          -1.1008    2.0535   27.4788 C.ar    1  UNL1        0.0111
     27 C          -1.0804    2.4596   26.0350 C.ar    1  UNL1        0.0577
     28 CL         -2.2215    3.2459   25.4609 Cl      1  UNL1       -0.0822
     29 C           0.0810    2.0794   25.1652 C.ar    1  UNL1        0.0111
     30 C           1.2222    1.2930   25.7393 C.ar    1  UNL1       -0.0018
     31 C           2.8069    0.3665   29.1587 C.3     1  UNL1        0.0414
     32 C           2.5751   -0.6555   30.2321 C.3     1  UNL1        0.0741
     33 N           3.1903   -0.4720   31.5877 N.3     1  UNL1       -0.2726
     34 C           4.0518   -1.5516   32.1728 C.3     1  UNL1        0.0721
     35 C           4.6669   -1.3680   33.5284 C.3     1  UNL1        0.0174
     36 C           4.4206   -0.1048   34.2990 C.3     1  UNL1        0.0029
     37 C           3.5591    0.9747   33.7140 C.3     1  UNL1        0.0174
     38 C           2.9440    0.7911   32.3583 C.3     1  UNL1        0.0721
@<TRIPOS>BOND
     1     5     6    1
     2     6     1    1
     3     1     2    2
     4     1     3   am
     5     3    23    1
     6    23    31    1
     7    31    32    1
     8    32    33    1
     9    33    34    1
    10    34    35    1
    11    35    36    1
    12    36    37    1
    13    37    38    1
    14    23    24    1
    15    24    25   ar
    16    25    26   ar
    17    26    27   ar
    18    27    28    1
    19    27    29   ar
    20    29    30   ar
    21     6     7    1
    22     7     8    1
    23     8     9    1
    24     9    14    1
    25    14    15    2
    26    15    16    1
    27    16    17    2
    28    17    18    1
    29    18    19    2
    30    19    20    1
    31    20    21    2
    32    21    22    1
    33     9    10    1
    34    10    11    1
    35    11     6    1
    36    38    33    1
    37    30    24   ar
    38    22    14    1
    39    22    18    1
    40     5    12    1
    41     5    13    1
    42     3     4    1
