@<TRIPOS>MOLECULE
*****
 29 32 0 0 0
SMALL
GASTEIGER

@<TRIPOS>ATOM
      1 N          -9.3619  -19.1687   21.5154 N.3     1  UNL1       -0.2724
      2 C          -8.4540  -19.6802   22.5944 C.3     1  UNL1        0.0721
      3 C          -7.0967  -20.2128   22.2424 C.3     1  UNL1        0.0177
      4 C          -6.6471  -20.2339   20.8114 C.3     1  UNL1        0.0071
      5 C          -7.5550  -19.7224   19.7325 C.3     1  UNL1        0.0177
      6 C          -8.9124  -19.1898   20.0845 C.3     1  UNL1        0.0721
      7 C         -10.7192  -18.6361   21.8674 C.3     1  UNL1        0.0768
      8 C         -10.8467  -17.3364   22.6054 C.3     1  UNL1        0.0437
      9 O          -8.7887  -16.8897   27.5869 O.2     1  UNL1       -0.2864
     10 C          -7.8477  -16.1531   26.6804 C.ar    1  UNL1        0.2017
     11 C          -6.6274  -15.4889   27.2459 C.ar    1  UNL1        0.0827
     12 C          -5.6864  -14.7523   26.3394 C.ar    1  UNL1        0.1828
     13 O          -5.9655  -14.6798   24.8674 O.2     1  UNL1       -0.4502
     14 C          -7.1858  -15.3439   24.3020 C.ar    1  UNL1        0.1484
     15 C          -7.4651  -15.2714   22.8299 C.ar    1  UNL1        0.0373
     16 C          -8.6853  -15.9356   22.2644 C.ar    1  UNL1       -0.0011
     17 C          -9.6264  -16.6722   23.1709 C.ar    1  UNL1       -0.0205
     18 C          -9.3472  -16.7447   24.6429 C.ar    1  UNL1        0.0020
     19 C          -8.1269  -16.0806   25.2085 C.ar    1  UNL1        0.0732
     20 C          -5.2898  -20.7665   20.4595 C.3     1  UNL1        0.0265
     21 C          -4.1053  -19.8465   20.4391 C.ar    1  UNL1       -0.0192
     22 C          -3.5483  -19.3699   19.1304 C.ar    1  UNL1       -0.0036
     23 C          -2.3638  -18.4498   19.1100 C.ar    1  UNL1        0.0094
     24 C          -1.7362  -18.0065   20.3982 C.ar    1  UNL1        0.0682
     25 BR         -0.5516  -17.0864   20.3778 Br      1  UNL1       -0.0459
     26 C          -2.2931  -18.4831   21.7068 C.ar    1  UNL1        0.1395
     27 O          -1.6655  -18.0397   22.9951 O.3     1  UNL1       -0.5050
     28 C          -3.4777  -19.4031   21.7273 C.ar    1  UNL1        0.0329
     29 H          -0.9256  -17.4650   22.9824 H       1  UNL1        0.2922
@<TRIPOS>BOND
     1     9    10    2
     2    10    11   ar
     3    11    12   ar
     4    12    13   ar
     5    13    14   ar
     6    14    15   ar
     7    15    16   ar
     8    16    17   ar
     9    17     8    1
    10     8     7    1
    11     7     1    1
    12     1     2    1
    13     2     3    1
    14     3     4    1
    15     4    20    1
    16    20    21    1
    17    21    22   ar
    18    22    23   ar
    19    23    24   ar
    20    24    25    1
    21    24    26   ar
    22    26    27    1
    23    26    28   ar
    24     4     5    1
    25     5     6    1
    26    17    18   ar
    27    18    19   ar
    28    19    10   ar
    29    19    14   ar
    30     6     1    1
    31    28    21   ar
    32    27    29    1
@<TRIPOS>MOLECULE
*****
 29 32 0 0 0
SMALL
GASTEIGER

@<TRIPOS>ATOM
      1 N          -8.9208  -19.3852   21.2042 N.3     1  UNL1       -0.2724
      2 C          -8.0469  -19.8770   22.3197 C.3     1  UNL1        0.0721
      3 C          -6.6594  -20.3655   22.0259 C.3     1  UNL1        0.0177
      4 C          -6.1458  -20.3622   20.6166 C.3     1  UNL1        0.0071
      5 C          -7.0197  -19.8703   19.5010 C.3     1  UNL1        0.0177
      6 C          -8.4072  -19.3819   19.7949 C.3     1  UNL1        0.0721
      7 C         -10.3082  -18.8968   21.4980 C.3     1  UNL1        0.0768
      8 C         -10.5093  -17.5821   22.1916 C.3     1  UNL1        0.0437
      9 O          -6.0219  -14.7948   23.3510 O.2     1  UNL1       -0.2864
     10 C          -6.5313  -15.3256   24.6582 C.ar    1  UNL1        0.2017
     11 C          -5.7916  -15.0269   25.9284 C.ar    1  UNL1        0.0827
     12 C          -6.3010  -15.5577   27.2356 C.ar    1  UNL1        0.1828
     13 O          -7.5502  -16.3872   27.2726 O.2     1  UNL1       -0.4502
     14 C          -8.2900  -16.6859   26.0023 C.ar    1  UNL1        0.1484
     15 C          -9.5392  -17.5155   26.0392 C.ar    1  UNL1        0.0373
     16 C         -10.2790  -17.8142   24.7690 C.ar    1  UNL1       -0.0011
     17 C          -9.7695  -17.2833   23.4618 C.ar    1  UNL1       -0.0205
     18 C          -8.5203  -16.4538   23.4249 C.ar    1  UNL1        0.0020
     19 C          -7.7805  -16.1551   24.6952 C.ar    1  UNL1        0.0732
     20 C          -4.7584  -20.8506   20.3228 C.3     1  UNL1        0.0265
     21 C          -3.6071  -19.8891   20.3315 C.ar    1  UNL1       -0.0192
     22 C          -2.9347  -19.5360   21.6250 C.ar    1  UNL1       -0.0036
     23 C          -1.7835  -18.5744   21.6338 C.ar    1  UNL1        0.0094
     24 C          -1.3047  -17.9659   20.3491 C.ar    1  UNL1        0.0682
     25 BR         -0.1535  -17.0043   20.3578 Br      1  UNL1       -0.0459
     26 C          -1.9771  -18.3190   19.0556 C.ar    1  UNL1        0.1395
     27 O          -1.4984  -17.7105   17.7708 O.3     1  UNL1       -0.5050
     28 C          -3.1284  -19.2806   19.0468 C.ar    1  UNL1        0.0329
     29 H          -0.7793  -17.1099   17.7763 H       1  UNL1        0.2922
@<TRIPOS>BOND
     1     9    10    2
     2    10    11   ar
     3    11    12   ar
     4    12    13   ar
     5    13    14   ar
     6    14    15   ar
     7    15    16   ar
     8    16    17   ar
     9    17     8    1
    10     8     7    1
    11     7     1    1
    12     1     2    1
    13     2     3    1
    14     3     4    1
    15     4    20    1
    16    20    21    1
    17    21    22   ar
    18    22    23   ar
    19    23    24   ar
    20    24    25    1
    21    24    26   ar
    22    26    27    1
    23    26    28   ar
    24     4     5    1
    25     5     6    1
    26    17    18   ar
    27    18    19   ar
    28    19    10   ar
    29    19    14   ar
    30     6     1    1
    31    28    21   ar
    32    27    29    1
@<TRIPOS>MOLECULE
*****
 29 32 0 0 0
SMALL
GASTEIGER

@<TRIPOS>ATOM
      1 N          -6.4044  -15.6875   25.3316 N.3     1  UNL1       -0.2724
      2 C          -5.4135  -16.2958   26.2793 C.3     1  UNL1        0.0721
      3 C          -4.2009  -16.9999   25.7467 C.3     1  UNL1        0.0177
      4 C          -3.9792  -17.0958   24.2662 C.3     1  UNL1        0.0071
      5 C          -4.9700  -16.4875   23.3185 C.3     1  UNL1        0.0177
      6 C          -6.1826  -15.7833   23.8512 C.3     1  UNL1        0.0721
      7 C          -7.6170  -14.9833   25.8642 C.3     1  UNL1        0.0768
      8 C          -8.8659  -15.7598   26.1595 C.3     1  UNL1        0.0437
      9 O         -10.0768  -15.7789   20.8885 O.2     1  UNL1       -0.2864
     10 C         -10.2994  -17.1814   21.3716 C.ar    1  UNL1        0.2017
     11 C         -10.7691  -18.2381   20.4162 C.ar    1  UNL1        0.0827
     12 C         -10.9918  -19.6406   20.8993 C.ar    1  UNL1        0.1828
     13 O         -10.7448  -19.9864   22.3378 O.2     1  UNL1       -0.4502
     14 C         -10.2751  -18.9298   23.2932 C.ar    1  UNL1        0.1484
     15 C         -10.0280  -19.2756   24.7318 C.ar    1  UNL1        0.0373
     16 C          -9.5583  -18.2190   25.6872 C.ar    1  UNL1       -0.0011
     17 C          -9.3356  -16.8165   25.2041 C.ar    1  UNL1       -0.0205
     18 C          -9.5827  -16.4706   23.7656 C.ar    1  UNL1        0.0020
     19 C         -10.0524  -17.5273   22.8101 C.ar    1  UNL1        0.0732
     20 C          -2.7666  -17.7999   23.7335 C.3     1  UNL1        0.0265
     21 C          -2.4944  -17.8131   22.2585 C.ar    1  UNL1       -0.0192
     22 C          -1.6317  -16.7502   21.6455 C.ar    1  UNL1       -0.0036
     23 C          -1.3596  -16.7634   20.1704 C.ar    1  UNL1        0.0094
     24 C          -1.9501  -17.8395   19.3084 C.ar    1  UNL1        0.0682
     25 BR         -1.6779  -17.8527   17.8334 Br      1  UNL1       -0.0459
     26 C          -2.8128  -18.9025   19.9214 C.ar    1  UNL1        0.1395
     27 O          -3.4034  -19.9787   19.0594 O.3     1  UNL1       -0.5050
     28 C          -3.0850  -18.8893   21.3965 C.ar    1  UNL1        0.0329
     29 H          -3.2334  -19.9869   18.1380 H       1  UNL1        0.2922
@<TRIPOS>BOND
     1     9    10    2
     2    10    11   ar
     3    11    12   ar
     4    12    13   ar
     5    13    14   ar
     6    14    15   ar
     7    15    16   ar
     8    16    17   ar
     9    17     8    1
    10     8     7    1
    11     7     1    1
    12     1     2    1
    13     2     3    1
    14     3     4    1
    15     4    20    1
    16    20    21    1
    17    21    22   ar
    18    22    23   ar
    19    23    24   ar
    20    24    25    1
    21    24    26   ar
    22    26    27    1
    23    26    28   ar
    24     4     5    1
    25     5     6    1
    26    17    18   ar
    27    18    19   ar
    28    19    10   ar
    29    19    14   ar
    30     6     1    1
    31    28    21   ar
    32    27    29    1
