@<TRIPOS>MOLECULE
*****
 20 22 0 0 0
SMALL
GASTEIGER

@<TRIPOS>ATOM
      1 C         -10.2561  -18.3141   22.1191 C.3     1  UNL1        0.0908
      2 C         -11.3995  -18.8340   21.2989 C.3     1  UNL1        0.0886
      3 N         -12.5203  -17.9167   20.9084 N.3     1  UNL1       -0.2947
      4 C         -12.4977  -16.4798   21.3380 C.3     1  UNL1        0.0903
      5 C         -11.3544  -15.9600   22.1582 C.3     1  UNL1        0.1076
      6 N         -10.2336  -16.8773   22.5487 N.pl3   1  UNL1       -0.3093
      7 H         -13.3774  -18.3228   21.2835 H       1  UNL1        0.1233
      8 C          -9.0903  -16.3574   23.3689 C.2     1  UNL1        0.0295
      9 C          -7.8668  -15.8153   22.6915 C.2     1  UNL1        0.0120
     10 C          -6.7235  -15.2954   23.5117 C.2     1  UNL1        0.0216
     11 C          -6.8038  -15.3179   25.0094 C.2     1  UNL1        0.1008
     12 N          -5.8420  -14.8772   26.0728 N.2     1  UNL1       -0.1482
     13 N          -6.4712  -15.1471   27.4074 N.2     1  UNL1       -0.1467
     14 C          -7.8218  -15.7545   27.1689 C.2     1  UNL1        0.1198
     15 C          -8.0274  -15.8601   25.6868 C.2     1  UNL1        0.0238
     16 C          -9.1706  -16.3799   24.8666 C.3     1  UNL1        0.0705
     17 C          -9.1354  -19.2314   22.5096 C.3     1  UNL1        0.0532
     18 C          -7.9421  -19.3817   21.6131 C.3     1  UNL1        0.1440
     19 C          -8.4934  -19.6922   19.0933 C.3     1  UNL1        0.1741
     20 O          -7.9809  -18.8389   20.2153 O.3     1  UNL1       -0.3510
@<TRIPOS>BOND
     1    19    20    1
     2    20    18    1
     3    18    17    1
     4    17     1    1
     5     1     2    1
     6     2     3    1
     7     3     4    1
     8     4     5    1
     9     5     6    1
    10     6     8    1
    11     8     9    2
    12     9    10    1
    13    10    11    2
    14    11    12    1
    15    12    13    2
    16    13    14    1
    17    14    15    2
    18    15    16    1
    19     6     1    1
    20    16     8    1
    21    15    11    1
    22     3     7    1
@<TRIPOS>MOLECULE
*****
 20 22 0 0 0
SMALL
GASTEIGER

@<TRIPOS>ATOM
      1 C          -9.5570  -18.1547   21.2294 C.3     1  UNL1        0.0908
      2 C         -10.4068  -18.5527   20.0591 C.3     1  UNL1        0.0886
      3 N         -11.5259  -17.6618   19.6076 N.3     1  UNL1       -0.2947
      4 C         -11.7953  -16.3731   20.3264 C.3     1  UNL1        0.0903
      5 C         -10.9455  -15.9753   21.4967 C.3     1  UNL1        0.1076
      6 N          -9.8264  -16.8661   21.9482 N.pl3   1  UNL1       -0.3093
      7 H         -12.3819  -18.2138   19.6620 H       1  UNL1        0.1233
      8 C          -8.9766  -16.4682   23.1185 C.2     1  UNL1        0.0295
      9 C          -9.5358  -16.5352   24.5086 C.2     1  UNL1        0.0120
     10 C          -8.6860  -16.1372   25.6790 C.2     1  UNL1        0.0216
     11 C          -7.2770  -15.6723   25.4590 C.2     1  UNL1        0.1008
     12 N          -6.2095  -15.2192   26.4104 N.2     1  UNL1       -0.1482
     13 N          -4.9906  -14.8722   25.6082 N.2     1  UNL1       -0.1467
     14 C          -5.3046  -15.1108   24.1610 C.2     1  UNL1        0.1198
     15 C          -6.7178  -15.6053   24.0688 C.2     1  UNL1        0.0238
     16 C          -7.5676  -16.0032   22.8985 C.3     1  UNL1        0.0705
     17 C          -8.4378  -19.0456   21.6809 C.3     1  UNL1        0.0532
     18 C          -8.6482  -19.9932   22.8245 C.3     1  UNL1        0.1440
     19 C         -10.2295  -20.0421   24.8853 C.3     1  UNL1        0.1741
     20 O         -10.0189  -20.1744   23.4062 O.3     1  UNL1       -0.3510
@<TRIPOS>BOND
     1    19    20    1
     2    20    18    1
     3    18    17    1
     4    17     1    1
     5     1     2    1
     6     2     3    1
     7     3     4    1
     8     4     5    1
     9     5     6    1
    10     6     8    1
    11     8     9    2
    12     9    10    1
    13    10    11    2
    14    11    12    1
    15    12    13    2
    16    13    14    1
    17    14    15    2
    18    15    16    1
    19     6     1    1
    20    16     8    1
    21    15    11    1
    22     3     7    1
@<TRIPOS>MOLECULE
*****
 20 22 0 0 0
SMALL
GASTEIGER

@<TRIPOS>ATOM
      1 C          -6.3546  -18.5199   22.2888 C.3     1  UNL1        0.0908
      2 C          -4.8591  -18.6187   22.3508 C.3     1  UNL1        0.0886
      3 N          -4.0660  -17.5578   23.0547 N.3     1  UNL1       -0.2947
      4 C          -4.7684  -16.3982   23.6966 C.3     1  UNL1        0.0903
      5 C          -6.2638  -16.2995   23.6345 C.3     1  UNL1        0.1076
      6 N          -7.0569  -17.3604   22.9306 N.pl3   1  UNL1       -0.3093
      7 H          -3.4210  -17.1677   22.3675 H       1  UNL1        0.1233
      8 C          -8.5524  -17.2616   22.8686 C.2     1  UNL1        0.0295
      9 C          -9.2021  -16.3130   21.9053 C.2     1  UNL1        0.0120
     10 C         -10.6976  -16.2143   21.8433 C.2     1  UNL1        0.0216
     11 C         -11.5433  -17.0641   22.7447 C.2     1  UNL1        0.1008
     12 N         -13.0296  -17.1833   22.9079 N.2     1  UNL1       -0.1482
     13 N         -13.2985  -18.2056   23.9721 N.2     1  UNL1       -0.1467
     14 C         -11.9784  -18.7182   24.4667 C.2     1  UNL1        0.1198
     15 C         -10.8936  -18.0126   23.7080 C.2     1  UNL1        0.0238
     16 C          -9.3981  -18.1114   23.7700 C.3     1  UNL1        0.0705
     17 C          -7.1477  -19.5808   21.5849 C.3     1  UNL1        0.0532
     18 C          -7.3972  -19.4759   20.1095 C.3     1  UNL1        0.1440
     19 C          -9.9911  -19.4281   19.9718 C.3     1  UNL1        0.1741
     20 O          -8.6598  -18.8422   19.6055 O.3     1  UNL1       -0.3510
@<TRIPOS>BOND
     1    19    20    1
     2    20    18    1
     3    18    17    1
     4    17     1    1
     5     1     2    1
     6     2     3    1
     7     3     4    1
     8     4     5    1
     9     5     6    1
    10     6     8    1
    11     8     9    2
    12     9    10    1
    13    10    11    2
    14    11    12    1
    15    12    13    2
    16    13    14    1
    17    14    15    2
    18    15    16    1
    19     6     1    1
    20    16     8    1
    21    15    11    1
    22     3     7    1
@<TRIPOS>MOLECULE
*****
 20 22 0 0 0
SMALL
GASTEIGER

@<TRIPOS>ATOM
      1 C          -6.0367  -18.5916   22.3894 C.3     1  UNL1        0.0908
      2 C          -4.5661  -18.4842   22.6650 C.3     1  UNL1        0.0886
      3 N          -4.0313  -17.3152   23.4380 N.3     1  UNL1       -0.2947
      4 C          -4.9671  -16.2536   23.9353 C.3     1  UNL1        0.0903
      5 C          -6.4376  -16.3610   23.6597 C.3     1  UNL1        0.1076
      6 N          -6.9724  -17.5300   22.8867 N.pl3   1  UNL1       -0.3093
      7 H          -3.3518  -16.8503   22.8360 H       1  UNL1        0.1233
      8 C          -8.4430  -17.6374   22.6111 C.2     1  UNL1        0.0295
      9 C          -9.2691  -18.6591   23.3346 C.2     1  UNL1        0.0120
     10 C         -10.7397  -18.7664   23.0590 C.2     1  UNL1        0.0216
     11 C         -11.3841  -17.8519   22.0598 C.2     1  UNL1        0.1008
     12 N         -12.8007  -17.7245   21.5834 N.2     1  UNL1       -0.1482
     13 N         -12.8501  -16.6239   20.5654 N.2     1  UNL1       -0.1467
     14 C         -11.4640  -16.0712   20.4126 C.2     1  UNL1        0.1198
     15 C         -10.5580  -16.8302   21.3362 C.2     1  UNL1        0.0238
     16 C          -9.0874  -16.7229   21.6119 C.3     1  UNL1        0.0705
     17 C          -6.5714  -19.7606   21.6165 C.3     1  UNL1        0.0532
     18 C          -6.5804  -19.7274   20.1168 C.3     1  UNL1        0.1440
     19 C          -9.0725  -19.7008   19.3832 C.3     1  UNL1        0.1741
     20 O          -7.7130  -19.0672   19.3879 O.3     1  UNL1       -0.3510
@<TRIPOS>BOND
     1    19    20    1
     2    20    18    1
     3    18    17    1
     4    17     1    1
     5     1     2    1
     6     2     3    1
     7     3     4    1
     8     4     5    1
     9     5     6    1
    10     6     8    1
    11     8     9    2
    12     9    10    1
    13    10    11    2
    14    11    12    1
    15    12    13    2
    16    13    14    1
    17    14    15    2
    18    15    16    1
    19     6     1    1
    20    16     8    1
    21    15    11    1
    22     3     7    1
@<TRIPOS>MOLECULE
*****
 20 22 0 0 0
SMALL
GASTEIGER

@<TRIPOS>ATOM
      1 C          -8.1379  -17.4331   23.1404 C.3     1  UNL1        0.0908
      2 C          -9.4513  -17.3749   23.8626 C.3     1  UNL1        0.0886
      3 N         -10.2503  -18.6277   24.0679 N.3     1  UNL1       -0.2947
      4 C          -9.7359  -19.9385   23.5510 C.3     1  UNL1        0.0903
      5 C          -8.4225  -19.9965   22.8288 C.3     1  UNL1        0.1076
      6 N          -7.6235  -18.7438   22.6235 N.pl3   1  UNL1       -0.3093
      7 H         -11.1578  -18.4735   23.6284 H       1  UNL1        0.1233
      8 C          -6.3101  -18.8019   21.9012 C.2     1  UNL1        0.0295
      9 C          -6.2757  -19.0871   20.4290 C.2     1  UNL1        0.0120
     10 C          -4.9622  -19.1452   19.7068 C.2     1  UNL1        0.0216
     11 C          -3.6833  -18.9181   20.4568 C.2     1  UNL1        0.1008
     12 N          -2.2492  -18.9134   20.0171 N.2     1  UNL1       -0.1482
     13 N          -1.3973  -18.6253   21.2177 N.2     1  UNL1       -0.1467
     14 C          -2.3049  -18.4519   22.3993 C.2     1  UNL1        0.1198
     15 C          -3.7177  -18.6329   21.9291 C.2     1  UNL1        0.0238
     16 C          -5.0311  -18.5748   22.6513 C.3     1  UNL1        0.0705
     17 C          -7.3389  -16.1803   22.9351 C.3     1  UNL1        0.0532
     18 C          -7.2640  -15.1515   24.0241 C.3     1  UNL1        0.1440
     19 C          -5.4523  -15.3972   25.8700 C.3     1  UNL1        0.1741
     20 O          -5.9341  -14.7631   24.5989 O.3     1  UNL1       -0.3510
@<TRIPOS>BOND
     1    19    20    1
     2    20    18    1
     3    18    17    1
     4    17     1    1
     5     1     2    1
     6     2     3    1
     7     3     4    1
     8     4     5    1
     9     5     6    1
    10     6     8    1
    11     8     9    2
    12     9    10    1
    13    10    11    2
    14    11    12    1
    15    12    13    2
    16    13    14    1
    17    14    15    2
    18    15    16    1
    19     6     1    1
    20    16     8    1
    21    15    11    1
    22     3     7    1
@<TRIPOS>MOLECULE
*****
 20 22 0 0 0
SMALL
GASTEIGER

@<TRIPOS>ATOM
      1 C          -8.8265  -17.9278   23.3236 C.3     1  UNL1        0.0908
      2 C          -9.8149  -17.0669   24.0532 C.3     1  UNL1        0.0886
      3 N          -9.4456  -15.6663   24.4428 N.3     1  UNL1       -0.2947
      4 C          -8.0879  -15.1265   24.1029 C.3     1  UNL1        0.0903
      5 C          -7.0996  -15.9874   23.3734 C.3     1  UNL1        0.1076
      6 N          -7.4689  -17.3880   22.9838 N.pl3   1  UNL1       -0.3093
      7 H          -9.5402  -15.6081   25.4567 H       1  UNL1        0.1233
      8 C          -6.4805  -18.2488   22.2543 C.2     1  UNL1        0.0295
      9 C          -6.9320  -19.0998   21.1046 C.2     1  UNL1        0.0120
     10 C          -5.9436  -19.9607   20.3751 C.2     1  UNL1        0.0216
     11 C          -4.5037  -19.9703   20.7953 C.2     1  UNL1        0.1008
     12 N          -3.3099  -20.7113   20.2702 N.2     1  UNL1       -0.1482
     13 N          -2.1206  -20.3182   21.0954 N.2     1  UNL1       -0.1467
     14 C          -2.5794  -19.3342   22.1305 C.2     1  UNL1        0.1198
     15 C          -4.0522  -19.1192   21.9450 C.2     1  UNL1        0.0238
     16 C          -5.0406  -18.2585   22.6745 C.3     1  UNL1        0.0705
     17 C          -9.1958  -19.3284   22.9340 C.3     1  UNL1        0.0532
     18 C         -10.5844  -19.6323   22.4548 C.3     1  UNL1        0.1440
     19 C         -10.5684  -18.9996   19.9350 C.3     1  UNL1        0.1741
     20 O         -10.8184  -20.0040   21.0206 O.3     1  UNL1       -0.3510
@<TRIPOS>BOND
     1    19    20    1
     2    20    18    1
     3    18    17    1
     4    17     1    1
     5     1     2    1
     6     2     3    1
     7     3     4    1
     8     4     5    1
     9     5     6    1
    10     6     8    1
    11     8     9    2
    12     9    10    1
    13    10    11    2
    14    11    12    1
    15    12    13    2
    16    13    14    1
    17    14    15    2
    18    15    16    1
    19     6     1    1
    20    16     8    1
    21    15    11    1
    22     3     7    1
@<TRIPOS>MOLECULE
*****
 20 22 0 0 0
SMALL
GASTEIGER

@<TRIPOS>ATOM
      1 C          -6.7536  -16.5540   23.4949 C.3     1  UNL1        0.0908
      2 C          -7.7676  -15.8254   24.3263 C.3     1  UNL1        0.0886
      3 N          -7.3390  -15.1029   25.5690 N.3     1  UNL1       -0.2947
      4 C          -5.8965  -15.1090   25.9803 C.3     1  UNL1        0.0903
      5 C          -4.8826  -15.8376   25.1489 C.3     1  UNL1        0.1076
      6 N          -5.3112  -16.5600   23.9063 N.pl3   1  UNL1       -0.3093
      7 H          -7.8673  -15.5076   26.3419 H       1  UNL1        0.1233
      8 C          -4.2972  -17.2887   23.0749 C.2     1  UNL1        0.0295
      9 C          -4.3790  -18.7791   22.9282 C.2     1  UNL1        0.0120
     10 C          -3.3650  -19.5078   22.0968 C.2     1  UNL1        0.0216
     11 C          -2.2693  -18.7457   21.4123 C.2     1  UNL1        0.1008
     12 N          -1.1361  -19.1879   20.5345 N.2     1  UNL1       -0.1482
     13 N          -0.3541  -17.9707   20.1388 N.2     1  UNL1       -0.1467
     14 C          -1.0038  -16.7761   20.7720 C.2     1  UNL1        0.1198
     15 C          -2.1875  -17.2551   21.5590 C.2     1  UNL1        0.0238
     16 C          -3.2015  -16.5266   22.3903 C.3     1  UNL1        0.0705
     17 C          -7.1822  -17.2765   22.2522 C.3     1  UNL1        0.0532
     18 C          -8.6032  -17.7328   22.1023 C.3     1  UNL1        0.1440
     19 C         -10.6440  -16.2160   21.5691 C.3     1  UNL1        0.1741
     20 O          -9.5025  -17.0694   21.1017 O.3     1  UNL1       -0.3510
@<TRIPOS>BOND
     1    19    20    1
     2    20    18    1
     3    18    17    1
     4    17     1    1
     5     1     2    1
     6     2     3    1
     7     3     4    1
     8     4     5    1
     9     5     6    1
    10     6     8    1
    11     8     9    2
    12     9    10    1
    13    10    11    2
    14    11    12    1
    15    12    13    2
    16    13    14    1
    17    14    15    2
    18    15    16    1
    19     6     1    1
    20    16     8    1
    21    15    11    1
    22     3     7    1
@<TRIPOS>MOLECULE
*****
 20 22 0 0 0
SMALL
GASTEIGER

@<TRIPOS>ATOM
      1 C          -9.9489  -18.3177   21.3557 C.3     1  UNL1        0.0908
      2 C         -10.6098  -18.4750   20.0183 C.3     1  UNL1        0.0886
      3 N         -11.6083  -17.4579   19.5509 N.3     1  UNL1       -0.2947
      4 C         -11.9458  -16.2835   20.4209 C.3     1  UNL1        0.0903
      5 C         -11.2849  -16.1262   21.7582 C.3     1  UNL1        0.1076
      6 N         -10.2864  -17.1433   22.2256 N.pl3   1  UNL1       -0.3093
      7 H         -12.4806  -17.9583   19.3804 H       1  UNL1        0.1233
      8 C          -9.6254  -16.9860   23.5629 C.2     1  UNL1        0.0295
      9 C         -10.1089  -17.7844   24.7370 C.2     1  UNL1        0.0120
     10 C          -9.4479  -17.6271   26.0744 C.2     1  UNL1        0.0216
     11 C          -8.3036  -16.6712   26.2375 C.2     1  UNL1        0.1008
     12 N          -7.4617  -16.3067   27.4243 N.2     1  UNL1       -0.1482
     13 N          -6.4579  -15.2829   26.9835 N.2     1  UNL1       -0.1467
     14 C          -6.6794  -15.0147   25.5244 C.2     1  UNL1        0.1198
     15 C          -7.8201  -15.8727   25.0633 C.2     1  UNL1        0.0238
     16 C          -8.4811  -16.0301   23.7260 C.3     1  UNL1        0.0705
     17 C          -8.9504  -19.3348   21.8230 C.3     1  UNL1        0.0532
     18 C          -7.5293  -19.2644   21.3479 C.3     1  UNL1        0.1440
     19 C          -5.0680  -19.0293   22.1455 C.3     1  UNL1        0.1741
     20 O          -6.4127  -19.6843   22.2572 O.3     1  UNL1       -0.3510
@<TRIPOS>BOND
     1    19    20    1
     2    20    18    1
     3    18    17    1
     4    17     1    1
     5     1     2    1
     6     2     3    1
     7     3     4    1
     8     4     5    1
     9     5     6    1
    10     6     8    1
    11     8     9    2
    12     9    10    1
    13    10    11    2
    14    11    12    1
    15    12    13    2
    16    13    14    1
    17    14    15    2
    18    15    16    1
    19     6     1    1
    20    16     8    1
    21    15    11    1
    22     3     7    1
@<TRIPOS>MOLECULE
*****
 20 22 0 0 0
SMALL
GASTEIGER

@<TRIPOS>ATOM
      1 C         -10.9337  -18.7384   21.9576 C.3     1  UNL1        0.0908
      2 C         -12.3930  -18.4691   21.7379 C.3     1  UNL1        0.0886
      3 N         -12.8272  -17.2149   21.0391 N.3     1  UNL1       -0.2947
      4 C         -11.8023  -16.2300   20.5600 C.3     1  UNL1        0.0903
      5 C         -10.3431  -16.4993   20.7797 C.3     1  UNL1        0.1076
      6 N          -9.9089  -17.7535   21.4785 N.pl3   1  UNL1       -0.3093
      7 H         -13.4374  -16.7141   21.6851 H       1  UNL1        0.1233
      8 C          -8.4496  -18.0228   21.6981 C.2     1  UNL1        0.0295
      9 C          -7.7091  -17.3012   22.7847 C.2     1  UNL1        0.0120
     10 C          -6.2498  -17.5705   23.0043 C.2     1  UNL1        0.0216
     11 C          -5.5313  -18.5614   22.1373 C.2     1  UNL1        0.1008
     12 N          -4.1066  -19.0304   22.1177 N.2     1  UNL1       -0.1482
     13 N          -3.9668  -20.0419   21.0189 N.2     1  UNL1       -0.1467
     14 C          -5.3050  -20.1981   20.3595 C.2     1  UNL1        0.1198
     15 C          -6.2719  -19.2831   21.0507 C.2     1  UNL1        0.0238
     16 C          -7.7311  -19.0138   20.8311 C.3     1  UNL1        0.0705
     17 C         -10.4995  -19.9926   22.6564 C.3     1  UNL1        0.0532
     18 C         -10.6910  -20.1307   24.1377 C.3     1  UNL1        0.1440
     19 C          -9.6905  -18.1894   25.5448 C.3     1  UNL1        0.1741
     20 O          -9.6447  -19.6149   25.0806 O.3     1  UNL1       -0.3510
@<TRIPOS>BOND
     1    19    20    1
     2    20    18    1
     3    18    17    1
     4    17     1    1
     5     1     2    1
     6     2     3    1
     7     3     4    1
     8     4     5    1
     9     5     6    1
    10     6     8    1
    11     8     9    2
    12     9    10    1
    13    10    11    2
    14    11    12    1
    15    12    13    2
    16    13    14    1
    17    14    15    2
    18    15    16    1
    19     6     1    1
    20    16     8    1
    21    15    11    1
    22     3     7    1
