@<TRIPOS>MOLECULE
*****
 36 38 0 0 0
SMALL
GASTEIGER

@<TRIPOS>ATOM
      1 C          -7.4924  -16.7859   23.5710 C.ar    1  UNL1       -0.0022
      2 C          -6.8187  -16.0138   24.6664 C.ar    1  UNL1        0.0012
      3 C          -7.5424  -15.7520   25.9539 C.ar    1  UNL1        0.0712
      4 C          -8.9398  -16.2624   26.1459 C.ar    1  UNL1        0.0038
      5 C          -9.6135  -17.0345   25.0505 C.ar    1  UNL1       -0.0002
      6 C          -8.8898  -17.2962   23.7630 C.ar    1  UNL1        0.0005
      7 C          -9.5634  -18.0684   22.6675 C.ar    1  UNL1        0.0334
      8 C         -10.1303  -17.3471   21.4808 C.ar    1  UNL1       -0.0009
      9 C         -10.8040  -18.1191   20.3854 C.ar    1  UNL1       -0.0164
     10 C         -10.9107  -19.6126   20.4766 C.ar    1  UNL1       -0.0008
     11 C         -10.3438  -20.3339   21.6633 C.ar    1  UNL1        0.0366
     12 C          -9.6702  -19.5618   22.7588 C.ar    1  UNL1        0.1386
     13 O          -9.1033  -20.2831   23.9455 O.3     1  UNL1       -0.4714
     14 C          -9.9996  -20.6783   25.0815 C.3     1  UNL1        0.2525
     15 C         -11.3709  -17.3978   19.1986 C.3     1  UNL1        0.0679
     16 C         -11.7122  -15.9407   19.2994 C.2     1  UNL1        0.0547
     17 O         -10.7069  -14.9049   18.8911 O.co2   1  UNL1       -0.5488
     18 O         -13.0588  -15.5192   19.8084 O.co2   1  UNL1       -0.5488
     19 C          -6.8687  -14.9799   27.0493 C.3     1  UNL1        0.4186
     20 F          -6.1952  -14.2077   28.1448 F       1  UNL1       -0.1659
     21 F          -8.2021  -14.7176   27.6844 F       1  UNL1       -0.1659
     22 F          -5.5354  -15.2421   26.4143 F       1  UNL1       -0.1659
     23 C          -6.7687  -17.0477   22.2834 C.3     1  UNL1        0.1234
     24 N          -5.9587  -18.2995   22.1194 N.am    1  UNL1       -0.2419
     25 C          -6.2848  -19.2650   21.0187 C.2     1  UNL1        0.4054
     26 O          -7.4208  -18.9786   20.0819 O.2     1  UNL1       -0.2262
     27 C          -3.7837  -17.5362   23.3180 C.3     1  UNL1        0.0234
     28 C          -4.8227  -18.5859   23.0561 C.3     1  UNL1        0.0971
     29 O          -5.4748  -20.5168   20.8547 O.3     1  UNL1       -0.4295
     30 C          -4.3421  -20.5540   19.8721 C.3     1  UNL1        0.2367
     31 C          -3.3031  -19.4722   19.8840 C.ar    1  UNL1        0.0213
     32 C          -3.4105  -18.3186   18.9313 C.ar    1  UNL1       -0.0007
     33 C          -2.3715  -17.2368   18.9433 C.ar    1  UNL1       -0.0002
     34 C          -1.2251  -17.3086   19.9079 C.ar    1  UNL1       -0.0000
     35 C          -1.1177  -18.4622   20.8606 C.ar    1  UNL1       -0.0002
     36 C          -2.1567  -19.5440   20.8486 C.ar    1  UNL1       -0.0007
@<TRIPOS>UNITY_ATOM_ATTR
17 1
charge -1
@<TRIPOS>BOND
     1    27    28    1
     2    28    24    1
     3    24    23    1
     4    23     1    1
     5     1     2   ar
     6     2     3   ar
     7     3    19    1
     8    19    20    1
     9    19    21    1
    10    19    22    1
    11     3     4   ar
    12     4     5   ar
    13     5     6   ar
    14     6     7    1
    15     7     8   ar
    16     8     9   ar
    17     9    15    1
    18    15    16    1
    19    16    17   ar
    20    16    18   ar
    21     9    10   ar
    22    10    11   ar
    23    11    12   ar
    24    12    13    1
    25    13    14    1
    26    24    25   am
    27    25    26    2
    28    25    29    1
    29    29    30    1
    30    30    31    1
    31    31    32   ar
    32    32    33   ar
    33    33    34   ar
    34    34    35   ar
    35    35    36   ar
    36     6     1   ar
    37    12     7   ar
    38    36    31   ar
@<TRIPOS>MOLECULE
*****
 36 38 0 0 0
SMALL
GASTEIGER

@<TRIPOS>ATOM
      1 C          -7.5543  -16.6652   23.8468 C.ar    1  UNL1       -0.0022
      2 C          -6.8261  -15.8522   24.8757 C.ar    1  UNL1        0.0012
      3 C          -7.4961  -15.5113   26.1738 C.ar    1  UNL1        0.0712
      4 C          -8.8942  -15.9834   26.4429 C.ar    1  UNL1        0.0038
      5 C          -9.6223  -16.7964   25.4140 C.ar    1  UNL1       -0.0002
      6 C          -8.9524  -17.1374   24.1159 C.ar    1  UNL1        0.0005
      7 C          -9.6806  -17.9504   23.0869 C.ar    1  UNL1        0.0334
      8 C         -10.0869  -17.3238   21.7861 C.ar    1  UNL1       -0.0009
      9 C         -10.8151  -18.1368   20.7571 C.ar    1  UNL1       -0.0164
     10 C         -11.1369  -19.5765   21.0290 C.ar    1  UNL1       -0.0008
     11 C         -10.7305  -20.2031   22.3298 C.ar    1  UNL1        0.0366
     12 C         -10.0023  -19.3900   23.3588 C.ar    1  UNL1        0.1386
     13 O          -9.5960  -20.0166   24.6597 O.3     1  UNL1       -0.4714
     14 C          -9.5661  -21.5102   24.7957 C.3     1  UNL1        0.2525
     15 C         -11.2214  -17.5102   19.4563 C.3     1  UNL1        0.0679
     16 C         -11.6557  -16.0750   19.4185 C.2     1  UNL1        0.0547
     17 O         -10.6942  -15.0118   18.9765 O.co2   1  UNL1       -0.5488
     18 O         -13.0515  -15.7028   19.8225 O.co2   1  UNL1       -0.5488
     19 C          -6.7679  -14.6982   27.2028 C.3     1  UNL1        0.4186
     20 F          -6.0398  -13.8852   28.2317 F       1  UNL1       -0.1659
     21 F          -8.0532  -14.4893   27.9472 F       1  UNL1       -0.1659
     22 F          -5.4826  -14.9072   26.4584 F       1  UNL1       -0.1659
     23 C          -6.8844  -17.0062   22.5487 C.3     1  UNL1        0.1234
     24 N          -6.1437  -18.3026   22.4049 N.am    1  UNL1       -0.2419
     25 C          -4.7155  -18.4041   22.8524 C.2     1  UNL1        0.4054
     26 O          -4.0282  -17.2092   23.4437 O.2     1  UNL1       -0.2262
     27 C          -7.3029  -19.4632   20.3901 C.3     1  UNL1        0.0234
     28 C          -6.8310  -19.4975   21.8135 C.3     1  UNL1        0.0971
     29 O          -3.9748  -19.7005   22.7085 O.3     1  UNL1       -0.4295
     30 C          -3.4680  -20.1295   21.3635 C.3     1  UNL1        0.2367
     31 C          -2.5934  -19.2103   20.5634 C.ar    1  UNL1        0.0213
     32 C          -3.0372  -18.7429   19.2090 C.ar    1  UNL1       -0.0007
     33 C          -2.1626  -17.8237   18.4090 C.ar    1  UNL1       -0.0002
     34 C          -0.8441  -17.3719   18.9634 C.ar    1  UNL1       -0.0000
     35 C          -0.4002  -17.8393   20.3178 C.ar    1  UNL1       -0.0002
     36 C          -1.2749  -18.7585   21.1178 C.ar    1  UNL1       -0.0007
@<TRIPOS>UNITY_ATOM_ATTR
17 1
charge -1
@<TRIPOS>BOND
     1    27    28    1
     2    28    24    1
     3    24    23    1
     4    23     1    1
     5     1     2   ar
     6     2     3   ar
     7     3    19    1
     8    19    20    1
     9    19    21    1
    10    19    22    1
    11     3     4   ar
    12     4     5   ar
    13     5     6   ar
    14     6     7    1
    15     7     8   ar
    16     8     9   ar
    17     9    15    1
    18    15    16    1
    19    16    17   ar
    20    16    18   ar
    21     9    10   ar
    22    10    11   ar
    23    11    12   ar
    24    12    13    1
    25    13    14    1
    26    24    25   am
    27    25    26    2
    28    25    29    1
    29    29    30    1
    30    30    31    1
    31    31    32   ar
    32    32    33   ar
    33    33    34   ar
    34    34    35   ar
    35    35    36   ar
    36     6     1   ar
    37    12     7   ar
    38    36    31   ar
@<TRIPOS>MOLECULE
*****
 36 38 0 0 0
SMALL
GASTEIGER

@<TRIPOS>ATOM
      1 C          -7.8587  -16.4969   23.4140 C.ar    1  UNL1       -0.0022
      2 C          -6.5902  -15.9903   24.0337 C.ar    1  UNL1        0.0012
      3 C          -6.5967  -15.4780   25.4435 C.ar    1  UNL1        0.0712
      4 C          -7.8718  -15.4723   26.2335 C.ar    1  UNL1        0.0038
      5 C          -9.1403  -15.9790   25.6138 C.ar    1  UNL1       -0.0002
      6 C          -9.1338  -16.4913   24.2041 C.ar    1  UNL1        0.0005
      7 C         -10.4024  -16.9980   23.5843 C.ar    1  UNL1        0.0334
      8 C         -10.9785  -16.3074   22.3838 C.ar    1  UNL1       -0.0009
      9 C         -12.2470  -16.8141   21.7640 C.ar    1  UNL1       -0.0164
     10 C         -12.9394  -18.0113   22.3447 C.ar    1  UNL1       -0.0008
     11 C         -12.3633  -18.7019   23.5452 C.ar    1  UNL1        0.0366
     12 C         -11.0947  -18.1952   24.1650 C.ar    1  UNL1        0.1386
     13 O         -10.5186  -18.8857   25.3655 O.3     1  UNL1       -0.4714
     14 C          -9.8362  -20.2127   25.2118 C.3     1  UNL1        0.2525
     15 C         -12.8231  -16.1235   20.5635 C.3     1  UNL1        0.0679
     16 C         -12.0623  -16.1069   19.2709 C.2     1  UNL1        0.0547
     17 O         -11.5538  -14.8091   18.7166 O.co2   1  UNL1       -0.5488
     18 O         -11.8101  -17.3879   18.5325 O.co2   1  UNL1       -0.5488
     19 C          -5.3282  -14.9713   26.0632 C.3     1  UNL1        0.4186
     20 F          -4.0597  -14.4646   26.6830 F       1  UNL1       -0.1659
     21 F          -6.0350  -14.8077   27.3761 F       1  UNL1       -0.1659
     22 F          -4.6214  -15.1349   24.7504 F       1  UNL1       -0.1659
     23 C          -7.8522  -17.0093   22.0042 C.3     1  UNL1        0.1234
     24 N          -7.4653  -18.4313   21.7247 N.am    1  UNL1       -0.2419
     25 C          -6.0245  -18.8435   21.7917 C.2     1  UNL1        0.4054
     26 O          -4.9708  -17.8337   22.1381 O.2     1  UNL1       -0.2262
     27 C          -9.5718  -19.1083   20.3631 C.3     1  UNL1        0.0234
     28 C          -8.5190  -19.4411   21.3784 C.3     1  UNL1        0.0971
     29 O          -5.6376  -20.2655   21.5123 O.3     1  UNL1       -0.4295
     30 C          -4.6506  -20.5746   20.4258 C.3     1  UNL1        0.2367
     31 C          -3.5029  -19.6438   20.1682 C.ar    1  UNL1        0.0213
     32 C          -2.2617  -19.7339   21.0055 C.ar    1  UNL1       -0.0007
     33 C          -1.1139  -18.8032   20.7479 C.ar    1  UNL1       -0.0002
     34 C          -1.2074  -17.7823   19.6528 C.ar    1  UNL1       -0.0000
     35 C          -2.4486  -17.6922   18.8155 C.ar    1  UNL1       -0.0002
     36 C          -3.5964  -18.6230   19.0732 C.ar    1  UNL1       -0.0007
@<TRIPOS>UNITY_ATOM_ATTR
17 1
charge -1
@<TRIPOS>BOND
     1    27    28    1
     2    28    24    1
     3    24    23    1
     4    23     1    1
     5     1     2   ar
     6     2     3   ar
     7     3    19    1
     8    19    20    1
     9    19    21    1
    10    19    22    1
    11     3     4   ar
    12     4     5   ar
    13     5     6   ar
    14     6     7    1
    15     7     8   ar
    16     8     9   ar
    17     9    15    1
    18    15    16    1
    19    16    17   ar
    20    16    18   ar
    21     9    10   ar
    22    10    11   ar
    23    11    12   ar
    24    12    13    1
    25    13    14    1
    26    24    25   am
    27    25    26    2
    28    25    29    1
    29    29    30    1
    30    30    31    1
    31    31    32   ar
    32    32    33   ar
    33    33    34   ar
    34    34    35   ar
    35    35    36   ar
    36     6     1   ar
    37    12     7   ar
    38    36    31   ar
@<TRIPOS>MOLECULE
*****
 36 38 0 0 0
SMALL
GASTEIGER

@<TRIPOS>ATOM
      1 C          -7.8617  -17.9390   22.5546 C.ar    1  UNL1       -0.0022
      2 C          -6.3819  -17.7103   22.6425 C.ar    1  UNL1        0.0012
      3 C          -5.8520  -16.4802   23.3178 C.ar    1  UNL1        0.0712
      4 C          -6.8019  -15.4788   23.9051 C.ar    1  UNL1        0.0038
      5 C          -8.2818  -15.7076   23.8171 C.ar    1  UNL1       -0.0002
      6 C          -8.8116  -16.9377   23.1419 C.ar    1  UNL1        0.0005
      7 C         -10.2915  -17.1665   23.0539 C.ar    1  UNL1        0.0334
      8 C         -10.9929  -17.9562   24.1190 C.ar    1  UNL1       -0.0009
      9 C         -12.4727  -18.1850   24.0310 C.ar    1  UNL1       -0.0164
     10 C         -13.2512  -17.6241   22.8780 C.ar    1  UNL1       -0.0008
     11 C         -12.5498  -16.8343   21.8130 C.ar    1  UNL1        0.0366
     12 C         -11.0699  -16.6055   21.9010 C.ar    1  UNL1        0.1386
     13 O         -10.3685  -15.8158   20.8359 O.3     1  UNL1       -0.4714
     14 C         -11.0701  -15.5073   19.5464 C.3     1  UNL1        0.2525
     15 C         -13.1741  -18.9748   25.0961 C.3     1  UNL1        0.0679
     16 C         -14.5559  -18.5856   25.5310 C.2     1  UNL1        0.0547
     17 O         -14.7770  -18.0064   26.8970 O.co2   1  UNL1       -0.5488
     18 O         -15.7166  -18.7755   24.6000 O.co2   1  UNL1       -0.5488
     19 C          -4.3721  -16.2514   23.4057 C.3     1  UNL1        0.4186
     20 F          -2.8923  -16.0225   23.4937 F       1  UNL1       -0.1659
     21 F          -4.5820  -14.7908   23.1363 F       1  UNL1       -0.1659
     22 F          -4.1623  -17.7120   23.6752 F       1  UNL1       -0.1659
     23 C          -8.3917  -19.1692   21.8793 C.3     1  UNL1        0.1234
     24 N          -7.6407  -19.7776   20.7322 N.am    1  UNL1       -0.2419
     25 C          -6.3573  -20.5130   20.9817 C.2     1  UNL1        0.4054
     26 O          -5.8251  -20.6401   22.3783 O.2     1  UNL1       -0.2262
     27 C          -9.6535  -19.6149   19.0975 C.3     1  UNL1        0.0234
     28 C          -8.1729  -19.6505   19.3356 C.3     1  UNL1        0.0971
     29 O          -5.6063  -21.1214   19.8346 O.3     1  UNL1       -0.4295
     30 C          -4.1064  -21.1284   19.8396 C.3     1  UNL1        0.2367
     31 C          -3.3514  -19.8633   20.1217 C.ar    1  UNL1        0.0213
     32 C          -3.4014  -18.7263   19.1446 C.ar    1  UNL1       -0.0007
     33 C          -2.6465  -17.4612   19.4267 C.ar    1  UNL1       -0.0002
     34 C          -1.8415  -17.3331   20.6859 C.ar    1  UNL1       -0.0000
     35 C          -1.7914  -18.4701   21.6629 C.ar    1  UNL1       -0.0002
     36 C          -2.5464  -19.7352   21.3809 C.ar    1  UNL1       -0.0007
@<TRIPOS>UNITY_ATOM_ATTR
17 1
charge -1
@<TRIPOS>BOND
     1    27    28    1
     2    28    24    1
     3    24    23    1
     4    23     1    1
     5     1     2   ar
     6     2     3   ar
     7     3    19    1
     8    19    20    1
     9    19    21    1
    10    19    22    1
    11     3     4   ar
    12     4     5   ar
    13     5     6   ar
    14     6     7    1
    15     7     8   ar
    16     8     9   ar
    17     9    15    1
    18    15    16    1
    19    16    17   ar
    20    16    18   ar
    21     9    10   ar
    22    10    11   ar
    23    11    12   ar
    24    12    13    1
    25    13    14    1
    26    24    25   am
    27    25    26    2
    28    25    29    1
    29    29    30    1
    30    30    31    1
    31    31    32   ar
    32    32    33   ar
    33    33    34   ar
    34    34    35   ar
    35    35    36   ar
    36     6     1   ar
    37    12     7   ar
    38    36    31   ar
@<TRIPOS>MOLECULE
*****
 36 38 0 0 0
SMALL
GASTEIGER

@<TRIPOS>ATOM
      1 C          -6.4728  -16.5497   23.5634 C.ar    1  UNL1       -0.0022
      2 C          -7.3597  -15.9004   24.5840 C.ar    1  UNL1        0.0012
      3 C          -6.8522  -15.6614   25.9751 C.ar    1  UNL1        0.0712
      4 C          -5.4579  -16.0717   26.3457 C.ar    1  UNL1        0.0038
      5 C          -4.5709  -16.7211   25.3251 C.ar    1  UNL1       -0.0002
      6 C          -5.0784  -16.9601   23.9340 C.ar    1  UNL1        0.0005
      7 C          -4.1915  -17.6095   22.9133 C.ar    1  UNL1        0.0334
      8 C          -3.0368  -16.8496   22.3309 C.ar    1  UNL1       -0.0009
      9 C          -2.1498  -17.4989   21.3103 C.ar    1  UNL1       -0.0164
     10 C          -2.4176  -18.9083   20.8720 C.ar    1  UNL1       -0.0008
     11 C          -3.5723  -19.6683   21.4544 C.ar    1  UNL1        0.0366
     12 C          -4.4592  -19.0188   22.4750 C.ar    1  UNL1        0.1386
     13 O          -5.6139  -19.7788   23.0574 O.3     1  UNL1       -0.4714
     14 C          -6.1771  -20.9625   22.3280 C.3     1  UNL1        0.2525
     15 C          -0.9951  -16.7390   20.7280 C.3     1  UNL1        0.0679
     16 C           0.0694  -17.4647   19.9599 C.2     1  UNL1        0.0547
     17 O          -0.2068  -17.9443   18.5656 O.co2   1  UNL1       -0.5488
     18 O           1.4101  -17.7108   20.5859 O.co2   1  UNL1       -0.5488
     19 C          -7.7392  -15.0119   26.9958 C.3     1  UNL1        0.4186
     20 F          -8.6261  -14.3626   28.0164 F       1  UNL1       -0.1659
     21 F          -8.9292  -15.2534   26.1152 F       1  UNL1       -0.1659
     22 F          -6.5491  -14.7705   27.8764 F       1  UNL1       -0.1659
     23 C          -6.9802  -16.7888   22.1722 C.3     1  UNL1        0.1234
     24 N          -7.9879  -17.8701   21.9169 N.am    1  UNL1       -0.2419
     25 C          -7.8482  -18.7570   20.7152 C.2     1  UNL1        0.4054
     26 O          -6.7008  -18.5625   19.7689 O.2     1  UNL1       -0.2262
     27 C          -9.1873  -19.2814   23.7389 C.3     1  UNL1        0.0234
     28 C          -9.1353  -18.0647   22.8632 C.3     1  UNL1        0.0971
     29 O          -8.8559  -19.8384   20.4599 O.3     1  UNL1       -0.4295
     30 C         -10.1175  -19.5263   19.7110 C.3     1  UNL1        0.2367
     31 C         -11.0477  -18.4646   20.2183 C.ar    1  UNL1        0.0213
     32 C         -11.9804  -18.7648   21.3540 C.ar    1  UNL1       -0.0007
     33 C         -12.9106  -17.7031   21.8614 C.ar    1  UNL1       -0.0002
     34 C         -12.9082  -16.3411   21.2330 C.ar    1  UNL1       -0.0000
     35 C         -11.9755  -16.0409   20.0973 C.ar    1  UNL1       -0.0002
     36 C         -11.0453  -17.1026   19.5899 C.ar    1  UNL1       -0.0007
@<TRIPOS>UNITY_ATOM_ATTR
17 1
charge -1
@<TRIPOS>BOND
     1    27    28    1
     2    28    24    1
     3    24    23    1
     4    23     1    1
     5     1     2   ar
     6     2     3   ar
     7     3    19    1
     8    19    20    1
     9    19    21    1
    10    19    22    1
    11     3     4   ar
    12     4     5   ar
    13     5     6   ar
    14     6     7    1
    15     7     8   ar
    16     8     9   ar
    17     9    15    1
    18    15    16    1
    19    16    17   ar
    20    16    18   ar
    21     9    10   ar
    22    10    11   ar
    23    11    12   ar
    24    12    13    1
    25    13    14    1
    26    24    25   am
    27    25    26    2
    28    25    29    1
    29    29    30    1
    30    30    31    1
    31    31    32   ar
    32    32    33   ar
    33    33    34   ar
    34    34    35   ar
    35    35    36   ar
    36     6     1   ar
    37    12     7   ar
    38    36    31   ar
@<TRIPOS>MOLECULE
*****
 36 38 0 0 0
SMALL
GASTEIGER

@<TRIPOS>ATOM
      1 C          -6.4455  -16.9035   23.3150 C.ar    1  UNL1       -0.0022
      2 C          -7.4187  -16.2682   24.2633 C.ar    1  UNL1        0.0012
      3 C          -6.9651  -15.8380   25.6268 C.ar    1  UNL1        0.0712
      4 C          -5.5384  -16.0432   26.0420 C.ar    1  UNL1        0.0038
      5 C          -4.5652  -16.6785   25.0937 C.ar    1  UNL1       -0.0002
      6 C          -5.0188  -17.1087   23.7302 C.ar    1  UNL1        0.0005
      7 C          -4.0456  -17.7441   22.7819 C.ar    1  UNL1        0.0334
      8 C          -2.8997  -16.9448   22.2360 C.ar    1  UNL1       -0.0009
      9 C          -1.9266  -17.5801   21.2877 C.ar    1  UNL1       -0.0164
     10 C          -2.0993  -19.0148   20.8852 C.ar    1  UNL1       -0.0008
     11 C          -3.2453  -19.8141   21.4311 C.ar    1  UNL1        0.0366
     12 C          -4.2184  -19.1787   22.3795 C.ar    1  UNL1        0.1386
     13 O          -5.3644  -19.9780   22.9253 O.3     1  UNL1       -0.4714
     14 C          -6.2413  -20.7633   21.9956 C.3     1  UNL1        0.2525
     15 C          -0.7807  -16.7808   20.7418 C.3     1  UNL1        0.0679
     16 C           0.3200  -17.4663   19.9877 C.2     1  UNL1        0.0547
     17 O           0.0974  -17.9066   18.5711 O.co2   1  UNL1       -0.5488
     18 O           1.6432  -17.7116   20.6502 O.co2   1  UNL1       -0.5488
     19 C          -7.9382  -15.2026   26.5751 C.3     1  UNL1        0.4186
     20 F          -8.9114  -14.5672   27.5234 F       1  UNL1       -0.1659
     21 F          -9.0351  -15.3781   25.5671 F       1  UNL1       -0.1659
     22 F          -6.8414  -15.0271   27.5832 F       1  UNL1       -0.1659
     23 C          -6.8991  -17.3338   21.9514 C.3     1  UNL1        0.1234
     24 N          -8.3602  -17.3334   21.6123 N.am    1  UNL1       -0.2419
     25 C          -9.0422  -16.0519   21.2346 C.2     1  UNL1        0.4054
     26 O          -8.2630  -14.7707   21.1960 O.2     1  UNL1       -0.2262
     27 C          -9.4119  -19.3652   20.3811 C.3     1  UNL1        0.0234
     28 C          -9.1394  -18.6145   21.6508 C.3     1  UNL1        0.0971
     29 O         -10.5033  -16.0515   20.8954 O.3     1  UNL1       -0.4295
     30 C         -11.5175  -15.7147   21.9480 C.3     1  UNL1        0.2367
     31 C         -11.9806  -16.7699   22.9083 C.ar    1  UNL1        0.0213
     32 C         -13.4418  -17.0871   23.0266 C.ar    1  UNL1       -0.0007
     33 C         -13.9049  -18.1423   23.9868 C.ar    1  UNL1       -0.0002
     34 C         -12.9068  -18.8803   24.8288 C.ar    1  UNL1       -0.0000
     35 C         -11.4455  -18.5631   24.7105 C.ar    1  UNL1       -0.0002
     36 C         -10.9824  -17.5079   23.7502 C.ar    1  UNL1       -0.0007
@<TRIPOS>UNITY_ATOM_ATTR
17 1
charge -1
@<TRIPOS>BOND
     1    27    28    1
     2    28    24    1
     3    24    23    1
     4    23     1    1
     5     1     2   ar
     6     2     3   ar
     7     3    19    1
     8    19    20    1
     9    19    21    1
    10    19    22    1
    11     3     4   ar
    12     4     5   ar
    13     5     6   ar
    14     6     7    1
    15     7     8   ar
    16     8     9   ar
    17     9    15    1
    18    15    16    1
    19    16    17   ar
    20    16    18   ar
    21     9    10   ar
    22    10    11   ar
    23    11    12   ar
    24    12    13    1
    25    13    14    1
    26    24    25   am
    27    25    26    2
    28    25    29    1
    29    29    30    1
    30    30    31    1
    31    31    32   ar
    32    32    33   ar
    33    33    34   ar
    34    34    35   ar
    35    35    36   ar
    36     6     1   ar
    37    12     7   ar
    38    36    31   ar
@<TRIPOS>MOLECULE
*****
 36 38 0 0 0
SMALL
GASTEIGER

@<TRIPOS>ATOM
      1 C          -7.4687  -18.1041   22.6646 C.ar    1  UNL1       -0.0022
      2 C          -5.9800  -17.9213   22.6741 C.ar    1  UNL1        0.0012
      3 C          -5.3690  -16.7834   23.4369 C.ar    1  UNL1        0.0712
      4 C          -6.2467  -15.8283   24.1900 C.ar    1  UNL1        0.0038
      5 C          -7.7355  -16.0111   24.1805 C.ar    1  UNL1       -0.0002
      6 C          -8.3465  -17.1490   23.4177 C.ar    1  UNL1        0.0005
      7 C          -9.8353  -17.3318   23.4082 C.ar    1  UNL1        0.0334
      8 C         -10.6516  -16.7789   22.2777 C.ar    1  UNL1       -0.0009
      9 C         -12.1403  -16.9617   22.2680 C.ar    1  UNL1       -0.0164
     10 C         -12.8129  -17.6975   23.3890 C.ar    1  UNL1       -0.0008
     11 C         -11.9967  -18.2504   24.5195 C.ar    1  UNL1        0.0366
     12 C         -10.5078  -18.0676   24.5290 C.ar    1  UNL1        0.1386
     13 O          -9.6916  -18.6205   25.6595 O.3     1  UNL1       -0.4714
     14 C          -9.2349  -17.7172   26.7667 C.3     1  UNL1        0.2525
     15 C         -12.9566  -16.4088   21.1376 C.3     1  UNL1        0.0679
     16 C         -12.3968  -16.3930   19.7460 C.2     1  UNL1        0.0547
     17 O         -12.5643  -15.1768   18.8840 O.co2   1  UNL1       -0.5488
     18 O         -11.6696  -17.5933   19.2164 O.co2   1  UNL1       -0.5488
     19 C          -3.8801  -16.6006   23.4464 C.3     1  UNL1        0.4186
     20 F          -2.3914  -16.4177   23.4560 F       1  UNL1       -0.1659
     21 F          -4.0528  -15.1723   23.0222 F       1  UNL1       -0.1659
     22 F          -3.7074  -18.0289   23.8706 F       1  UNL1       -0.1659
     23 C          -8.0798  -19.2421   21.9018 C.3     1  UNL1        0.1234
     24 N          -7.3564  -19.8322   20.7277 N.am    1  UNL1       -0.2419
     25 C          -6.1570  -20.7058   20.9477 C.2     1  UNL1        0.4054
     26 O          -5.6811  -20.9893   22.3416 O.2     1  UNL1       -0.2262
     27 C          -9.1776  -20.0384   18.8864 C.3     1  UNL1        0.0234
     28 C          -7.8323  -19.5487   19.3338 C.3     1  UNL1        0.0971
     29 O          -5.4336  -21.2960   19.7736 O.3     1  UNL1       -0.4295
     30 C          -3.9386  -21.2053   19.6909 C.3     1  UNL1        0.2367
     31 C          -3.2530  -19.8915   19.9229 C.ar    1  UNL1        0.0213
     32 C          -3.5107  -18.7377   18.9997 C.ar    1  UNL1       -0.0007
     33 C          -2.8250  -17.4239   19.2316 C.ar    1  UNL1       -0.0002
     34 C          -1.8817  -17.2638   20.3868 C.ar    1  UNL1       -0.0000
     35 C          -1.6240  -18.4176   21.3100 C.ar    1  UNL1       -0.0002
     36 C          -2.3096  -19.7314   21.0780 C.ar    1  UNL1       -0.0007
@<TRIPOS>UNITY_ATOM_ATTR
17 1
charge -1
@<TRIPOS>BOND
     1    27    28    1
     2    28    24    1
     3    24    23    1
     4    23     1    1
     5     1     2   ar
     6     2     3   ar
     7     3    19    1
     8    19    20    1
     9    19    21    1
    10    19    22    1
    11     3     4   ar
    12     4     5   ar
    13     5     6   ar
    14     6     7    1
    15     7     8   ar
    16     8     9   ar
    17     9    15    1
    18    15    16    1
    19    16    17   ar
    20    16    18   ar
    21     9    10   ar
    22    10    11   ar
    23    11    12   ar
    24    12    13    1
    25    13    14    1
    26    24    25   am
    27    25    26    2
    28    25    29    1
    29    29    30    1
    30    30    31    1
    31    31    32   ar
    32    32    33   ar
    33    33    34   ar
    34    34    35   ar
    35    35    36   ar
    36     6     1   ar
    37    12     7   ar
    38    36    31   ar
@<TRIPOS>MOLECULE
*****
 36 38 0 0 0
SMALL
GASTEIGER

@<TRIPOS>ATOM
      1 C          -9.6049  -18.4544   23.0081 C.ar    1  UNL1       -0.0022
      2 C         -11.0303  -18.7824   22.6754 C.ar    1  UNL1        0.0012
      3 C         -12.0968  -17.7401   22.8359 C.ar    1  UNL1        0.0712
      4 C         -11.7381  -16.3696   23.3291 C.ar    1  UNL1        0.0038
      5 C         -10.3127  -16.0416   23.6618 C.ar    1  UNL1       -0.0002
      6 C          -9.2462  -17.0840   23.5013 C.ar    1  UNL1        0.0005
      7 C          -7.8207  -16.7560   23.8340 C.ar    1  UNL1        0.0334
      8 C          -6.7091  -17.2917   22.9811 C.ar    1  UNL1       -0.0009
      9 C          -5.2838  -16.9637   23.3138 C.ar    1  UNL1       -0.0164
     10 C          -4.9699  -16.1000   24.4994 C.ar    1  UNL1       -0.0008
     11 C          -6.0815  -15.5642   25.3522 C.ar    1  UNL1        0.0366
     12 C          -7.5069  -15.8922   25.0195 C.ar    1  UNL1        0.1386
     13 O          -8.6185  -15.3565   25.8724 O.3     1  UNL1       -0.4714
     14 C          -8.4325  -15.2318   27.3556 C.3     1  UNL1        0.2525
     15 C          -4.1722  -17.4995   22.4609 C.3     1  UNL1        0.0679
     16 C          -2.7922  -16.9235   22.5786 C.2     1  UNL1        0.0547
     17 O          -1.7308  -17.6676   23.3335 O.co2   1  UNL1       -0.5488
     18 O          -2.4736  -15.6035   21.9415 O.co2   1  UNL1       -0.5488
     19 C         -13.5223  -18.0681   22.5032 C.3     1  UNL1        0.4186
     20 F         -14.9476  -18.3961   22.1704 F       1  UNL1       -0.1659
     21 F         -13.2292  -17.8638   21.0464 F       1  UNL1       -0.1659
     22 F         -13.8154  -18.2723   23.9600 F       1  UNL1       -0.1659
     23 C          -8.5383  -19.4968   22.8477 C.3     1  UNL1        0.1234
     24 N          -7.8308  -19.6499   21.5339 N.am    1  UNL1       -0.2419
     25 C          -6.4969  -20.3336   21.4755 C.2     1  UNL1        0.4054
     26 O          -5.8705  -20.8641   22.7309 O.2     1  UNL1       -0.2262
     27 C          -9.5101  -19.9190   19.5698 C.3     1  UNL1        0.0234
     28 C          -8.4573  -19.1194   20.2785 C.3     1  UNL1        0.0971
     29 O          -5.7895  -20.4867   20.1617 O.3     1  UNL1       -0.4295
     30 C          -4.3178  -20.7752   20.1314 C.3     1  UNL1        0.2367
     31 C          -3.3433  -19.6729   19.8396 C.ar    1  UNL1        0.0213
     32 C          -3.7709  -18.4909   19.0211 C.ar    1  UNL1       -0.0007
     33 C          -2.7964  -17.3886   18.7293 C.ar    1  UNL1       -0.0002
     34 C          -1.3942  -17.4683   19.2559 C.ar    1  UNL1       -0.0000
     35 C          -0.9665  -18.6503   20.0744 C.ar    1  UNL1       -0.0002
     36 C          -1.9411  -19.7526   20.3663 C.ar    1  UNL1       -0.0007
@<TRIPOS>UNITY_ATOM_ATTR
17 1
charge -1
@<TRIPOS>BOND
     1    27    28    1
     2    28    24    1
     3    24    23    1
     4    23     1    1
     5     1     2   ar
     6     2     3   ar
     7     3    19    1
     8    19    20    1
     9    19    21    1
    10    19    22    1
    11     3     4   ar
    12     4     5   ar
    13     5     6   ar
    14     6     7    1
    15     7     8   ar
    16     8     9   ar
    17     9    15    1
    18    15    16    1
    19    16    17   ar
    20    16    18   ar
    21     9    10   ar
    22    10    11   ar
    23    11    12   ar
    24    12    13    1
    25    13    14    1
    26    24    25   am
    27    25    26    2
    28    25    29    1
    29    29    30    1
    30    30    31    1
    31    31    32   ar
    32    32    33   ar
    33    33    34   ar
    34    34    35   ar
    35    35    36   ar
    36     6     1   ar
    37    12     7   ar
    38    36    31   ar
@<TRIPOS>MOLECULE
*****
 36 38 0 0 0
SMALL
GASTEIGER

@<TRIPOS>ATOM
      1 C          -4.2726  -18.0874   22.1769 C.ar    1  UNL1       -0.0022
      2 C          -3.2620  -18.4109   21.1167 C.ar    1  UNL1        0.0012
      3 C          -2.0957  -17.4958   20.8883 C.ar    1  UNL1        0.0712
      4 C          -1.9399  -16.2573   21.7200 C.ar    1  UNL1        0.0038
      5 C          -2.9505  -15.9338   22.7802 C.ar    1  UNL1       -0.0002
      6 C          -4.1169  -16.8489   23.0086 C.ar    1  UNL1        0.0005
      7 C          -5.1276  -16.5255   24.0688 C.ar    1  UNL1        0.0334
      8 C          -6.4803  -16.0055   23.6818 C.ar    1  UNL1       -0.0009
      9 C          -7.4909  -15.6821   24.7419 C.ar    1  UNL1       -0.0164
     10 C          -7.1489  -15.8786   26.1891 C.ar    1  UNL1       -0.0008
     11 C          -5.7962  -16.3985   26.5762 C.ar    1  UNL1        0.0366
     12 C          -4.7855  -16.7220   25.5160 C.ar    1  UNL1        0.1386
     13 O          -3.4328  -17.2419   25.9030 O.3     1  UNL1       -0.4714
     14 C          -3.2710  -18.0532   27.1544 C.3     1  UNL1        0.2525
     15 C          -8.8437  -15.1621   24.3548 C.3     1  UNL1        0.0679
     16 C          -9.9205  -16.1161   23.9301 C.2     1  UNL1        0.0547
     17 O         -11.0950  -15.6183   23.1409 O.co2   1  UNL1       -0.5488
     18 O          -9.8228  -17.5679   24.2946 O.co2   1  UNL1       -0.5488
     19 C          -1.0850  -17.8193   19.8281 C.3     1  UNL1        0.4186
     20 F          -0.0743  -18.1427   18.7679 F       1  UNL1       -0.1659
     21 F          -0.1544  -16.7923   20.4019 F       1  UNL1       -0.1659
     22 F          -2.0155  -18.8462   19.2542 F       1  UNL1       -0.1659
     23 C          -5.4390  -19.0025   22.4054 C.3     1  UNL1        0.1234
     24 N          -6.2027  -19.5504   21.2363 N.am    1  UNL1       -0.2419
     25 C          -7.2819  -18.7298   20.5943 C.2     1  UNL1        0.4054
     26 O          -7.5974  -17.3614   21.1214 O.2     1  UNL1       -0.2262
     27 C          -4.6569  -21.1377   19.8795 C.3     1  UNL1        0.0234
     28 C          -5.8872  -20.9188   20.7092 C.3     1  UNL1        0.0971
     29 O          -8.0455  -19.2777   19.4253 O.3     1  UNL1       -0.4295
     30 C          -9.3747  -19.9386   19.6409 C.3     1  UNL1        0.2367
     31 C         -10.4824  -19.1908   20.3220 C.ar    1  UNL1        0.0213
     32 C         -11.0375  -17.9432   19.7012 C.ar    1  UNL1       -0.0007
     33 C         -12.1451  -17.1954   20.3823 C.ar    1  UNL1       -0.0002
     34 C         -12.6977  -17.6952   21.6841 C.ar    1  UNL1       -0.0000
     35 C         -12.1427  -18.9428   22.3049 C.ar    1  UNL1       -0.0002
     36 C         -11.0350  -19.6906   21.6238 C.ar    1  UNL1       -0.0007
@<TRIPOS>UNITY_ATOM_ATTR
17 1
charge -1
@<TRIPOS>BOND
     1    27    28    1
     2    28    24    1
     3    24    23    1
     4    23     1    1
     5     1     2   ar
     6     2     3   ar
     7     3    19    1
     8    19    20    1
     9    19    21    1
    10    19    22    1
    11     3     4   ar
    12     4     5   ar
    13     5     6   ar
    14     6     7    1
    15     7     8   ar
    16     8     9   ar
    17     9    15    1
    18    15    16    1
    19    16    17   ar
    20    16    18   ar
    21     9    10   ar
    22    10    11   ar
    23    11    12   ar
    24    12    13    1
    25    13    14    1
    26    24    25   am
    27    25    26    2
    28    25    29    1
    29    29    30    1
    30    30    31    1
    31    31    32   ar
    32    32    33   ar
    33    33    34   ar
    34    34    35   ar
    35    35    36   ar
    36     6     1   ar
    37    12     7   ar
    38    36    31   ar
