@<TRIPOS>MOLECULE
*****
 24 25 0 0 0
SMALL
GASTEIGER

@<TRIPOS>ATOM
      1 C          -9.3881  -19.4563   21.5778 C.ar    1  UNL1        0.0503
      2 C          -8.3318  -19.6196   22.6302 C.ar    1  UNL1        0.0148
      3 C          -6.8829  -19.6361   22.2424 C.ar    1  UNL1        0.0058
      4 C          -6.4903  -19.4893   20.8022 C.ar    1  UNL1        0.0538
      5 C          -7.5465  -19.3260   19.7498 C.ar    1  UNL1        0.0058
      6 C          -8.9954  -19.3095   20.1376 C.ar    1  UNL1        0.0148
      7 C         -11.4855  -18.1552   22.3888 C.2     1  UNL1        0.2261
      8 O         -10.6852  -16.8870   22.4242 O.2     1  UNL1       -0.2748
      9 N         -10.8370  -19.4398   21.9656 N.am    1  UNL1       -0.2839
     10 H         -11.3623  -20.2721   21.9423 H       1  UNL1        0.1549
     11 C         -12.9345  -18.1387   22.7766 C.3     1  UNL1        0.0854
     12 C         -14.7669  -18.1178   23.8450 C.3     1  UNL1        0.0005
     13 C         -13.3302  -18.3507   24.2079 C.3     1  UNL1        0.0086
     14 C         -11.8936  -18.5835   24.5707 C.3     1  UNL1        0.0005
     15 C         -13.7260  -18.5626   25.6390 C.3     1  UNL1        0.0005
     16 C          -5.0414  -19.5058   20.4144 C.2     1  UNL1        0.2509
     17 O          -4.4497  -20.7274   19.7759 O.2     1  UNL1       -0.2698
     18 N          -4.1841  -18.3008   20.6651 N.am    1  UNL1       -0.2606
     19 H          -4.5724  -17.4990   21.0842 H       1  UNL1        0.1571
     20 C          -2.7352  -18.3173   20.2773 C.ar    1  UNL1        0.1658
     21 N          -1.6075  -18.8617   21.1032 N.ar    1  UNL1       -0.2224
     22 C          -0.3349  -18.6732   20.3319 C.ar    1  UNL1        0.1079
     23 C          -0.6760  -18.0122   19.0292 C.ar    1  UNL1        0.0588
     24 S          -2.1595  -17.7923   18.9955 S.2     1  UNL1       -0.0508
@<TRIPOS>BOND
     1    12    13    1
     2    13    14    1
     3    13    15    1
     4    13    11    1
     5    11     7    1
     6     7     8    2
     7     7     9   am
     8     9     1    1
     9     1     2   ar
    10     2     3   ar
    11     3     4   ar
    12     4    16    1
    13    16    17    2
    14    16    18   am
    15    18    20    1
    16    20    21   ar
    17    21    22   ar
    18    22    23   ar
    19    23    24   ar
    20     4     5   ar
    21     5     6   ar
    22     6     1   ar
    23    24    20   ar
    24     9    10    1
    25    18    19    1
@<TRIPOS>MOLECULE
*****
 24 25 0 0 0
SMALL
GASTEIGER

@<TRIPOS>ATOM
      1 C          -8.0607  -18.9990   22.0658 C.ar    1  UNL1        0.0503
      2 C          -7.1993  -17.9482   22.7012 C.ar    1  UNL1        0.0148
      3 C          -5.7184  -17.9476   22.4630 C.ar    1  UNL1        0.0058
      4 C          -5.0988  -18.9977   21.5895 C.ar    1  UNL1        0.0538
      5 C          -5.9601  -20.0485   20.9540 C.ar    1  UNL1        0.0058
      6 C          -7.4411  -20.0491   21.1922 C.ar    1  UNL1        0.0148
      7 C         -10.4757  -18.5473   21.2209 C.2     1  UNL1        0.2261
      8 O          -9.9287  -18.0944   19.8996 O.2     1  UNL1       -0.2748
      9 N          -9.5417  -18.9996   22.3039 N.am    1  UNL1       -0.2839
     10 H          -9.9007  -19.2969   23.1711 H       1  UNL1        0.1549
     11 C         -11.9566  -18.5480   21.4590 C.3     1  UNL1        0.0854
     12 C         -12.4875  -16.5636   20.9295 C.3     1  UNL1        0.0005
     13 C         -12.6022  -17.3966   22.1716 C.3     1  UNL1        0.0086
     14 C         -12.7168  -18.2296   23.4138 C.3     1  UNL1        0.0005
     15 C         -13.2477  -16.2452   22.8841 C.3     1  UNL1        0.0005
     16 C          -3.6178  -18.9971   21.3513 C.2     1  UNL1        0.2509
     17 O          -2.7697  -20.1067   21.8985 O.2     1  UNL1       -0.2698
     18 N          -2.9849  -17.8869   20.5659 N.am    1  UNL1       -0.2606
     19 H          -3.5416  -17.1586   20.2068 H       1  UNL1        0.1571
     20 C          -1.5039  -17.8863   20.3278 C.ar    1  UNL1        0.1658
     21 N          -0.6739  -19.0716   19.9330 N.ar    1  UNL1       -0.2224
     22 C           0.7501  -18.6181   19.8038 C.ar    1  UNL1        0.1079
     23 C           0.8001  -17.1524   20.1187 C.ar    1  UNL1        0.0588
     24 S          -0.5930  -16.7000   20.4426 S.2     1  UNL1       -0.0508
@<TRIPOS>BOND
     1    12    13    1
     2    13    14    1
     3    13    15    1
     4    13    11    1
     5    11     7    1
     6     7     8    2
     7     7     9   am
     8     9     1    1
     9     1     2   ar
    10     2     3   ar
    11     3     4   ar
    12     4    16    1
    13    16    17    2
    14    16    18   am
    15    18    20    1
    16    20    21   ar
    17    21    22   ar
    18    22    23   ar
    19    23    24   ar
    20     4     5   ar
    21     5     6   ar
    22     6     1   ar
    23    24    20   ar
    24     9    10    1
    25    18    19    1
@<TRIPOS>MOLECULE
*****
 24 25 0 0 0
SMALL
GASTEIGER

@<TRIPOS>ATOM
      1 C          -5.4886  -18.7418   22.1297 C.ar    1  UNL1        0.0503
      2 C          -6.5653  -19.7735   21.9683 C.ar    1  UNL1        0.0148
      3 C          -7.9629  -19.4770   22.4252 C.ar    1  UNL1        0.0058
      4 C          -8.2838  -18.1486   23.0437 C.ar    1  UNL1        0.0538
      5 C          -7.2071  -17.1169   23.2051 C.ar    1  UNL1        0.0058
      6 C          -5.8095  -17.4134   22.7482 C.ar    1  UNL1        0.0148
      7 C          -3.7354  -18.9183   20.2205 C.2     1  UNL1        0.2261
      8 O          -4.7775  -18.5017   19.2251 O.2     1  UNL1       -0.2748
      9 N          -4.0910  -19.0383   21.6728 N.am    1  UNL1       -0.2839
     10 H          -3.4071  -19.3118   22.3260 H       1  UNL1        0.1549
     11 C          -2.3379  -19.2149   19.7635 C.3     1  UNL1        0.0854
     12 C          -0.9857  -18.6165   21.2845 C.3     1  UNL1        0.0005
     13 C          -1.2715  -18.1666   19.8825 C.3     1  UNL1        0.0086
     14 C          -1.5574  -17.7166   18.4804 C.3     1  UNL1        0.0005
     15 C          -0.2053  -17.1183   20.0014 C.3     1  UNL1        0.0005
     16 C          -9.6813  -17.8521   23.5006 C.2     1  UNL1        0.2509
     17 O         -10.0406  -16.4731   23.9687 O.2     1  UNL1       -0.2698
     18 N         -10.7196  -18.9345   23.4895 N.am    1  UNL1       -0.2606
     19 H         -10.4838  -19.8396   23.1823 H       1  UNL1        0.1571
     20 C         -12.1172  -18.6380   23.9465 C.ar    1  UNL1        0.1658
     21 N         -12.6701  -18.8955   25.3169 N.ar    1  UNL1       -0.2224
     22 C         -14.1019  -18.4485   25.3306 C.ar    1  UNL1        0.1079
     23 C         -14.4339  -17.9146   23.9687 C.ar    1  UNL1        0.0588
     24 S         -13.2073  -18.0317   23.1132 S.2     1  UNL1       -0.0508
@<TRIPOS>BOND
     1    12    13    1
     2    13    14    1
     3    13    15    1
     4    13    11    1
     5    11     7    1
     6     7     8    2
     7     7     9   am
     8     9     1    1
     9     1     2   ar
    10     2     3   ar
    11     3     4   ar
    12     4    16    1
    13    16    17    2
    14    16    18   am
    15    18    20    1
    16    20    21   ar
    17    21    22   ar
    18    22    23   ar
    19    23    24   ar
    20     4     5   ar
    21     5     6   ar
    22     6     1   ar
    23    24    20   ar
    24     9    10    1
    25    18    19    1
@<TRIPOS>MOLECULE
*****
 24 25 0 0 0
SMALL
GASTEIGER

@<TRIPOS>ATOM
      1 C          -5.9387  -18.6487   22.0168 C.ar    1  UNL1        0.0503
      2 C          -6.6670  -19.9139   21.6725 C.ar    1  UNL1        0.0148
      3 C          -8.1180  -20.0631   22.0225 C.ar    1  UNL1        0.0058
      4 C          -8.8406  -18.9470   22.7168 C.ar    1  UNL1        0.0538
      5 C          -8.1123  -17.6817   23.0611 C.ar    1  UNL1        0.0058
      6 C          -6.6613  -17.5326   22.7111 C.ar    1  UNL1        0.0148
      7 C          -3.4744  -18.2741   22.7495 C.2     1  UNL1        0.2261
      8 O          -3.9120  -18.1979   24.1823 O.2     1  UNL1       -0.2748
      9 N          -4.4878  -18.4995   21.6668 N.am    1  UNL1       -0.2839
     10 H          -4.2006  -18.5495   20.7265 H       1  UNL1        0.1549
     11 C          -2.0234  -18.1250   22.3995 C.3     1  UNL1        0.0854
     12 C          -1.7055  -16.2956   21.3737 C.3     1  UNL1        0.0005
     13 C          -1.6236  -17.7470   21.0040 C.3     1  UNL1        0.0086
     14 C          -1.5417  -19.1983   20.6343 C.3     1  UNL1        0.0005
     15 C          -1.2237  -17.3689   19.6086 C.3     1  UNL1        0.0005
     16 C         -10.2915  -19.0961   23.0668 C.2     1  UNL1        0.2509
     17 O         -11.0521  -20.3066   22.6125 O.2     1  UNL1       -0.2698
     18 N         -10.9820  -18.0349   23.8711 N.am    1  UNL1       -0.2606
     19 H         -10.4828  -17.2404   24.1693 H       1  UNL1        0.1571
     20 C         -12.4329  -18.1840   24.2211 C.ar    1  UNL1        0.1658
     21 N         -12.9788  -18.6525   25.5374 N.ar    1  UNL1       -0.2224
     22 C         -14.4760  -18.6489   25.4461 C.ar    1  UNL1        0.1079
     23 C         -14.8555  -18.1782   24.0734 C.ar    1  UNL1        0.0588
     24 S         -13.5929  -17.8909   23.3162 S.2     1  UNL1       -0.0508
@<TRIPOS>BOND
     1    12    13    1
     2    13    14    1
     3    13    15    1
     4    13    11    1
     5    11     7    1
     6     7     8    2
     7     7     9   am
     8     9     1    1
     9     1     2   ar
    10     2     3   ar
    11     3     4   ar
    12     4    16    1
    13    16    17    2
    14    16    18   am
    15    18    20    1
    16    20    21   ar
    17    21    22   ar
    18    22    23   ar
    19    23    24   ar
    20     4     5   ar
    21     5     6   ar
    22     6     1   ar
    23    24    20   ar
    24     9    10    1
    25    18    19    1
@<TRIPOS>MOLECULE
*****
 24 25 0 0 0
SMALL
GASTEIGER

@<TRIPOS>ATOM
      1 C          -8.3586  -19.3703   22.7465 C.ar    1  UNL1        0.0503
      2 C          -7.5727  -20.6072   22.4265 C.ar    1  UNL1        0.0148
      3 C          -6.1267  -20.4986   22.0426 C.ar    1  UNL1        0.0058
      4 C          -5.4667  -19.1531   21.9787 C.ar    1  UNL1        0.0538
      5 C          -6.2527  -17.9163   22.2988 C.ar    1  UNL1        0.0058
      6 C          -7.6986  -18.0249   22.6827 C.ar    1  UNL1        0.0148
      7 C         -10.3041  -18.8005   24.3714 C.2     1  UNL1        0.2261
      8 O          -9.3576  -18.0134   25.2286 O.2     1  UNL1       -0.2748
      9 N          -9.8046  -19.4790   23.1304 N.am    1  UNL1       -0.2839
     10 H         -10.4258  -19.9956   22.5679 H       1  UNL1        0.1549
     11 C         -11.7501  -18.9091   24.7553 C.3     1  UNL1        0.0854
     12 C         -11.7515  -17.7421   22.9839 C.3     1  UNL1        0.0005
     13 C         -12.7887  -18.1435   23.9903 C.3     1  UNL1        0.0086
     14 C         -13.8260  -18.5448   24.9968 C.3     1  UNL1        0.0005
     15 C         -13.8273  -17.3779   23.2254 C.3     1  UNL1        0.0005
     16 C          -4.0207  -19.0445   21.5948 C.2     1  UNL1        0.2509
     17 O          -3.0366  -20.0663   22.0820 O.2     1  UNL1       -0.2698
     18 N          -3.5589  -17.9140   20.7238 N.am    1  UNL1       -0.2606
     19 H          -4.2048  -17.2434   20.4041 H       1  UNL1        0.1571
     20 C          -2.1129  -17.8054   20.3399 C.ar    1  UNL1        0.1658
     21 N          -1.3540  -18.7720   19.4798 N.ar    1  UNL1       -0.2224
     22 C           0.0560  -18.2751   19.3570 C.ar    1  UNL1        0.1079
     23 C           0.1685  -17.0015   20.1413 C.ar    1  UNL1        0.0588
     24 S          -1.1719  -16.7111   20.7489 S.2     1  UNL1       -0.0508
@<TRIPOS>BOND
     1    12    13    1
     2    13    14    1
     3    13    15    1
     4    13    11    1
     5    11     7    1
     6     7     8    2
     7     7     9   am
     8     9     1    1
     9     1     2   ar
    10     2     3   ar
    11     3     4   ar
    12     4    16    1
    13    16    17    2
    14    16    18   am
    15    18    20    1
    16    20    21   ar
    17    21    22   ar
    18    22    23   ar
    19    23    24   ar
    20     4     5   ar
    21     5     6   ar
    22     6     1   ar
    23    24    20   ar
    24     9    10    1
    25    18    19    1
@<TRIPOS>MOLECULE
*****
 24 25 0 0 0
SMALL
GASTEIGER

@<TRIPOS>ATOM
      1 C          -8.2103  -17.4958   23.1022 C.ar    1  UNL1        0.0503
      2 C          -7.7132  -18.6756   22.3205 C.ar    1  UNL1        0.0148
      3 C          -6.2480  -18.8227   22.0351 C.ar    1  UNL1        0.0058
      4 C          -5.2799  -17.7900   22.5314 C.ar    1  UNL1        0.0538
      5 C          -5.7770  -16.6103   23.3131 C.ar    1  UNL1        0.0058
      6 C          -7.2422  -16.4632   23.5985 C.ar    1  UNL1        0.0148
      7 C         -10.5221  -16.4600   22.5254 C.2     1  UNL1        0.2261
      8 O          -9.9034  -15.7183   21.3777 O.2     1  UNL1       -0.2748
      9 N          -9.6756  -17.3488   23.3876 N.am    1  UNL1       -0.2839
     10 H         -10.0817  -17.8356   24.1408 H       1  UNL1        0.1549
     11 C         -11.9873  -16.3129   22.8108 C.3     1  UNL1        0.0854
     12 C         -13.3276  -17.6019   23.8316 C.3     1  UNL1        0.0005
     13 C         -12.9440  -17.3916   22.3968 C.3     1  UNL1        0.0086
     14 C         -12.5605  -17.1812   20.9621 C.3     1  UNL1        0.0005
     15 C         -13.9007  -18.4702   21.9829 C.3     1  UNL1        0.0005
     16 C          -3.8146  -17.9371   22.2461 C.2     1  UNL1        0.2509
     17 O          -2.8715  -18.3245   23.3462 O.2     1  UNL1       -0.2698
     18 N          -3.2926  -17.6968   20.8606 N.am    1  UNL1       -0.2606
     19 H          -3.9116  -17.4425   20.1385 H       1  UNL1        0.1571
     20 C          -1.8273  -17.8439   20.5752 C.ar    1  UNL1        0.1658
     21 N          -1.0703  -19.1363   20.4937 N.ar    1  UNL1       -0.2224
     22 C           0.3630  -18.8155   20.1893 C.ar    1  UNL1        0.1079
     23 C           0.4919  -17.3249   20.0827 C.ar    1  UNL1        0.0588
     24 S          -0.8618  -16.7243   20.3212 S.2     1  UNL1       -0.0508
@<TRIPOS>BOND
     1    12    13    1
     2    13    14    1
     3    13    15    1
     4    13    11    1
     5    11     7    1
     6     7     8    2
     7     7     9   am
     8     9     1    1
     9     1     2   ar
    10     2     3   ar
    11     3     4   ar
    12     4    16    1
    13    16    17    2
    14    16    18   am
    15    18    20    1
    16    20    21   ar
    17    21    22   ar
    18    22    23   ar
    19    23    24   ar
    20     4     5   ar
    21     5     6   ar
    22     6     1   ar
    23    24    20   ar
    24     9    10    1
    25    18    19    1
@<TRIPOS>MOLECULE
*****
 24 25 0 0 0
SMALL
GASTEIGER

@<TRIPOS>ATOM
      1 C           2.7503    0.0727   19.4606 C.ar    1  UNL1        0.0503
      2 C           2.8499    1.4669   18.9163 C.ar    1  UNL1        0.0148
      3 C           1.6758    2.3955   19.0130 C.ar    1  UNL1        0.0058
      4 C           0.4022    1.9298   19.6540 C.ar    1  UNL1        0.0538
      5 C           0.3026    0.5357   20.1983 C.ar    1  UNL1        0.0058
      6 C           1.4766   -0.3929   20.1016 C.ar    1  UNL1        0.0148
      7 C           4.3396   -1.4035   18.0306 C.2     1  UNL1        0.2261
      8 O           3.5808   -1.0226   16.7940 O.2     1  UNL1       -0.2748
      9 N           3.9243   -0.8559   19.3639 N.am    1  UNL1       -0.2839
     10 H           4.4224   -1.1059   20.1755 H       1  UNL1        0.1549
     11 C           5.5137   -2.3321   17.9339 C.3     1  UNL1        0.0854
     12 C           4.7655   -4.1055   18.8255 C.3     1  UNL1        0.0005
     13 C           5.9042   -3.1726   19.1133 C.3     1  UNL1        0.0086
     14 C           7.0430   -2.2398   19.4012 C.3     1  UNL1        0.0005
     15 C           6.2947   -4.0132   20.2927 C.3     1  UNL1        0.0005
     16 C          -0.7719    2.8584   19.7507 C.2     1  UNL1        0.2509
     17 O          -0.8258    4.0907   18.8972 O.2     1  UNL1       -0.2698
     18 N          -1.8920    2.5547   20.7009 N.am    1  UNL1       -0.2606
     19 H          -1.8567    1.7459   21.2611 H       1  UNL1        0.1571
     20 C          -3.0661    3.4833   20.7976 C.ar    1  UNL1        0.1658
     21 N          -4.2213    3.5464   19.8429 N.ar    1  UNL1       -0.2224
     22 C          -5.1603    4.6139   20.3212 C.ar    1  UNL1        0.1079
     23 C          -4.5854    5.2105   21.5717 C.ar    1  UNL1        0.0588
     24 S          -3.2911    4.5118   21.8661 S.2     1  UNL1       -0.0508
@<TRIPOS>BOND
     1    12    13    1
     2    13    14    1
     3    13    15    1
     4    13    11    1
     5    11     7    1
     6     7     8    2
     7     7     9   am
     8     9     1    1
     9     1     2   ar
    10     2     3   ar
    11     3     4   ar
    12     4    16    1
    13    16    17    2
    14    16    18   am
    15    18    20    1
    16    20    21   ar
    17    21    22   ar
    18    22    23   ar
    19    23    24   ar
    20     4     5   ar
    21     5     6   ar
    22     6     1   ar
    23    24    20   ar
    24     9    10    1
    25    18    19    1
@<TRIPOS>MOLECULE
*****
 24 25 0 0 0
SMALL
GASTEIGER

@<TRIPOS>ATOM
      1 C           6.2744   -3.2512   22.6389 C.ar    1  UNL1        0.0503
      2 C           7.1653   -4.4155   22.9560 C.ar    1  UNL1        0.0148
      3 C           7.5052   -4.7332   24.3820 C.ar    1  UNL1        0.0058
      4 C           6.9541   -3.8868   25.4909 C.ar    1  UNL1        0.0538
      5 C           6.0631   -2.7225   25.1738 C.ar    1  UNL1        0.0058
      6 C           5.7233   -2.4047   23.7478 C.ar    1  UNL1        0.0148
      7 C           4.8834   -3.7289   20.4972 C.2     1  UNL1        0.2261
      8 O           4.1721   -4.8423   21.2075 O.2     1  UNL1       -0.2748
      9 N           5.9345   -2.9334   21.2129 N.am    1  UNL1       -0.2839
     10 H           6.4014   -2.2027   20.7467 H       1  UNL1        0.1549
     11 C           4.5436   -3.4111   19.0711 C.3     1  UNL1        0.0854
     12 C           2.9608   -2.0967   19.5878 C.3     1  UNL1        0.0005
     13 C           4.1564   -2.0141   18.6858 C.3     1  UNL1        0.0086
     14 C           5.3521   -1.9314   17.7839 C.3     1  UNL1        0.0005
     15 C           3.7693   -0.6171   18.3006 C.3     1  UNL1        0.0005
     16 C           7.2939   -4.2046   26.9169 C.2     1  UNL1        0.2509
     17 O           8.7005   -4.5687   27.2895 O.2     1  UNL1       -0.2698
     18 N           6.2272   -4.1581   27.9704 N.am    1  UNL1       -0.2606
     19 H           5.3039   -3.9191   27.7259 H       1  UNL1        0.1571
     20 C           6.5670   -4.4759   29.3964 C.ar    1  UNL1        0.1658
     21 N           6.8304   -5.8422   29.9566 N.ar    1  UNL1       -0.2224
     22 C           7.1293   -5.6940   31.4190 C.ar    1  UNL1        0.1079
     23 C           7.0506   -4.2360   31.7627 C.ar    1  UNL1        0.0588
     24 S           6.7031   -3.4831   30.5127 S.2     1  UNL1       -0.0508
@<TRIPOS>BOND
     1    12    13    1
     2    13    14    1
     3    13    15    1
     4    13    11    1
     5    11     7    1
     6     7     8    2
     7     7     9   am
     8     9     1    1
     9     1     2   ar
    10     2     3   ar
    11     3     4   ar
    12     4    16    1
    13    16    17    2
    14    16    18   am
    15    18    20    1
    16    20    21   ar
    17    21    22   ar
    18    22    23   ar
    19    23    24   ar
    20     4     5   ar
    21     5     6   ar
    22     6     1   ar
    23    24    20   ar
    24     9    10    1
    25    18    19    1
@<TRIPOS>MOLECULE
*****
 24 25 0 0 0
SMALL
GASTEIGER

@<TRIPOS>ATOM
      1 C           4.7948   -2.3253   20.3628 C.ar    1  UNL1        0.0503
      2 C           6.2384   -2.7207   20.2646 C.ar    1  UNL1        0.0148
      3 C           6.8867   -3.4777   21.3857 C.ar    1  UNL1        0.0058
      4 C           6.0913   -3.8392   22.6050 C.ar    1  UNL1        0.0538
      5 C           4.6477   -3.4438   22.7031 C.ar    1  UNL1        0.0058
      6 C           3.9995   -2.6869   21.5820 C.ar    1  UNL1        0.0148
      7 C           3.9321   -0.0887   19.3613 C.2     1  UNL1        0.2261
      8 O           4.3658    0.6342   20.6021 O.2     1  UNL1       -0.2748
      9 N           4.1466   -1.5684   19.2417 N.am    1  UNL1       -0.2839
     10 H           3.8619   -2.0428   18.4273 H       1  UNL1        0.1549
     11 C           3.2838    0.6682   18.2402 C.3     1  UNL1        0.0854
     12 C           3.0802    2.7762   18.3622 C.3     1  UNL1        0.0005
     13 C           2.1518    1.6097   18.5270 C.3     1  UNL1        0.0086
     14 C           1.2233    0.4432   18.6918 C.3     1  UNL1        0.0005
     15 C           1.0198    2.5512   18.8137 C.3     1  UNL1        0.0005
     16 C           6.7396   -4.5961   23.7260 C.2     1  UNL1        0.2509
     17 O           7.6787   -5.7259   23.4237 O.2     1  UNL1       -0.2698
     18 N           6.4486   -4.2233   25.1495 N.am    1  UNL1       -0.2606
     19 H           5.8322   -3.4817   25.3480 H       1  UNL1        0.1571
     20 C           7.0968   -4.9802   26.2706 C.ar    1  UNL1        0.1658
     21 N           6.6317   -6.2898   26.8350 N.ar    1  UNL1       -0.2224
     22 C           7.5714   -6.6794   27.9374 C.ar    1  UNL1        0.1079
     23 C           8.6174   -5.6106   28.0542 C.ar    1  UNL1        0.0588
     24 S           8.3241   -4.5604   27.0241 S.2     1  UNL1       -0.0508
@<TRIPOS>BOND
     1    12    13    1
     2    13    14    1
     3    13    15    1
     4    13    11    1
     5    11     7    1
     6     7     8    2
     7     7     9   am
     8     9     1    1
     9     1     2   ar
    10     2     3   ar
    11     3     4   ar
    12     4    16    1
    13    16    17    2
    14    16    18   am
    15    18    20    1
    16    20    21   ar
    17    21    22   ar
    18    22    23   ar
    19    23    24   ar
    20     4     5   ar
    21     5     6   ar
    22     6     1   ar
    23    24    20   ar
    24     9    10    1
    25    18    19    1
