@<TRIPOS>MOLECULE
*****
 35 39 0 0 0
SMALL
GASTEIGER

@<TRIPOS>ATOM
      1 O           7.1948   -0.5082   22.5284 O.2     1  UNL1       -0.2728
      2 C           7.0315   -1.6105   23.5324 C.2     1  UNL1        0.2488
      3 N           7.7710   -1.5531   24.8362 N.am    1  UNL1       -0.2779
      4 C           8.6739   -0.3934   25.1359 C.3     1  UNL1        0.0935
      5 C           9.4134   -0.3361   26.4397 C.3     1  UNL1        0.0219
      6 C           9.2500   -1.4384   27.4437 C.3     1  UNL1        0.0078
      7 C           8.3472   -2.5982   27.1440 C.3     1  UNL1        0.0419
      8 C           7.6077   -2.6555   25.8403 C.3     1  UNL1        0.0953
      9 C           8.1838   -3.7005   28.1480 C.ar    1  UNL1       -0.0209
     10 C           6.9467   -3.7676   28.9936 C.ar    1  UNL1       -0.0042
     11 C           6.7834   -4.8700   29.9977 C.ar    1  UNL1       -0.0003
     12 C           7.8571   -5.9053   30.1561 C.ar    1  UNL1       -0.0000
     13 C           9.0942   -5.8382   29.3105 C.ar    1  UNL1       -0.0003
     14 C           9.2576   -4.7359   28.3065 C.ar    1  UNL1       -0.0042
     15 C           6.1287   -2.7703   23.2327 C.3     1  UNL1        0.1943
     16 N           5.4647   -2.8769   21.8918 N.ar    1  UNL1       -0.2839
     17 C           6.0295   -3.7916   20.8458 C.ar    1  UNL1        0.2806
     18 O           7.2583   -4.5997   21.1406 O.2     1  UNL1       -0.2652
     19 C           5.3655   -3.8982   19.5051 C.ar    1  UNL1        0.1595
     20 N           4.1366   -3.0901   19.2103 N.ar    1  UNL1       -0.2374
     21 C           3.5718   -2.1754   20.2563 C.ar    1  UNL1        0.0982
     22 C           2.3429   -1.3673   19.9616 C.ar    1  UNL1        0.0328
     23 C           1.7781   -0.4525   21.0076 C.ar    1  UNL1        0.0698
     24 CL          0.5493    0.3556   20.7129 Cl      1  UNL1       -0.0813
     25 C           2.4421   -0.3459   22.3485 C.ar    1  UNL1        0.0697
     26 CL          1.8773    0.5688   23.3945 Cl      1  UNL1       -0.0813
     27 C           3.6710   -1.1540   22.6432 C.ar    1  UNL1        0.0310
     28 C           4.2358   -2.0688   21.5971 C.ar    1  UNL1        0.0815
     29 C           6.7048   -3.8153   25.5405 C.3     1  UNL1        0.0926
     30 N           7.2804   -5.1904   25.3740 N.3     1  UNL1       -0.2670
     31 C           8.3386   -5.4404   24.3407 C.3     1  UNL1        0.1047
     32 C           8.9143   -6.8155   24.1742 C.3     1  UNL1        0.1595
     33 O           8.4317   -7.9406   25.0409 O.3     1  UNL1       -0.3508
     34 C           7.3734   -7.6906   26.0742 C.3     1  UNL1        0.1595
     35 C           6.7978   -6.3155   26.2407 C.3     1  UNL1        0.1047
@<TRIPOS>BOND
     1     1     2    2
     2     2    15    1
     3    15    16    1
     4    16    17   ar
     5    17    18    2
     6    17    19   ar
     7    19    20   ar
     8    20    21   ar
     9    21    22   ar
    10    22    23   ar
    11    23    24    1
    12    23    25   ar
    13    25    26    1
    14    25    27   ar
    15    27    28   ar
    16     2     3   am
    17     3     4    1
    18     4     5    1
    19     5     6    1
    20     6     7    1
    21     7     9    1
    22     9    10   ar
    23    10    11   ar
    24    11    12   ar
    25    12    13   ar
    26    13    14   ar
    27     7     8    1
    28     8    29    1
    29    29    30    1
    30    30    31    1
    31    31    32    1
    32    32    33    1
    33    33    34    1
    34    34    35    1
    35    28    16   ar
    36     8     3    1
    37    35    30    1
    38    28    21   ar
    39    14     9   ar
@<TRIPOS>MOLECULE
*****
 35 39 0 0 0
SMALL
GASTEIGER

@<TRIPOS>ATOM
      1 O           8.0852   -1.7569   24.6179 O.2     1  UNL1       -0.2728
      2 C           6.8910   -1.7833   23.7105 C.2     1  UNL1        0.2488
      3 N           6.1971   -0.5042   23.3466 N.am    1  UNL1       -0.2779
      4 C           6.6974    0.8013   23.8900 C.3     1  UNL1        0.0935
      5 C           6.0036    2.0804   23.5260 C.3     1  UNL1        0.0219
      6 C           4.8094    2.0540   22.6187 C.3     1  UNL1        0.0078
      7 C           4.3091    0.7485   22.0754 C.3     1  UNL1        0.0419
      8 C           5.0029   -0.5306   22.4393 C.3     1  UNL1        0.0953
      9 C           3.1149    0.7220   21.1680 C.ar    1  UNL1       -0.0209
     10 C           3.2592    1.1119   19.7268 C.ar    1  UNL1       -0.0042
     11 C           2.0650    1.0854   18.8195 C.ar    1  UNL1       -0.0003
     12 C           0.7265    0.6692   19.3534 C.ar    1  UNL1       -0.0000
     13 C           0.5822    0.2793   20.7946 C.ar    1  UNL1       -0.0003
     14 C           1.7764    0.3058   21.7019 C.ar    1  UNL1       -0.0042
     15 C           6.3907   -3.0888   23.1672 C.3     1  UNL1        0.1943
     16 N           7.3075   -4.2742   23.1003 N.ar    1  UNL1       -0.2839
     17 C           8.0555   -4.5734   21.8351 C.ar    1  UNL1        0.2806
     18 O           7.8866   -3.6873   20.6366 O.2     1  UNL1       -0.2652
     19 C           8.9723   -5.7587   21.7683 C.ar    1  UNL1        0.1595
     20 N           9.1412   -6.6447   22.9668 N.ar    1  UNL1       -0.2374
     21 C           8.3932   -6.3455   24.2321 C.ar    1  UNL1        0.0982
     22 C           8.5621   -7.2315   25.4306 C.ar    1  UNL1        0.0328
     23 C           7.8142   -6.9323   26.6958 C.ar    1  UNL1        0.0698
     24 CL          7.9830   -7.8183   27.8943 Cl      1  UNL1       -0.0813
     25 C           6.8973   -5.7470   26.7627 C.ar    1  UNL1        0.0697
     26 CL          6.1493   -5.4477   28.0279 Cl      1  UNL1       -0.0813
     27 C           6.7284   -4.8609   25.5642 C.ar    1  UNL1        0.0310
     28 C           7.4764   -5.1602   24.2988 C.ar    1  UNL1        0.0815
     29 C           4.5026   -1.8362   21.8959 C.3     1  UNL1        0.0926
     30 N           4.8620   -2.2551   20.5011 N.3     1  UNL1       -0.2670
     31 C           4.3602   -3.5598   19.9571 C.3     1  UNL1        0.1047
     32 C           4.7196   -3.9787   18.5623 C.3     1  UNL1        0.1595
     33 O           5.5807   -3.0929   17.7116 O.3     1  UNL1       -0.3508
     34 C           6.0825   -1.7881   18.2556 C.3     1  UNL1        0.1595
     35 C           5.7231   -1.3692   19.6504 C.3     1  UNL1        0.1047
@<TRIPOS>BOND
     1     1     2    2
     2     2    15    1
     3    15    16    1
     4    16    17   ar
     5    17    18    2
     6    17    19   ar
     7    19    20   ar
     8    20    21   ar
     9    21    22   ar
    10    22    23   ar
    11    23    24    1
    12    23    25   ar
    13    25    26    1
    14    25    27   ar
    15    27    28   ar
    16     2     3   am
    17     3     4    1
    18     4     5    1
    19     5     6    1
    20     6     7    1
    21     7     9    1
    22     9    10   ar
    23    10    11   ar
    24    11    12   ar
    25    12    13   ar
    26    13    14   ar
    27     7     8    1
    28     8    29    1
    29    29    30    1
    30    30    31    1
    31    31    32    1
    32    32    33    1
    33    33    34    1
    34    34    35    1
    35    28    16   ar
    36     8     3    1
    37    35    30    1
    38    28    21   ar
    39    14     9   ar
@<TRIPOS>MOLECULE
*****
 35 39 0 0 0
SMALL
GASTEIGER

@<TRIPOS>ATOM
      1 O           7.4989   -5.0235   21.9566 O.2     1  UNL1       -0.2728
      2 C           6.7082   -3.7599   21.7886 C.2     1  UNL1        0.2488
      3 N           5.5574   -3.7175   20.8274 N.am    1  UNL1       -0.2779
      4 C           5.1974   -4.9386   20.0341 C.3     1  UNL1        0.0935
      5 C           4.0466   -4.8960   19.0729 C.3     1  UNL1        0.0219
      6 C           3.2560   -3.6325   18.9050 C.3     1  UNL1        0.0078
      7 C           3.6160   -2.4114   19.6982 C.3     1  UNL1        0.0419
      8 C           4.7668   -2.4539   20.6594 C.3     1  UNL1        0.0953
      9 C           2.8254   -1.1478   19.5303 C.ar    1  UNL1       -0.0209
     10 C           1.6632   -0.8644   20.4353 C.ar    1  UNL1       -0.0042
     11 C           0.8725    0.3992   20.2673 C.ar    1  UNL1       -0.0003
     12 C           1.2440    1.3793   19.1944 C.ar    1  UNL1       -0.0000
     13 C           2.4062    1.0959   18.2894 C.ar    1  UNL1       -0.0003
     14 C           3.1968   -0.1676   18.4574 C.ar    1  UNL1       -0.0042
     15 C           7.0683   -2.5389   22.5819 C.3     1  UNL1        0.1943
     16 N           7.2093   -2.6276   24.0726 N.ar    1  UNL1       -0.2839
     17 C           8.4430   -3.2321   24.6747 C.ar    1  UNL1        0.2806
     18 O           9.5358   -3.7479   23.7860 O.2     1  UNL1       -0.2652
     19 C           8.5839   -3.3207   26.1654 C.ar    1  UNL1        0.1595
     20 N           7.4911   -2.8049   27.0540 N.ar    1  UNL1       -0.2374
     21 C           6.2574   -2.2003   26.4520 C.ar    1  UNL1        0.0982
     22 C           5.1647   -1.6845   27.3407 C.ar    1  UNL1        0.0328
     23 C           3.9310   -1.0800   26.7386 C.ar    1  UNL1        0.0698
     24 CL          2.8382   -0.5641   27.6273 Cl      1  UNL1       -0.0813
     25 C           3.7900   -0.9913   25.2479 C.ar    1  UNL1        0.0697
     26 CL          2.5563   -0.3868   24.6458 Cl      1  UNL1       -0.0813
     27 C           4.8828   -1.5071   24.3592 C.ar    1  UNL1        0.0310
     28 C           6.1165   -2.1117   24.9613 C.ar    1  UNL1        0.0815
     29 C           5.1269   -1.2328   21.4527 C.3     1  UNL1        0.0926
     30 N           5.7228   -0.0404   20.7649 N.3     1  UNL1       -0.2670
     31 C           6.7280   -0.2319   19.6682 C.3     1  UNL1        0.1047
     32 C           7.3238    0.9605   18.9803 C.3     1  UNL1        0.1595
     33 O           6.9146    2.3444   19.3893 O.3     1  UNL1       -0.3508
     34 C           5.9093    2.5360   20.4861 C.3     1  UNL1        0.1595
     35 C           5.3134    1.3436   21.1739 C.3     1  UNL1        0.1047
@<TRIPOS>BOND
     1     1     2    2
     2     2    15    1
     3    15    16    1
     4    16    17   ar
     5    17    18    2
     6    17    19   ar
     7    19    20   ar
     8    20    21   ar
     9    21    22   ar
    10    22    23   ar
    11    23    24    1
    12    23    25   ar
    13    25    26    1
    14    25    27   ar
    15    27    28   ar
    16     2     3   am
    17     3     4    1
    18     4     5    1
    19     5     6    1
    20     6     7    1
    21     7     9    1
    22     9    10   ar
    23    10    11   ar
    24    11    12   ar
    25    12    13   ar
    26    13    14   ar
    27     7     8    1
    28     8    29    1
    29    29    30    1
    30    30    31    1
    31    31    32    1
    32    32    33    1
    33    33    34    1
    34    34    35    1
    35    28    16   ar
    36     8     3    1
    37    35    30    1
    38    28    21   ar
    39    14     9   ar
@<TRIPOS>MOLECULE
*****
 35 39 0 0 0
SMALL
GASTEIGER

@<TRIPOS>ATOM
      1 O           5.6097    1.3105   24.6737 O.2     1  UNL1       -0.2728
      2 C           5.6631   -0.1707   24.4428 C.2     1  UNL1        0.2488
      3 N           6.9034   -0.9396   24.7899 N.am    1  UNL1       -0.2779
      4 C           8.0902   -0.2273   25.3679 C.3     1  UNL1        0.0935
      5 C           9.3305   -0.9963   25.7150 C.3     1  UNL1        0.0219
      6 C           9.3839   -2.4774   25.4841 C.3     1  UNL1        0.0078
      7 C           8.1971   -3.1897   24.9061 C.3     1  UNL1        0.0419
      8 C           6.9568   -2.4208   24.5590 C.3     1  UNL1        0.0953
      9 C           8.2505   -4.6708   24.6752 C.ar    1  UNL1       -0.0209
     10 C           7.7398   -5.6125   25.7252 C.ar    1  UNL1       -0.0042
     11 C           7.7932   -7.0936   25.4943 C.ar    1  UNL1       -0.0003
     12 C           8.3573   -7.6332   24.2135 C.ar    1  UNL1       -0.0000
     13 C           8.8679   -6.6915   23.1635 C.ar    1  UNL1       -0.0003
     14 C           8.8145   -5.2104   23.3944 C.ar    1  UNL1       -0.0042
     15 C           4.4762   -0.8829   23.8648 C.3     1  UNL1        0.1943
     16 N           3.1807   -0.1506   23.6761 N.ar    1  UNL1       -0.2839
     17 C           2.4263    0.3583   24.8684 C.ar    1  UNL1        0.2806
     18 O           2.9672    0.1350   26.2496 O.2     1  UNL1       -0.2652
     19 C           1.1309    1.0905   24.6797 C.ar    1  UNL1        0.1595
     20 N           0.5899    1.3139   23.2985 N.ar    1  UNL1       -0.2374
     21 C           1.3444    0.8049   22.1062 C.ar    1  UNL1        0.0982
     22 C           0.8034    1.0283   20.7251 C.ar    1  UNL1        0.0328
     23 C           1.5579    0.5193   19.5327 C.ar    1  UNL1        0.0698
     24 CL          1.0169    0.7427   18.1516 Cl      1  UNL1       -0.0813
     25 C           2.8534   -0.2130   19.7215 C.ar    1  UNL1        0.0697
     26 CL          3.6078   -0.7219   18.5291 Cl      1  UNL1       -0.0813
     27 C           3.3943   -0.4363   21.1026 C.ar    1  UNL1        0.0310
     28 C           2.6398    0.0727   22.2950 C.ar    1  UNL1        0.0815
     29 C           5.7699   -3.1330   23.9810 C.3     1  UNL1        0.0926
     30 N           5.6344   -3.2804   22.4944 N.3     1  UNL1       -0.2670
     31 C           6.7140   -2.7670   21.5884 C.3     1  UNL1        0.1047
     32 C           6.5785   -2.9143   20.1018 C.3     1  UNL1        0.1595
     33 O           5.3635   -3.5751   19.5213 O.3     1  UNL1       -0.3508
     34 C           4.2839   -4.0886   20.4273 C.3     1  UNL1        0.1595
     35 C           4.4193   -3.9412   21.9139 C.3     1  UNL1        0.1047
@<TRIPOS>BOND
     1     1     2    2
     2     2    15    1
     3    15    16    1
     4    16    17   ar
     5    17    18    2
     6    17    19   ar
     7    19    20   ar
     8    20    21   ar
     9    21    22   ar
    10    22    23   ar
    11    23    24    1
    12    23    25   ar
    13    25    26    1
    14    25    27   ar
    15    27    28   ar
    16     2     3   am
    17     3     4    1
    18     4     5    1
    19     5     6    1
    20     6     7    1
    21     7     9    1
    22     9    10   ar
    23    10    11   ar
    24    11    12   ar
    25    12    13   ar
    26    13    14   ar
    27     7     8    1
    28     8    29    1
    29    29    30    1
    30    30    31    1
    31    31    32    1
    32    32    33    1
    33    33    34    1
    34    34    35    1
    35    28    16   ar
    36     8     3    1
    37    35    30    1
    38    28    21   ar
    39    14     9   ar
@<TRIPOS>MOLECULE
*****
 35 39 0 0 0
SMALL
GASTEIGER

@<TRIPOS>ATOM
      1 O           1.9185    3.5545   20.4682 O.2     1  UNL1       -0.2728
      2 C           0.4257    3.4451   20.5669 C.2     1  UNL1        0.2488
      3 N          -0.4474    4.2415   19.6430 N.am    1  UNL1       -0.2779
      4 C           0.1722    5.1473   18.6205 C.3     1  UNL1        0.0935
      5 C          -0.7009    5.9436   17.6967 C.3     1  UNL1        0.0219
      6 C          -2.1936    5.8342   17.7954 C.3     1  UNL1        0.0078
      7 C          -2.8133    4.9284   18.8179 C.3     1  UNL1        0.0419
      8 C          -1.9401    4.1321   19.7417 C.3     1  UNL1        0.0953
      9 C          -4.3060    4.8190   18.9166 C.ar    1  UNL1       -0.0209
     10 C          -5.0050    3.6001   18.3918 C.ar    1  UNL1       -0.0042
     11 C          -6.4977    3.4906   18.4905 C.ar    1  UNL1       -0.0003
     12 C          -7.2915    4.6001   19.1141 C.ar    1  UNL1       -0.0000
     13 C          -6.5925    5.8191   19.6389 C.ar    1  UNL1       -0.0003
     14 C          -5.0997    5.9285   19.5402 C.ar    1  UNL1       -0.0042
     15 C          -0.1939    2.5393   21.5894 C.3     1  UNL1        0.1943
     16 N           0.6044    2.0937   22.7787 N.ar    1  UNL1       -0.2839
     17 C           0.4843    2.8287   24.0807 C.ar    1  UNL1        0.2806
     18 O          -0.4340    4.0094   24.1935 O.2     1  UNL1       -0.2652
     19 C           1.2825    2.3831   25.2699 C.ar    1  UNL1        0.1595
     20 N           2.2009    1.2024   25.1570 N.ar    1  UNL1       -0.2374
     21 C           2.3209    0.4674   23.8550 C.ar    1  UNL1        0.0982
     22 C           3.2392   -0.7133   23.7422 C.ar    1  UNL1        0.0328
     23 C           3.3593   -1.4483   22.4402 C.ar    1  UNL1        0.0698
     24 CL          4.2776   -2.6290   22.3273 Cl      1  UNL1       -0.0813
     25 C           2.5610   -1.0027   21.2509 C.ar    1  UNL1        0.0697
     26 CL          2.6811   -1.7377   19.9489 Cl      1  UNL1       -0.0813
     27 C           1.6427    0.1780   21.3637 C.ar    1  UNL1        0.0310
     28 C           1.5227    0.9130   22.6658 C.ar    1  UNL1        0.0815
     29 C          -2.5598    3.2262   20.7643 C.3     1  UNL1        0.0926
     30 N          -3.4718    3.7915   21.8125 N.3     1  UNL1       -0.2670
     31 C          -3.0872    5.0420   22.5461 C.3     1  UNL1        0.1047
     32 C          -3.9992    5.6072   23.5943 C.3     1  UNL1        0.1595
     33 O          -5.2959    4.9219   23.9089 O.3     1  UNL1       -0.3508
     34 C          -5.6806    3.6713   23.1753 C.3     1  UNL1        0.1595
     35 C          -4.7685    3.1061   22.1271 C.3     1  UNL1        0.1047
@<TRIPOS>BOND
     1     1     2    2
     2     2    15    1
     3    15    16    1
     4    16    17   ar
     5    17    18    2
     6    17    19   ar
     7    19    20   ar
     8    20    21   ar
     9    21    22   ar
    10    22    23   ar
    11    23    24    1
    12    23    25   ar
    13    25    26    1
    14    25    27   ar
    15    27    28   ar
    16     2     3   am
    17     3     4    1
    18     4     5    1
    19     5     6    1
    20     6     7    1
    21     7     9    1
    22     9    10   ar
    23    10    11   ar
    24    11    12   ar
    25    12    13   ar
    26    13    14   ar
    27     7     8    1
    28     8    29    1
    29    29    30    1
    30    30    31    1
    31    31    32    1
    32    32    33    1
    33    33    34    1
    34    34    35    1
    35    28    16   ar
    36     8     3    1
    37    35    30    1
    38    28    21   ar
    39    14     9   ar
@<TRIPOS>MOLECULE
*****
 35 39 0 0 0
SMALL
GASTEIGER

@<TRIPOS>ATOM
      1 O           3.2295   -1.6502   27.4420 O.2     1  UNL1       -0.2728
      2 C           3.5406   -0.7098   28.5684 C.2     1  UNL1        0.2488
      3 N           2.4416    0.0898   29.2032 N.am    1  UNL1       -0.2779
      4 C           1.0315   -0.0511   28.7115 C.3     1  UNL1        0.0935
      5 C          -0.0675    0.7485   29.3463 C.3     1  UNL1        0.0219
      6 C           0.2437    1.6888   30.4727 C.3     1  UNL1        0.0078
      7 C           1.6537    1.8297   30.9644 C.3     1  UNL1        0.0419
      8 C           2.7527    1.0301   30.3296 C.3     1  UNL1        0.0953
      9 C           1.9649    2.7700   32.0909 C.ar    1  UNL1       -0.0209
     10 C           2.3865    4.1792   31.7968 C.ar    1  UNL1       -0.0042
     11 C           2.6976    5.1195   32.9232 C.ar    1  UNL1       -0.0003
     12 C           2.5871    4.6508   34.3438 C.ar    1  UNL1       -0.0000
     13 C           2.1655    3.2417   34.6379 C.ar    1  UNL1       -0.0003
     14 C           1.8544    2.3013   33.5114 C.ar    1  UNL1       -0.0042
     15 C           4.9507   -0.5690   29.0601 C.3     1  UNL1        0.1943
     16 N           6.0628   -1.3003   28.3683 N.ar    1  UNL1       -0.2839
     17 C           6.5165   -0.8616   27.0076 C.ar    1  UNL1        0.2806
     18 O           5.8582    0.3084   26.3386 O.2     1  UNL1       -0.2652
     19 C           7.6285   -1.5929   26.3159 C.ar    1  UNL1        0.1595
     20 N           8.2868   -2.7630   26.9850 N.ar    1  UNL1       -0.2374
     21 C           7.8331   -3.2017   28.3457 C.ar    1  UNL1        0.0982
     22 C           8.4914   -4.3718   29.0147 C.ar    1  UNL1        0.0328
     23 C           8.0377   -4.8105   30.3754 C.ar    1  UNL1        0.0698
     24 CL          8.6960   -5.9805   31.0445 Cl      1  UNL1       -0.0813
     25 C           6.9256   -4.0791   31.0672 C.ar    1  UNL1        0.0697
     26 CL          6.4719   -4.5179   32.4279 Cl      1  UNL1       -0.0813
     27 C           6.2673   -2.9091   30.3982 C.ar    1  UNL1        0.0310
     28 C           6.7211   -2.4704   29.0374 C.ar    1  UNL1        0.0815
     29 C           4.1629    1.1709   30.8213 C.3     1  UNL1        0.0926
     30 N           4.5726    0.5348   32.1165 N.3     1  UNL1       -0.2670
     31 C           3.9596   -0.7672   32.5395 C.3     1  UNL1        0.1047
     32 C           4.3693   -1.4034   33.8347 C.3     1  UNL1        0.1595
     33 O           5.3920   -0.7376   34.7068 O.3     1  UNL1       -0.3508
     34 C           6.0051    0.5645   34.2838 C.3     1  UNL1        0.1595
     35 C           5.5954    1.2006   32.9886 C.3     1  UNL1        0.1047
@<TRIPOS>BOND
     1     1     2    2
     2     2    15    1
     3    15    16    1
     4    16    17   ar
     5    17    18    2
     6    17    19   ar
     7    19    20   ar
     8    20    21   ar
     9    21    22   ar
    10    22    23   ar
    11    23    24    1
    12    23    25   ar
    13    25    26    1
    14    25    27   ar
    15    27    28   ar
    16     2     3   am
    17     3     4    1
    18     4     5    1
    19     5     6    1
    20     6     7    1
    21     7     9    1
    22     9    10   ar
    23    10    11   ar
    24    11    12   ar
    25    12    13   ar
    26    13    14   ar
    27     7     8    1
    28     8    29    1
    29    29    30    1
    30    30    31    1
    31    31    32    1
    32    32    33    1
    33    33    34    1
    34    34    35    1
    35    28    16   ar
    36     8     3    1
    37    35    30    1
    38    28    21   ar
    39    14     9   ar
@<TRIPOS>MOLECULE
*****
 35 39 0 0 0
SMALL
GASTEIGER

@<TRIPOS>ATOM
      1 O           5.7319    1.5522   24.2119 O.2     1  UNL1       -0.2728
      2 C           4.8983    1.2489   25.4215 C.2     1  UNL1        0.2488
      3 N           4.8088    2.2449   26.5396 N.am    1  UNL1       -0.2779
      4 C           5.5529    3.5441   26.4480 C.3     1  UNL1        0.0935
      5 C           5.4633    4.5400   27.5660 C.3     1  UNL1        0.0219
      6 C           4.6298    4.2368   28.7757 C.3     1  UNL1        0.0078
      7 C           3.8857    2.9376   28.8672 C.3     1  UNL1        0.0419
      8 C           3.9753    1.9416   27.7492 C.3     1  UNL1        0.0953
      9 C           3.0522    2.6343   30.0769 C.ar    1  UNL1       -0.0209
     10 C           1.6898    3.2451   30.2212 C.ar    1  UNL1       -0.0042
     11 C           0.8562    2.9418   31.4309 C.ar    1  UNL1       -0.0003
     12 C           1.3850    2.0278   32.4961 C.ar    1  UNL1       -0.0000
     13 C           2.7474    1.4170   32.3517 C.ar    1  UNL1       -0.0003
     14 C           3.5809    1.7202   31.1421 C.ar    1  UNL1       -0.0042
     15 C           4.1543   -0.0503   25.5131 C.3     1  UNL1        0.1943
     16 N           4.8049   -1.3212   25.0531 N.ar    1  UNL1       -0.2839
     17 C           5.7439   -2.0553   25.9637 C.ar    1  UNL1        0.2806
     18 O           6.0325   -1.5185   27.3343 O.2     1  UNL1       -0.2652
     19 C           6.3945   -3.3262   25.5037 C.ar    1  UNL1        0.1595
     20 N           6.1059   -3.8630   24.1331 N.ar    1  UNL1       -0.2374
     21 C           5.1668   -3.1289   23.2225 C.ar    1  UNL1        0.0982
     22 C           4.8783   -3.6658   21.8519 C.ar    1  UNL1        0.0328
     23 C           3.9392   -2.9317   20.9413 C.ar    1  UNL1        0.0698
     24 CL          3.6506   -3.4685   19.5707 Cl      1  UNL1       -0.0813
     25 C           3.2886   -1.6608   21.4013 C.ar    1  UNL1        0.0697
     26 CL          2.3495   -0.9267   20.4906 Cl      1  UNL1       -0.0813
     27 C           3.5772   -1.1239   22.7719 C.ar    1  UNL1        0.0310
     28 C           4.5163   -1.8581   23.6825 C.ar    1  UNL1        0.0815
     29 C           3.2312    0.6424   27.8407 C.3     1  UNL1        0.0926
     30 N           1.7328    0.6395   27.9108 N.3     1  UNL1       -0.2670
     31 C           1.0311   -0.2129   28.9261 C.3     1  UNL1        0.1047
     32 C          -0.4673   -0.2158   28.9962 C.3     1  UNL1        0.1595
     33 O          -1.2639    0.6338   28.0510 O.3     1  UNL1       -0.3508
     34 C          -0.5622    1.4863   27.0356 C.3     1  UNL1        0.1595
     35 C           0.9362    1.4892   26.9655 C.3     1  UNL1        0.1047
@<TRIPOS>BOND
     1     1     2    2
     2     2    15    1
     3    15    16    1
     4    16    17   ar
     5    17    18    2
     6    17    19   ar
     7    19    20   ar
     8    20    21   ar
     9    21    22   ar
    10    22    23   ar
    11    23    24    1
    12    23    25   ar
    13    25    26    1
    14    25    27   ar
    15    27    28   ar
    16     2     3   am
    17     3     4    1
    18     4     5    1
    19     5     6    1
    20     6     7    1
    21     7     9    1
    22     9    10   ar
    23    10    11   ar
    24    11    12   ar
    25    12    13   ar
    26    13    14   ar
    27     7     8    1
    28     8    29    1
    29    29    30    1
    30    30    31    1
    31    31    32    1
    32    32    33    1
    33    33    34    1
    34    34    35    1
    35    28    16   ar
    36     8     3    1
    37    35    30    1
    38    28    21   ar
    39    14     9   ar
@<TRIPOS>MOLECULE
*****
 35 39 0 0 0
SMALL
GASTEIGER

@<TRIPOS>ATOM
      1 O           4.1676    2.5233   24.0561 O.2     1  UNL1       -0.2728
      2 C           2.7454    2.3658   24.5061 C.2     1  UNL1        0.2488
      3 N           1.7644    3.4809   24.2958 N.am    1  UNL1       -0.2779
      4 C           2.2056    4.7534   23.6355 C.3     1  UNL1        0.0935
      5 C           1.2245    5.8685   23.4252 C.3     1  UNL1        0.0219
      6 C          -0.1977    5.7110   23.8752 C.3     1  UNL1        0.0078
      7 C          -0.6389    4.4385   24.5355 C.3     1  UNL1        0.0419
      8 C           0.3421    3.3235   24.7458 C.3     1  UNL1        0.0953
      9 C          -2.0611    4.2810   24.9855 C.ar    1  UNL1       -0.0209
     10 C          -2.4587    4.6911   26.3725 C.ar    1  UNL1       -0.0042
     11 C          -3.8809    4.5336   26.8225 C.ar    1  UNL1       -0.0003
     12 C          -4.9055    3.9661   25.8855 C.ar    1  UNL1       -0.0000
     13 C          -4.5080    3.5560   24.4985 C.ar    1  UNL1       -0.0003
     14 C          -3.0857    3.7135   24.0485 C.ar    1  UNL1       -0.0042
     15 C           2.3042    1.0933   25.1664 C.3     1  UNL1        0.1943
     16 N           3.3065    0.0196   25.4708 N.ar    1  UNL1       -0.2839
     17 C           3.8931   -0.0904   26.8469 C.ar    1  UNL1        0.2806
     18 O           3.4775    0.8732   27.9187 O.2     1  UNL1       -0.2652
     19 C           4.8954   -1.1640   27.1513 C.ar    1  UNL1        0.1595
     20 N           5.3111   -2.1276   26.0795 N.ar    1  UNL1       -0.2374
     21 C           4.7245   -2.0176   24.7034 C.ar    1  UNL1        0.0982
     22 C           5.1402   -2.9812   23.6316 C.ar    1  UNL1        0.0328
     23 C           4.5536   -2.8711   22.2555 C.ar    1  UNL1        0.0698
     24 CL          4.9693   -3.8347   21.1837 Cl      1  UNL1       -0.0813
     25 C           3.5512   -1.7975   21.9511 C.ar    1  UNL1        0.0697
     26 CL          2.9646   -1.6874   20.5750 Cl      1  UNL1       -0.0813
     27 C           3.1356   -0.8339   23.0228 C.ar    1  UNL1        0.0310
     28 C           3.7222   -0.9440   24.3990 C.ar    1  UNL1        0.0815
     29 C          -0.0990    2.0509   25.4061 C.3     1  UNL1        0.0926
     30 N          -0.0411    1.9216   26.8994 N.3     1  UNL1       -0.2670
     31 C           0.5623    3.0195   27.7244 C.3     1  UNL1        0.1047
     32 C           0.6202    2.8902   29.2177 C.3     1  UNL1        0.1595
     33 O           0.0747    1.6632   29.8860 O.3     1  UNL1       -0.3508
     34 C          -0.5287    0.5652   29.0610 C.3     1  UNL1        0.1595
     35 C          -0.5867    0.6945   27.5677 C.3     1  UNL1        0.1047
@<TRIPOS>BOND
     1     1     2    2
     2     2    15    1
     3    15    16    1
     4    16    17   ar
     5    17    18    2
     6    17    19   ar
     7    19    20   ar
     8    20    21   ar
     9    21    22   ar
    10    22    23   ar
    11    23    24    1
    12    23    25   ar
    13    25    26    1
    14    25    27   ar
    15    27    28   ar
    16     2     3   am
    17     3     4    1
    18     4     5    1
    19     5     6    1
    20     6     7    1
    21     7     9    1
    22     9    10   ar
    23    10    11   ar
    24    11    12   ar
    25    12    13   ar
    26    13    14   ar
    27     7     8    1
    28     8    29    1
    29    29    30    1
    30    30    31    1
    31    31    32    1
    32    32    33    1
    33    33    34    1
    34    34    35    1
    35    28    16   ar
    36     8     3    1
    37    35    30    1
    38    28    21   ar
    39    14     9   ar
@<TRIPOS>MOLECULE
*****
 35 39 0 0 0
SMALL
GASTEIGER

@<TRIPOS>ATOM
      1 O           1.9742    3.7067   19.2994 O.2     1  UNL1       -0.2728
      2 C           0.5092    3.5443   19.5773 C.2     1  UNL1        0.2488
      3 N          -0.4807    4.4853   18.9570 N.am    1  UNL1       -0.2779
      4 C          -0.0055    5.5887   18.0589 C.3     1  UNL1        0.0935
      5 C          -0.9953    6.5297   17.4387 C.3     1  UNL1        0.0219
      6 C          -2.4604    6.3673   17.7166 C.3     1  UNL1        0.0078
      7 C          -2.9356    5.2639   18.6147 C.3     1  UNL1        0.0419
      8 C          -1.9457    4.3230   19.2350 C.3     1  UNL1        0.0953
      9 C          -4.4006    5.1015   18.8926 C.ar    1  UNL1       -0.0209
     10 C          -5.0984    6.0532   19.8186 C.ar    1  UNL1       -0.0042
     11 C          -6.5634    5.8908   20.0965 C.ar    1  UNL1       -0.0003
     12 C          -7.3307    4.7768   19.4485 C.ar    1  UNL1       -0.0000
     13 C          -6.6330    3.8251   18.5225 C.ar    1  UNL1       -0.0003
     14 C          -5.1680    3.9875   18.2446 C.ar    1  UNL1       -0.0042
     15 C           0.0340    2.4409   20.4755 C.3     1  UNL1        0.1943
     16 N           0.9211    1.2630   20.7504 N.ar    1  UNL1       -0.2839
     17 C           1.2925    0.3280   19.6379 C.ar    1  UNL1        0.2806
     18 O           0.7769    0.5709   18.2504 O.2     1  UNL1       -0.2652
     19 C           2.1796   -0.8499   19.9128 C.ar    1  UNL1        0.1595
     20 N           2.6953   -1.0927   21.3003 N.ar    1  UNL1       -0.2374
     21 C           2.3239   -0.1577   22.4129 C.ar    1  UNL1        0.0982
     22 C           2.8395   -0.4006   23.8003 C.ar    1  UNL1        0.0328
     23 C           2.4681    0.5344   24.9129 C.ar    1  UNL1        0.0698
     24 CL          2.9837    0.2915   26.3004 Cl      1  UNL1       -0.0813
     25 C           1.5809    1.7123   24.6379 C.ar    1  UNL1        0.0697
     26 CL          1.2095    2.6473   25.7505 Cl      1  UNL1       -0.0813
     27 C           1.0653    1.9552   23.2505 C.ar    1  UNL1        0.0310
     28 C           1.4368    1.0201   22.1379 C.ar    1  UNL1        0.0815
     29 C          -2.4209    3.2195   20.1332 C.3     1  UNL1        0.0926
     30 N          -3.0833    3.5477   21.4384 N.3     1  UNL1       -0.2670
     31 C          -2.3869    4.4295   22.4320 C.3     1  UNL1        0.1047
     32 C          -3.0492    4.7577   23.7372 C.3     1  UNL1        0.1595
     33 O          -4.4080    4.2040   24.0488 O.3     1  UNL1       -0.3508
     34 C          -5.1045    3.3222   23.0551 C.3     1  UNL1        0.1595
     35 C          -4.4422    2.9940   21.7499 C.3     1  UNL1        0.1047
@<TRIPOS>BOND
     1     1     2    2
     2     2    15    1
     3    15    16    1
     4    16    17   ar
     5    17    18    2
     6    17    19   ar
     7    19    20   ar
     8    20    21   ar
     9    21    22   ar
    10    22    23   ar
    11    23    24    1
    12    23    25   ar
    13    25    26    1
    14    25    27   ar
    15    27    28   ar
    16     2     3   am
    17     3     4    1
    18     4     5    1
    19     5     6    1
    20     6     7    1
    21     7     9    1
    22     9    10   ar
    23    10    11   ar
    24    11    12   ar
    25    12    13   ar
    26    13    14   ar
    27     7     8    1
    28     8    29    1
    29    29    30    1
    30    30    31    1
    31    31    32    1
    32    32    33    1
    33    33    34    1
    34    34    35    1
    35    28    16   ar
    36     8     3    1
    37    35    30    1
    38    28    21   ar
    39    14     9   ar
