@<TRIPOS>MOLECULE
*****
 22 24 0 0 0
SMALL
GASTEIGER

@<TRIPOS>ATOM
      1 C         -11.3301  -16.1052   21.0359 C.3     1  UNL1        0.0541
      2 C         -10.3289  -17.1256   21.4903 C.ar    1  UNL1        0.0829
      3 N          -8.9830  -17.3744   20.8767 N.ar    1  UNL1       -0.1694
      4 N          -8.3203  -18.4789   21.6454 N.ar    1  UNL1       -0.2284
      5 C          -9.2566  -18.9128   22.7340 C.ar    1  UNL1        0.0862
      6 C          -9.1392  -19.9614   23.8001 C.ar    1  UNL1        0.0193
      7 C         -10.2632  -20.1735   24.7704 C.ar    1  UNL1        0.0039
      8 C         -11.5046  -19.3371   24.6745 C.ar    1  UNL1        0.0298
      9 C         -11.6221  -18.2885   23.6084 C.ar    1  UNL1        0.1427
     10 F         -12.8635  -17.4521   23.5126 F       1  UNL1       -0.2041
     11 C         -10.4981  -18.0763   22.6382 C.ar    1  UNL1        0.0604
     12 C          -6.9600  -19.0495   21.3732 C.ar    1  UNL1        0.1017
     13 C          -6.8043  -20.1927   20.4145 C.ar    1  UNL1        0.1179
     14 N          -5.4440  -20.7633   20.1423 N.ar    1  UNL1       -0.2410
     15 C          -4.2394  -20.1907   20.8287 C.ar    1  UNL1        0.0969
     16 C          -4.3951  -19.0476   21.7873 C.ar    1  UNL1        0.0224
     17 C          -5.7554  -18.4770   22.0595 C.ar    1  UNL1        0.0202
     18 C          -3.1906  -18.4750   22.4737 C.3     1  UNL1        0.1086
     19 C          -4.0812  -17.6086   23.3140 C.3     1  UNL1        0.0339
     20 C          -2.2999  -19.3413   21.6334 C.3     1  UNL1        0.0339
     21 O          -1.9860  -17.9024   23.1601 O.3     1  UNL1       -0.3826
     22 H          -2.2694  -17.2507   23.8204 H       1  UNL1        0.2107
@<TRIPOS>BOND
     1     1     2    1
     2     2     3   ar
     3     3     4   ar
     4     4    12    1
     5    12    13   ar
     6    13    14   ar
     7    14    15   ar
     8    15    16   ar
     9    16    18    1
    10    18    19    1
    11    18    20    1
    12    18    21    1
    13    16    17   ar
    14     4     5   ar
    15     5     6   ar
    16     6     7   ar
    17     7     8   ar
    18     8     9   ar
    19     9    10    1
    20     9    11   ar
    21    11     2   ar
    22    17    12   ar
    23    11     5   ar
    24    21    22    1
@<TRIPOS>MOLECULE
*****
 22 24 0 0 0
SMALL
GASTEIGER

@<TRIPOS>ATOM
      1 C          -3.5223  -17.0069   23.1487 C.3     1  UNL1        0.0541
      2 C          -4.7412  -17.7552   22.6964 C.ar    1  UNL1        0.0829
      3 N          -6.1535  -17.4772   23.1184 N.ar    1  UNL1       -0.1694
      4 N          -7.0468  -18.4631   22.4255 N.ar    1  UNL1       -0.2284
      5 C          -6.1866  -19.3504   21.5754 C.ar    1  UNL1        0.0862
      6 C          -6.5168  -20.5002   20.6706 C.ar    1  UNL1        0.0193
      7 C          -5.4219  -21.2126   19.9331 C.ar    1  UNL1        0.0039
      8 C          -3.9970  -20.7751   20.1005 C.ar    1  UNL1        0.0298
      9 C          -3.6668  -19.6253   21.0054 C.ar    1  UNL1        0.1427
     10 F          -2.2418  -19.1878   21.1728 F       1  UNL1       -0.2041
     11 C          -4.7616  -18.9129   21.7429 C.ar    1  UNL1        0.0604
     12 C          -8.5385  -18.5469   22.5593 C.ar    1  UNL1        0.1017
     13 C          -9.1503  -19.4806   23.5613 C.ar    1  UNL1        0.1179
     14 N         -10.6420  -19.5645   23.6951 N.ar    1  UNL1       -0.2410
     15 C         -11.5218  -18.7147   22.8269 C.ar    1  UNL1        0.0969
     16 C         -10.9100  -17.7810   21.8250 C.ar    1  UNL1        0.0224
     17 C          -9.4183  -17.6972   21.6912 C.ar    1  UNL1        0.0202
     18 C         -11.7898  -16.9312   20.9568 C.3     1  UNL1        0.1086
     19 C         -12.3512  -16.2650   22.1779 C.3     1  UNL1        0.0339
     20 C         -11.2285  -17.5975   19.7358 C.3     1  UNL1        0.0339
     21 O         -12.6697  -16.0814   20.0887 O.3     1  UNL1       -0.3826
     22 H         -13.2015  -15.4920   20.6460 H       1  UNL1        0.2107
@<TRIPOS>BOND
     1     1     2    1
     2     2     3   ar
     3     3     4   ar
     4     4    12    1
     5    12    13   ar
     6    13    14   ar
     7    14    15   ar
     8    15    16   ar
     9    16    18    1
    10    18    19    1
    11    18    20    1
    12    18    21    1
    13    16    17   ar
    14     4     5   ar
    15     5     6   ar
    16     6     7   ar
    17     7     8   ar
    18     8     9   ar
    19     9    10    1
    20     9    11   ar
    21    11     2   ar
    22    17    12   ar
    23    11     5   ar
    24    21    22    1
@<TRIPOS>MOLECULE
*****
 22 24 0 0 0
SMALL
GASTEIGER

@<TRIPOS>ATOM
      1 C          -4.0148  -20.8128   19.8165 C.3     1  UNL1        0.0541
      2 C          -4.9857  -20.0863   20.6993 C.ar    1  UNL1        0.0829
      3 N          -6.4594  -20.3496   20.7933 N.ar    1  UNL1       -0.1694
      4 N          -7.0379  -19.3949   21.7952 N.ar    1  UNL1       -0.2284
      5 C          -5.9218  -18.5415   22.3205 C.ar    1  UNL1        0.0862
      6 C          -5.8965  -17.4305   23.3279 C.ar    1  UNL1        0.0193
      7 C          -4.6029  -16.7468   23.6581 C.ar    1  UNL1        0.0039
      8 C          -3.3345  -17.1741   22.9808 C.ar    1  UNL1        0.0298
      9 C          -3.3598  -18.2851   21.9733 C.ar    1  UNL1        0.1427
     10 F          -2.0915  -18.7124   21.2960 F       1  UNL1       -0.2041
     11 C          -4.6534  -18.9688   21.6432 C.ar    1  UNL1        0.0604
     12 C          -8.4795  -19.3087   22.2007 C.ar    1  UNL1        0.1017
     13 C          -8.9857  -20.1293   23.3499 C.ar    1  UNL1        0.1179
     14 N         -10.4273  -20.0431   23.7554 N.ar    1  UNL1       -0.2410
     15 C         -11.3627  -19.1364   23.0118 C.ar    1  UNL1        0.0969
     16 C         -10.8564  -18.3158   21.8627 C.ar    1  UNL1        0.0224
     17 C          -9.4149  -18.4020   21.4572 C.ar    1  UNL1        0.0202
     18 C         -11.7918  -17.4091   21.1191 C.3     1  UNL1        0.1086
     19 C         -12.4550  -17.0338   22.4111 C.3     1  UNL1        0.0339
     20 C         -11.1286  -17.7845   19.8272 C.3     1  UNL1        0.0339
     21 O         -12.7272  -16.5024   20.3755 O.3     1  UNL1       -0.3826
     22 H         -13.3332  -16.0781   21.0030 H       1  UNL1        0.2107
@<TRIPOS>BOND
     1     1     2    1
     2     2     3   ar
     3     3     4   ar
     4     4    12    1
     5    12    13   ar
     6    13    14   ar
     7    14    15   ar
     8    15    16   ar
     9    16    18    1
    10    18    19    1
    11    18    20    1
    12    18    21    1
    13    16    17   ar
    14     4     5   ar
    15     5     6   ar
    16     6     7   ar
    17     7     8   ar
    18     8     9   ar
    19     9    10    1
    20     9    11   ar
    21    11     2   ar
    22    17    12   ar
    23    11     5   ar
    24    21    22    1
@<TRIPOS>MOLECULE
*****
 22 24 0 0 0
SMALL
GASTEIGER

@<TRIPOS>ATOM
      1 C          -4.5279  -20.7839   20.1108 C.3     1  UNL1        0.0541
      2 C          -5.5821  -19.9272   20.7470 C.ar    1  UNL1        0.0829
      3 N          -7.0549  -19.9898   20.4697 N.ar    1  UNL1       -0.1694
      4 N          -7.7315  -18.9587   21.3235 N.ar    1  UNL1       -0.2284
      5 C          -6.6769  -18.2588   22.1285 C.ar    1  UNL1        0.0862
      6 C          -6.7546  -17.1539   23.1399 C.ar    1  UNL1        0.0193
      7 C          -5.5038  -16.6475   23.7949 C.ar    1  UNL1        0.0039
      8 C          -4.1754  -17.2460   23.4386 C.ar    1  UNL1        0.0298
      9 C          -4.0977  -18.3510   22.4272 C.ar    1  UNL1        0.1427
     10 F          -2.7692  -18.9495   22.0709 F       1  UNL1       -0.2041
     11 C          -5.3484  -18.8574   21.7721 C.ar    1  UNL1        0.0604
     12 C          -9.2042  -18.6769   21.3651 C.ar    1  UNL1        0.1017
     13 C          -9.9304  -18.2943   20.1095 C.ar    1  UNL1        0.1179
     14 N         -11.4031  -18.0125   20.1511 N.ar    1  UNL1       -0.2410
     15 C         -12.1497  -18.1133   21.4482 C.ar    1  UNL1        0.0969
     16 C         -11.4235  -18.4959   22.7037 C.ar    1  UNL1        0.0224
     17 C          -9.9508  -18.7777   22.6621 C.ar    1  UNL1        0.0202
     18 C         -12.1701  -18.5966   24.0008 C.3     1  UNL1        0.1086
     19 C         -13.3141  -17.8336   23.4016 C.3     1  UNL1        0.0339
     20 C         -11.0261  -19.3597   24.5999 C.3     1  UNL1        0.0339
     21 O         -12.9166  -18.6974   25.2979 O.3     1  UNL1       -0.3826
     22 H         -13.7750  -18.2539   25.2122 H       1  UNL1        0.2107
@<TRIPOS>BOND
     1     1     2    1
     2     2     3   ar
     3     3     4   ar
     4     4    12    1
     5    12    13   ar
     6    13    14   ar
     7    14    15   ar
     8    15    16   ar
     9    16    18    1
    10    18    19    1
    11    18    20    1
    12    18    21    1
    13    16    17   ar
    14     4     5   ar
    15     5     6   ar
    16     6     7   ar
    17     7     8   ar
    18     8     9   ar
    19     9    10    1
    20     9    11   ar
    21    11     2   ar
    22    17    12   ar
    23    11     5   ar
    24    21    22    1
@<TRIPOS>MOLECULE
*****
 22 24 0 0 0
SMALL
GASTEIGER

@<TRIPOS>ATOM
      1 C          -2.7449  -17.5190   23.2061 C.3     1  UNL1        0.0541
      2 C          -4.1257  -17.8528   22.7245 C.ar    1  UNL1        0.0829
      3 N          -5.3881  -17.1348   23.0998 N.ar    1  UNL1       -0.1694
      4 N          -6.5290  -17.8016   22.3902 N.ar    1  UNL1       -0.2284
      5 C          -5.9719  -18.9317   21.5763 C.ar    1  UNL1        0.0862
      6 C          -6.6251  -19.9359   20.6737 C.ar    1  UNL1        0.0193
      7 C          -5.7931  -20.9719   19.9778 C.ar    1  UNL1        0.0039
      8 C          -4.3077  -21.0036   20.1844 C.ar    1  UNL1        0.0298
      9 C          -3.6544  -19.9993   21.0869 C.ar    1  UNL1        0.1427
     10 F          -2.1690  -20.0310   21.2935 F       1  UNL1       -0.2041
     11 C          -4.4865  -18.9634   21.7829 C.ar    1  UNL1        0.0604
     12 C          -7.9736  -17.4075   22.4789 C.ar    1  UNL1        0.1017
     13 C          -8.4828  -16.2407   21.6854 C.ar    1  UNL1        0.1179
     14 N          -9.9274  -15.8466   21.7740 N.ar    1  UNL1       -0.2410
     15 C         -10.8628  -16.6191   22.6562 C.ar    1  UNL1        0.0969
     16 C         -10.3536  -17.7858   23.4497 C.ar    1  UNL1        0.0224
     17 C          -8.9090  -18.1799   23.3610 C.ar    1  UNL1        0.0202
     18 C         -11.2890  -18.5583   24.3318 C.3     1  UNL1        0.1086
     19 C         -10.1188  -19.1009   25.0975 C.3     1  UNL1        0.0339
     20 C         -12.4592  -18.0157   23.5662 C.3     1  UNL1        0.0339
     21 O         -12.2244  -19.3309   25.2140 O.3     1  UNL1       -0.3826
     22 H         -11.7125  -19.8282   25.8710 H       1  UNL1        0.2107
@<TRIPOS>BOND
     1     1     2    1
     2     2     3   ar
     3     3     4   ar
     4     4    12    1
     5    12    13   ar
     6    13    14   ar
     7    14    15   ar
     8    15    16   ar
     9    16    18    1
    10    18    19    1
    11    18    20    1
    12    18    21    1
    13    16    17   ar
    14     4     5   ar
    15     5     6   ar
    16     6     7   ar
    17     7     8   ar
    18     8     9   ar
    19     9    10    1
    20     9    11   ar
    21    11     2   ar
    22    17    12   ar
    23    11     5   ar
    24    21    22    1
@<TRIPOS>MOLECULE
*****
 22 24 0 0 0
SMALL
GASTEIGER

@<TRIPOS>ATOM
      1 C          -4.2111  -16.6740   23.9827 C.3     1  UNL1        0.0541
      2 C          -5.0396  -17.5124   23.0549 C.ar    1  UNL1        0.0829
      3 N          -6.5323  -17.4611   22.9159 N.ar    1  UNL1       -0.1694
      4 N          -6.9359  -18.4663   21.8783 N.ar    1  UNL1       -0.2284
      5 C          -5.6928  -19.1388   21.3760 C.ar    1  UNL1        0.0862
      6 C          -5.4766  -20.2118   20.3504 C.ar    1  UNL1        0.0193
      7 C          -4.0884  -20.6953   20.0520 C.ar    1  UNL1        0.0039
      8 C          -2.9164  -20.1058   20.7792 C.ar    1  UNL1        0.0298
      9 C          -3.1326  -19.0327   21.8048 C.ar    1  UNL1        0.1427
     10 F          -1.9605  -18.4432   22.5319 F       1  UNL1       -0.2041
     11 C          -4.5208  -18.5493   22.1032 C.ar    1  UNL1        0.0604
     12 C          -8.3369  -18.7493   21.4229 C.ar    1  UNL1        0.1017
     13 C          -8.5766  -19.3897   20.0878 C.ar    1  UNL1        0.1179
     14 N          -9.9775  -19.6727   19.6324 N.ar    1  UNL1       -0.2410
     15 C         -11.1387  -19.3154   20.5121 C.ar    1  UNL1        0.0969
     16 C         -10.8990  -18.6750   21.8472 C.ar    1  UNL1        0.0224
     17 C          -9.4981  -18.3920   22.3025 C.ar    1  UNL1        0.0202
     18 C         -12.0602  -18.3177   22.7269 C.3     1  UNL1        0.1086
     19 C         -12.7772  -17.7367   21.5444 C.3     1  UNL1        0.0339
     20 C         -11.3431  -18.8986   23.9094 C.3     1  UNL1        0.0339
     21 O         -13.2214  -17.9603   23.6066 O.3     1  UNL1       -0.3826
     22 H         -13.9089  -17.5291   23.0752 H       1  UNL1        0.2107
@<TRIPOS>BOND
     1     1     2    1
     2     2     3   ar
     3     3     4   ar
     4     4    12    1
     5    12    13   ar
     6    13    14   ar
     7    14    15   ar
     8    15    16   ar
     9    16    18    1
    10    18    19    1
    11    18    20    1
    12    18    21    1
    13    16    17   ar
    14     4     5   ar
    15     5     6   ar
    16     6     7   ar
    17     7     8   ar
    18     8     9   ar
    19     9    10    1
    20     9    11   ar
    21    11     2   ar
    22    17    12   ar
    23    11     5   ar
    24    21    22    1
@<TRIPOS>MOLECULE
*****
 22 24 0 0 0
SMALL
GASTEIGER

@<TRIPOS>ATOM
      1 C         -10.0331  -19.8852   19.1202 C.3     1  UNL1        0.0541
      2 C          -8.9235  -19.3530   19.9779 C.ar    1  UNL1        0.0829
      3 N          -7.4663  -19.6796   19.8373 N.ar    1  UNL1       -0.1694
      4 N          -6.7186  -18.9291   20.8993 N.ar    1  UNL1       -0.2284
      5 C          -7.7137  -18.1388   21.6962 C.ar    1  UNL1        0.0862
      6 C          -7.5550  -17.2144   22.8668 C.ar    1  UNL1        0.0193
      7 C          -8.7590  -16.5520   23.4680 C.ar    1  UNL1        0.0039
      8 C         -10.1218  -16.8140   22.8985 C.ar    1  UNL1        0.0298
      9 C         -10.2805  -17.7383   21.7279 C.ar    1  UNL1        0.1427
     10 F         -11.6433  -18.0003   21.1585 F       1  UNL1       -0.2041
     11 C          -9.0764  -18.4007   21.1268 C.ar    1  UNL1        0.0604
     12 C          -5.2360  -18.9631   21.1248 C.ar    1  UNL1        0.1017
     13 C          -4.6872  -19.4524   22.4323 C.ar    1  UNL1        0.1179
     14 N          -3.2046  -19.4863   22.6578 N.ar    1  UNL1       -0.2410
     15 C          -2.2708  -19.0310   21.5758 C.ar    1  UNL1        0.0969
     16 C          -2.8196  -18.5418   20.2684 C.ar    1  UNL1        0.0224
     17 C          -4.3022  -18.5079   20.0429 C.ar    1  UNL1        0.0202
     18 C          -1.8858  -18.0865   19.1864 C.3     1  UNL1        0.1086
     19 C          -3.0509  -17.5584   18.4031 C.3     1  UNL1        0.0339
     20 C          -0.7207  -18.6147   19.9697 C.3     1  UNL1        0.0339
     21 O          -0.9520  -17.6312   18.1044 O.3     1  UNL1       -0.3826
     22 H          -1.4610  -17.2111   17.3936 H       1  UNL1        0.2107
@<TRIPOS>BOND
     1     1     2    1
     2     2     3   ar
     3     3     4   ar
     4     4    12    1
     5    12    13   ar
     6    13    14   ar
     7    14    15   ar
     8    15    16   ar
     9    16    18    1
    10    18    19    1
    11    18    20    1
    12    18    21    1
    13    16    17   ar
    14     4     5   ar
    15     5     6   ar
    16     6     7   ar
    17     7     8   ar
    18     8     9   ar
    19     9    10    1
    20     9    11   ar
    21    11     2   ar
    22    17    12   ar
    23    11     5   ar
    24    21    22    1
@<TRIPOS>MOLECULE
*****
 22 24 0 0 0
SMALL
GASTEIGER

@<TRIPOS>ATOM
      1 C          -4.8728  -21.1956   19.8731 C.3     1  UNL1        0.0541
      2 C          -5.3199  -20.0953   20.7893 C.ar    1  UNL1        0.0829
      3 N          -6.7382  -19.6719   21.0322 N.ar    1  UNL1       -0.1694
      4 N          -6.7219  -18.5401   22.0165 N.ar    1  UNL1       -0.2284
      5 C          -5.2935  -18.2640   22.3818 C.ar    1  UNL1        0.0862
      6 C          -4.6700  -17.2615   23.3070 C.ar    1  UNL1        0.0193
      7 C          -3.1799  -17.2202   23.4738 C.ar    1  UNL1        0.0039
      8 C          -2.3134  -18.1813   22.7154 C.ar    1  UNL1        0.0298
      9 C          -2.9369  -19.1838   21.7901 C.ar    1  UNL1        0.1427
     10 F          -2.0704  -20.1450   21.0316 F       1  UNL1       -0.2041
     11 C          -4.4270  -19.2251   21.6233 C.ar    1  UNL1        0.0604
     12 C          -7.9232  -17.8122   22.5430 C.ar    1  UNL1        0.1017
     13 C          -7.7798  -16.8649   23.6973 C.ar    1  UNL1        0.1179
     14 N          -8.9810  -16.1370   24.2238 N.ar    1  UNL1       -0.2410
     15 C         -10.3256  -16.3563   23.5961 C.ar    1  UNL1        0.0969
     16 C         -10.4689  -17.3035   22.4419 C.ar    1  UNL1        0.0224
     17 C          -9.2677  -18.0315   21.9154 C.ar    1  UNL1        0.0202
     18 C         -11.8135  -17.5229   21.8142 C.3     1  UNL1        0.1086
     19 C         -11.3301  -18.8175   21.2310 C.3     1  UNL1        0.0339
     20 C         -12.2970  -16.2282   22.3975 C.3     1  UNL1        0.0339
     21 O         -13.1581  -17.7422   21.1866 O.3     1  UNL1       -0.3826
     22 H         -13.1532  -18.5788   20.6957 H       1  UNL1        0.2107
@<TRIPOS>BOND
     1     1     2    1
     2     2     3   ar
     3     3     4   ar
     4     4    12    1
     5    12    13   ar
     6    13    14   ar
     7    14    15   ar
     8    15    16   ar
     9    16    18    1
    10    18    19    1
    11    18    20    1
    12    18    21    1
    13    16    17   ar
    14     4     5   ar
    15     5     6   ar
    16     6     7   ar
    17     7     8   ar
    18     8     9   ar
    19     9    10    1
    20     9    11   ar
    21    11     2   ar
    22    17    12   ar
    23    11     5   ar
    24    21    22    1
@<TRIPOS>MOLECULE
*****
 22 24 0 0 0
SMALL
GASTEIGER

@<TRIPOS>ATOM
      1 C          -8.1118  -21.4684   17.8822 C.3     1  UNL1        0.0541
      2 C          -8.4323  -20.5401   19.0161 C.ar    1  UNL1        0.0829
      3 N          -9.7780  -19.9516   19.3203 N.ar    1  UNL1       -0.1694
      4 N          -9.6407  -19.0852   20.5370 N.ar    1  UNL1       -0.2284
      5 C          -8.2100  -19.1381   20.9847 C.ar    1  UNL1        0.0862
      6 C          -7.4909  -18.4837   22.1269 C.ar    1  UNL1        0.0193
      7 C          -6.0249  -18.7286   22.3291 C.ar    1  UNL1        0.0039
      8 C          -5.2781  -19.6278   21.3891 C.ar    1  UNL1        0.0298
      9 C          -5.9972  -20.2822   20.2469 C.ar    1  UNL1        0.1427
     10 F          -5.2503  -21.1814   19.3069 F       1  UNL1       -0.2041
     11 C          -7.4632  -20.0374   20.0447 C.ar    1  UNL1        0.0604
     12 C         -10.7408  -18.3030   21.1912 C.ar    1  UNL1        0.1017
     13 C         -11.2753  -17.0657   20.5328 C.ar    1  UNL1        0.1179
     14 N         -12.3754  -16.2835   21.1869 N.ar    1  UNL1       -0.2410
     15 C         -12.9412  -16.7387   22.4995 C.ar    1  UNL1        0.0969
     16 C         -12.4067  -17.9760   23.1578 C.ar    1  UNL1        0.0224
     17 C         -11.3066  -18.7581   22.5037 C.ar    1  UNL1        0.0202
     18 C         -12.9724  -18.4311   24.4704 C.3     1  UNL1        0.1086
     19 C         -11.6098  -18.8887   24.8990 C.3     1  UNL1        0.0339
     20 C         -14.3351  -17.9736   24.0417 C.3     1  UNL1        0.0339
     21 O         -13.5382  -18.8863   25.7829 O.3     1  UNL1       -0.3826
     22 H         -12.8293  -19.2633   26.3272 H       1  UNL1        0.2107
@<TRIPOS>BOND
     1     1     2    1
     2     2     3   ar
     3     3     4   ar
     4     4    12    1
     5    12    13   ar
     6    13    14   ar
     7    14    15   ar
     8    15    16   ar
     9    16    18    1
    10    18    19    1
    11    18    20    1
    12    18    21    1
    13    16    17   ar
    14     4     5   ar
    15     5     6   ar
    16     6     7   ar
    17     7     8   ar
    18     8     9   ar
    19     9    10    1
    20     9    11   ar
    21    11     2   ar
    22    17    12   ar
    23    11     5   ar
    24    21    22    1
