@<TRIPOS>MOLECULE
*****
 41 43 0 0 0
SMALL
GASTEIGER

@<TRIPOS>ATOM
      1 C           5.5861   -3.2613   20.2603 C.3     1  UNL1        0.2120
      2 O           4.9727   -3.7207   21.5498 O.3     1  UNL1       -0.3763
      3 H           5.6505   -4.1487   22.0959 H       1  UNL1        0.2107
      4 C           6.1996   -2.8019   18.9708 C.3     1  UNL1        0.4226
      5 F           6.8130   -2.3426   17.6815 F       1  UNL1       -0.1675
      6 F           7.0485   -1.8213   19.7242 F       1  UNL1       -0.1675
      7 F           5.3506   -3.7826   18.2175 F       1  UNL1       -0.1675
      8 C           4.2575   -2.7217   19.8205 C.3     1  UNL1        0.1307
      9 N           4.0318   -1.2398   19.7627 N.am    1  UNL1       -0.2733
     10 C           3.7590   -0.5734   18.4469 C.2     1  UNL1        0.2507
     11 O           3.7119   -1.3888   17.1887 O.2     1  UNL1       -0.2698
     12 C           3.5333    0.9084   18.3892 C.ar    1  UNL1        0.0747
     13 C           4.6898    1.8346   18.1558 C.ar    1  UNL1        0.0628
     14 CL          6.0720    1.2791   17.9800 Cl      1  UNL1       -0.0821
     15 C           4.4641    3.3164   18.0981 C.ar    1  UNL1        0.0116
     16 C           3.0819    3.8720   18.2739 C.ar    1  UNL1        0.0017
     17 C           1.9254    2.9457   18.5073 C.ar    1  UNL1        0.0116
     18 C           2.1511    1.4639   18.5650 C.ar    1  UNL1        0.0628
     19 CL          0.9946    0.5377   18.7985 Cl      1  UNL1       -0.0821
     20 C           3.1743   -0.7632   22.1685 C.3     1  UNL1        0.0233
     21 C           4.0789   -0.4244   21.0209 C.3     1  UNL1        0.0939
     22 C           6.9148   -3.8010   20.7002 C.3     1  UNL1        0.1269
     23 N           7.2323   -3.9125   22.1619 N.am    1  UNL1       -0.2982
     24 C           7.9876   -5.1018   22.6767 C.2     1  UNL1        0.2502
     25 O           8.4255   -6.1796   21.7298 O.2     1  UNL1       -0.2700
     26 H           6.9449   -3.2051   22.7834 H       1  UNL1        0.1498
     27 C           8.3051   -5.2134   24.1384 C.ar    1  UNL1        0.1053
     28 C           9.5356   -5.8363   24.7284 C.ar    1  UNL1        0.1278
     29 N           9.4389   -5.7295   26.2215 N.ar    1  UNL1       -0.1622
     30 N           8.1487   -5.0406   26.5543 N.ar    1  UNL1       -0.2163
     31 C           7.4480   -4.7216   25.2669 C.ar    1  UNL1        0.1327
     32 N           6.1228   -4.0320   25.1317 N.pl3   1  UNL1       -0.3424
     33 H           5.6329   -3.7450   25.9360 H       1  UNL1        0.1437
     34 H           5.7429   -3.8664   24.2387 H       1  UNL1        0.1437
     35 C           7.6471   -4.7259   27.9326 C.ar    1  UNL1        0.0843
     36 C           7.4066   -3.3014   28.3361 C.ar    1  UNL1        0.0215
     37 C           6.9051   -2.9868   29.7142 C.ar    1  UNL1        0.0312
     38 C           6.6441   -4.0967   30.6889 C.ar    1  UNL1        0.1402
     39 F           6.1425   -3.7820   32.0672 F       1  UNL1       -0.2042
     40 C           6.8846   -5.5212   30.2854 C.ar    1  UNL1        0.0312
     41 C           7.3861   -5.8358   28.9072 C.ar    1  UNL1        0.0215
@<TRIPOS>BOND
     1    20    21    1
     2    21     9    1
     3     9     8    1
     4     8     1    1
     5     1     2    1
     6     1    22    1
     7    22    23    1
     8    23    24   am
     9    24    25    2
    10    24    27    1
    11    27    28   ar
    12    28    29   ar
    13    29    30   ar
    14    30    35    1
    15    35    36   ar
    16    36    37   ar
    17    37    38   ar
    18    38    39    1
    19    38    40   ar
    20    40    41   ar
    21    30    31   ar
    22    31    32    1
    23     1     4    1
    24     4     5    1
    25     4     6    1
    26     4     7    1
    27     9    10   am
    28    10    11    2
    29    10    12    1
    30    12    13   ar
    31    13    14    1
    32    13    15   ar
    33    15    16   ar
    34    16    17   ar
    35    17    18   ar
    36    18    19    1
    37    31    27   ar
    38    18    12   ar
    39    41    35   ar
    40     2     3    1
    41    23    26    1
    42    32    33    1
    43    32    34    1
@<TRIPOS>MOLECULE
*****
 41 43 0 0 0
SMALL
GASTEIGER

@<TRIPOS>ATOM
      1 C           0.7725    0.6634   19.7674 C.3     1  UNL1        0.2120
      2 O          -0.2958    0.1051   20.6601 O.3     1  UNL1       -0.3763
      3 H          -0.8918    0.8188   20.9366 H       1  UNL1        0.2107
      4 C           1.8408    1.2217   18.8746 C.3     1  UNL1        0.4226
      5 F           2.9091    1.7799   17.9819 F       1  UNL1       -0.1675
      6 F           2.3106    2.1071   19.9906 F       1  UNL1       -0.1675
      7 F           1.3710    0.3362   17.7587 F       1  UNL1       -0.1675
      8 C           1.3723   -0.7045   19.6296 C.3     1  UNL1        0.1307
      9 N           2.6441   -1.0418   20.3499 N.am    1  UNL1       -0.2733
     10 C           3.8414   -1.5115   19.5779 C.2     1  UNL1        0.2507
     11 O           3.7668   -1.6439   18.0856 O.2     1  UNL1       -0.2698
     12 C           5.1131   -1.8487   20.2982 C.ar    1  UNL1        0.0747
     13 C           5.3458   -3.2445   20.7956 C.ar    1  UNL1        0.0628
     14 CL          4.3067   -4.3032   20.5727 Cl      1  UNL1       -0.0821
     15 C           6.6176   -3.5818   21.5159 C.ar    1  UNL1        0.0116
     16 C           7.6568   -2.5232   21.7388 C.ar    1  UNL1        0.0017
     17 C           7.4240   -1.1273   21.2414 C.ar    1  UNL1        0.0116
     18 C           6.1522   -0.7901   20.5211 C.ar    1  UNL1        0.0628
     19 CL          5.9195    0.6058   20.0237 Cl      1  UNL1       -0.0821
     20 C           3.1391    0.3916   22.4596 C.3     1  UNL1        0.0233
     21 C           2.7187   -0.9093   21.8422 C.3     1  UNL1        0.0939
     22 C           0.1727    2.0314   19.9051 C.3     1  UNL1        0.1269
     23 N          -1.0264    2.2397   20.7818 N.am    1  UNL1       -0.2982
     24 C          -2.0574    3.2643   20.4113 C.2     1  UNL1        0.2502
     25 O          -1.8893    4.0806   19.1641 O.2     1  UNL1       -0.2700
     26 H          -1.1368    1.7040   21.6003 H       1  UNL1        0.1498
     27 C          -3.2566    3.4727   21.2879 C.ar    1  UNL1        0.1053
     28 C          -4.6611    3.0479   20.9763 C.ar    1  UNL1        0.1278
     29 N          -5.5344    3.4551   22.1259 N.ar    1  UNL1       -0.1622
     30 N          -4.6696    4.1315   23.1480 N.ar    1  UNL1       -0.2163
     31 C          -3.2619    4.1423   22.6301 C.ar    1  UNL1        0.1327
     32 N          -2.0689    4.7212   23.3313 N.pl3   1  UNL1       -0.3424
     33 H          -2.1738    5.1427   24.2148 H       1  UNL1        0.1437
     34 H          -1.1811    4.6798   22.9079 H       1  UNL1        0.1437
     35 C          -5.1315    4.6976   24.4581 C.ar    1  UNL1        0.0843
     36 C          -6.2328    5.7155   24.4887 C.ar    1  UNL1        0.0215
     37 C          -6.6947    6.2816   25.7987 C.ar    1  UNL1        0.0312
     38 C          -6.0551    5.8298   27.0781 C.ar    1  UNL1        0.1402
     39 F          -6.5170    6.3960   28.3882 F       1  UNL1       -0.2042
     40 C          -4.9538    4.8120   27.0476 C.ar    1  UNL1        0.0312
     41 C          -4.4920    4.2459   25.7375 C.ar    1  UNL1        0.0215
@<TRIPOS>BOND
     1    20    21    1
     2    21     9    1
     3     9     8    1
     4     8     1    1
     5     1     2    1
     6     1    22    1
     7    22    23    1
     8    23    24   am
     9    24    25    2
    10    24    27    1
    11    27    28   ar
    12    28    29   ar
    13    29    30   ar
    14    30    35    1
    15    35    36   ar
    16    36    37   ar
    17    37    38   ar
    18    38    39    1
    19    38    40   ar
    20    40    41   ar
    21    30    31   ar
    22    31    32    1
    23     1     4    1
    24     4     5    1
    25     4     6    1
    26     4     7    1
    27     9    10   am
    28    10    11    2
    29    10    12    1
    30    12    13   ar
    31    13    14    1
    32    13    15   ar
    33    15    16   ar
    34    16    17   ar
    35    17    18   ar
    36    18    19    1
    37    31    27   ar
    38    18    12   ar
    39    41    35   ar
    40     2     3    1
    41    23    26    1
    42    32    33    1
    43    32    34    1
@<TRIPOS>MOLECULE
*****
 41 43 0 0 0
SMALL
GASTEIGER

@<TRIPOS>ATOM
      1 C           5.5621   -3.1121   20.1516 C.3     1  UNL1        0.2120
      2 O           4.8761   -3.5586   21.4086 O.3     1  UNL1       -0.3763
      3 H           5.5250   -3.9645   22.0044 H       1  UNL1        0.2107
      4 C           6.2482   -2.6655   18.8947 C.3     1  UNL1        0.4226
      5 F           6.9342   -2.2190   17.6378 F       1  UNL1       -0.1675
      6 F           5.4024   -3.6129   18.0966 F       1  UNL1       -0.1675
      7 F           7.0940   -1.7181   19.6929 F       1  UNL1       -0.1675
      8 C           4.2553   -2.6042   19.6188 C.3     1  UNL1        0.1307
      9 N           3.9682   -1.1318   19.6150 N.am    1  UNL1       -0.2733
     10 C           3.7011   -0.4231   18.3203 C.2     1  UNL1        0.2507
     11 O           3.7210   -1.1866   17.0293 O.2     1  UNL1       -0.2698
     12 C           3.4140    1.0492   18.3166 C.ar    1  UNL1        0.0747
     13 C           2.0128    1.5406   18.5288 C.ar    1  UNL1        0.0628
     14 CL          0.8986    0.5597   18.7447 Cl      1  UNL1       -0.0821
     15 C           1.7257    3.0128   18.5251 C.ar    1  UNL1        0.0116
     16 C           2.8398    3.9938   18.3092 C.ar    1  UNL1        0.0017
     17 C           4.2411    3.5023   18.0970 C.ar    1  UNL1        0.0116
     18 C           4.5282    2.0300   18.1007 C.ar    1  UNL1        0.0628
     19 CL          5.9294    1.5386   17.8885 Cl      1  UNL1       -0.0821
     20 C           2.7812   -0.5026   21.8388 C.3     1  UNL1        0.0233
     21 C           3.9483   -0.3683   20.9060 C.3     1  UNL1        0.0939
     22 C           6.8691   -3.6200   20.6845 C.3     1  UNL1        0.1269
     23 N           6.9098   -4.3646   21.9860 N.am    1  UNL1       -0.2982
     24 C           8.1455   -5.1178   22.3808 C.2     1  UNL1        0.2502
     25 O           9.3405   -5.1262   21.4742 O.2     1  UNL1       -0.2700
     26 H           6.1255   -4.3591   22.5811 H       1  UNL1        0.1498
     27 C           8.1863   -5.8624   23.6823 C.ar    1  UNL1        0.1053
     28 C           8.4707   -7.3254   23.8525 C.ar    1  UNL1        0.1278
     29 N           8.4100   -7.6420   25.3174 N.ar    1  UNL1       -0.1622
     30 N           8.0880   -6.3748   26.0526 N.ar    1  UNL1       -0.2163
     31 C           7.9497   -5.2750   25.0420 C.ar    1  UNL1        0.1327
     32 N           7.6309   -3.8396   25.3390 N.pl3   1  UNL1       -0.3424
     33 H           7.4917   -3.5486   26.2691 H       1  UNL1        0.1437
     34 H           7.5608   -3.1887   24.6038 H       1  UNL1        0.1437
     35 C           7.9317   -6.2323   27.5377 C.ar    1  UNL1        0.0843
     36 C           8.9634   -6.8119   28.4594 C.ar    1  UNL1        0.0215
     37 C           8.8071   -6.6694   29.9444 C.ar    1  UNL1        0.0312
     38 C           7.6190   -5.9474   30.5076 C.ar    1  UNL1        0.1402
     39 F           7.4627   -5.8050   31.9927 F       1  UNL1       -0.2042
     40 C           6.5873   -5.3679   29.5859 C.ar    1  UNL1        0.0312
     41 C           6.7436   -5.5103   28.1009 C.ar    1  UNL1        0.0215
@<TRIPOS>BOND
     1    20    21    1
     2    21     9    1
     3     9     8    1
     4     8     1    1
     5     1     2    1
     6     1    22    1
     7    22    23    1
     8    23    24   am
     9    24    25    2
    10    24    27    1
    11    27    28   ar
    12    28    29   ar
    13    29    30   ar
    14    30    35    1
    15    35    36   ar
    16    36    37   ar
    17    37    38   ar
    18    38    39    1
    19    38    40   ar
    20    40    41   ar
    21    30    31   ar
    22    31    32    1
    23     1     4    1
    24     4     5    1
    25     4     6    1
    26     4     7    1
    27     9    10   am
    28    10    11    2
    29    10    12    1
    30    12    13   ar
    31    13    14    1
    32    13    15   ar
    33    15    16   ar
    34    16    17   ar
    35    17    18   ar
    36    18    19    1
    37    31    27   ar
    38    18    12   ar
    39    41    35   ar
    40     2     3    1
    41    23    26    1
    42    32    33    1
    43    32    34    1
@<TRIPOS>MOLECULE
*****
 41 43 0 0 0
SMALL
GASTEIGER

@<TRIPOS>ATOM
      1 C           5.1080   -3.0565   20.3911 C.3     1  UNL1        0.2120
      2 O           5.3329   -1.9978   21.4297 O.3     1  UNL1       -0.3763
      3 H           6.1783   -2.1585   21.8774 H       1  UNL1        0.2107
      4 C           4.8831   -4.1152   19.3525 C.3     1  UNL1        0.4226
      5 F           4.6583   -5.1738   18.3140 F       1  UNL1       -0.1675
      6 F           3.8629   -4.7671   20.2380 F       1  UNL1       -0.1675
      7 F           5.9034   -3.4632   18.4670 F       1  UNL1       -0.1675
      8 C           3.8010   -2.4188   20.0240 C.3     1  UNL1        0.1307
      9 N           3.7656   -0.9904   19.5673 N.am    1  UNL1       -0.2733
     10 C           2.9869    0.0273   20.3469 C.2     1  UNL1        0.2507
     11 O           2.2435   -0.3834   21.5834 O.2     1  UNL1       -0.2698
     12 C           2.9515    1.4556   19.8902 C.ar    1  UNL1        0.0747
     13 C           1.9254    1.8977   18.8893 C.ar    1  UNL1        0.0628
     14 CL          0.9348    0.9115   18.3452 Cl      1  UNL1       -0.0821
     15 C           1.8900    3.3260   18.4325 C.ar    1  UNL1        0.0116
     16 C           2.8806    4.3123   18.9766 C.ar    1  UNL1        0.0017
     17 C           3.9067    3.8701   19.9775 C.ar    1  UNL1        0.0116
     18 C           3.9421    2.4418   20.4343 C.ar    1  UNL1        0.0628
     19 CL          4.9682    1.9997   21.4351 Cl      1  UNL1       -0.0821
     20 C           3.9036   -0.8155   16.9787 C.3     1  UNL1        0.0233
     21 C           4.5089   -0.5797   18.3308 C.3     1  UNL1        0.0939
     22 C           6.4151   -3.6943   20.7582 C.3     1  UNL1        0.1269
     23 N           6.7926   -3.8542   22.2011 N.am    1  UNL1       -0.2982
     24 C           7.7985   -4.8919   22.6026 C.2     1  UNL1        0.2502
     25 O           8.4270   -5.7698   21.5613 O.2     1  UNL1       -0.2700
     26 H           6.3801   -3.2780   22.8845 H       1  UNL1        0.1498
     27 C           8.1760   -5.0518   24.0455 C.ar    1  UNL1        0.1053
     28 C           9.4405   -5.6712   24.5627 C.ar    1  UNL1        0.1278
     29 N           9.4012   -5.6226   26.0614 N.ar    1  UNL1       -0.1622
     30 N           8.1125   -4.9731   26.4705 N.ar    1  UNL1       -0.2163
     31 C           7.3553   -4.6203   25.2246 C.ar    1  UNL1        0.1327
     32 N           6.0130   -3.9532   25.1678 N.pl3   1  UNL1       -0.3424
     33 H           5.5502   -3.7066   26.0010 H       1  UNL1        0.1437
     34 H           5.5949   -3.7619   24.2973 H       1  UNL1        0.1437
     35 C           7.6604   -4.7206   27.8783 C.ar    1  UNL1        0.0843
     36 C           7.4734   -3.3142   28.3652 C.ar    1  UNL1        0.0215
     37 C           7.0213   -3.0618   29.7730 C.ar    1  UNL1        0.0312
     38 C           6.7561   -4.2158   30.6938 C.ar    1  UNL1        0.1402
     39 F           6.3039   -3.9634   32.1017 F       1  UNL1       -0.2042
     40 C           6.9430   -5.6222   30.2069 C.ar    1  UNL1        0.0312
     41 C           7.3952   -5.8746   28.7992 C.ar    1  UNL1        0.0215
@<TRIPOS>BOND
     1    20    21    1
     2    21     9    1
     3     9     8    1
     4     8     1    1
     5     1     2    1
     6     1    22    1
     7    22    23    1
     8    23    24   am
     9    24    25    2
    10    24    27    1
    11    27    28   ar
    12    28    29   ar
    13    29    30   ar
    14    30    35    1
    15    35    36   ar
    16    36    37   ar
    17    37    38   ar
    18    38    39    1
    19    38    40   ar
    20    40    41   ar
    21    30    31   ar
    22    31    32    1
    23     1     4    1
    24     4     5    1
    25     4     6    1
    26     4     7    1
    27     9    10   am
    28    10    11    2
    29    10    12    1
    30    12    13   ar
    31    13    14    1
    32    13    15   ar
    33    15    16   ar
    34    16    17   ar
    35    17    18   ar
    36    18    19    1
    37    31    27   ar
    38    18    12   ar
    39    41    35   ar
    40     2     3    1
    41    23    26    1
    42    32    33    1
    43    32    34    1
@<TRIPOS>MOLECULE
*****
 41 43 0 0 0
SMALL
GASTEIGER

@<TRIPOS>ATOM
      1 C           0.7011    1.1449   20.0039 C.3     1  UNL1        0.2120
      2 O          -0.2420    0.3772   20.8821 O.3     1  UNL1       -0.3763
      3 H          -0.7198    0.9929   21.4596 H       1  UNL1        0.2107
      4 C           1.6441    1.9126   19.1256 C.3     1  UNL1        0.4226
      5 F           2.5871    2.6803   18.2474 F       1  UNL1       -0.1675
      6 F           2.3489    2.4374   20.3413 F       1  UNL1       -0.1675
      7 F           0.9392    1.3878   17.9100 F       1  UNL1       -0.1675
      8 C           1.1514   -0.1364   19.3673 C.3     1  UNL1        0.1307
      9 N           2.4096   -0.8051   19.8362 N.am    1  UNL1       -0.2733
     10 C           3.5002   -1.1225   18.8564 C.2     1  UNL1        0.2507
     11 O           3.3326   -0.7713   17.4078 O.2     1  UNL1       -0.2698
     12 C           4.7583   -1.7912   19.3253 C.ar    1  UNL1        0.0747
     13 C           5.9678   -0.9672   19.6543 C.ar    1  UNL1        0.0628
     14 CL          5.9191    0.5254   19.5143 Cl      1  UNL1       -0.0821
     15 C           7.2259   -1.6359   20.1232 C.ar    1  UNL1        0.0116
     16 C           7.2747   -3.1286   20.2632 C.ar    1  UNL1        0.0017
     17 C           6.0652   -3.9526   19.9342 C.ar    1  UNL1        0.0116
     18 C           4.8070   -3.2839   19.4653 C.ar    1  UNL1        0.0628
     19 CL          3.5976   -4.1079   19.1364 Cl      1  UNL1       -0.0821
     20 C           3.1642   -0.1560   22.2361 C.3     1  UNL1        0.0233
     21 C           2.5772   -1.1564   21.2848 C.3     1  UNL1        0.0939
     22 C           0.2508    2.4263   20.6405 C.3     1  UNL1        0.1269
     23 N          -1.2129    2.6994   20.8226 N.am    1  UNL1       -0.2982
     24 C          -1.9342    3.5953   19.8597 C.2     1  UNL1        0.2502
     25 O          -1.1919    4.2180   18.7147 O.2     1  UNL1       -0.2700
     26 H          -1.7001    2.2907   21.5742 H       1  UNL1        0.1498
     27 C          -3.3978    3.8684   20.0419 C.ar    1  UNL1        0.1053
     28 C          -4.4749    3.6142   19.0293 C.ar    1  UNL1        0.1278
     29 N          -5.7841    4.0324   19.6302 N.ar    1  UNL1       -0.1622
     30 N          -5.5162    4.5450   21.0142 N.ar    1  UNL1       -0.2163
     31 C          -4.0414    4.4436   21.2686 C.ar    1  UNL1        0.1327
     32 N          -3.3343    4.8467   22.5286 N.pl3   1  UNL1       -0.3424
     33 H          -3.8464    5.2167   23.2836 H       1  UNL1        0.1437
     34 H          -2.3581    4.7413   22.6005 H       1  UNL1        0.1437
     35 C          -6.5429    5.0672   21.9751 C.ar    1  UNL1        0.0843
     36 C          -7.1281    4.1581   23.0147 C.ar    1  UNL1        0.0215
     37 C          -8.1547    4.6803   23.9756 C.ar    1  UNL1        0.0312
     38 C          -8.5961    6.1118   23.8968 C.ar    1  UNL1        0.1402
     39 F          -9.6227    6.6341   24.8577 F       1  UNL1       -0.2042
     40 C          -8.0108    7.0209   22.8572 C.ar    1  UNL1        0.0312
     41 C          -6.9842    6.4987   21.8963 C.ar    1  UNL1        0.0215
@<TRIPOS>BOND
     1    20    21    1
     2    21     9    1
     3     9     8    1
     4     8     1    1
     5     1     2    1
     6     1    22    1
     7    22    23    1
     8    23    24   am
     9    24    25    2
    10    24    27    1
    11    27    28   ar
    12    28    29   ar
    13    29    30   ar
    14    30    35    1
    15    35    36   ar
    16    36    37   ar
    17    37    38   ar
    18    38    39    1
    19    38    40   ar
    20    40    41   ar
    21    30    31   ar
    22    31    32    1
    23     1     4    1
    24     4     5    1
    25     4     6    1
    26     4     7    1
    27     9    10   am
    28    10    11    2
    29    10    12    1
    30    12    13   ar
    31    13    14    1
    32    13    15   ar
    33    15    16   ar
    34    16    17   ar
    35    17    18   ar
    36    18    19    1
    37    31    27   ar
    38    18    12   ar
    39    41    35   ar
    40     2     3    1
    41    23    26    1
    42    32    33    1
    43    32    34    1
@<TRIPOS>MOLECULE
*****
 41 43 0 0 0
SMALL
GASTEIGER

@<TRIPOS>ATOM
      1 C           0.5348    1.2295   19.7466 C.3     1  UNL1        0.2120
      2 O          -0.2239    0.2026   20.5339 O.3     1  UNL1       -0.3763
      3 H          -0.7850    0.6469   21.1887 H       1  UNL1        0.2107
      4 C           1.2936    2.2563   18.9592 C.3     1  UNL1        0.4226
      5 F           2.0523    3.2831   18.1719 F       1  UNL1       -0.1675
      6 F           2.3055    2.3541   20.0621 F       1  UNL1       -0.1675
      7 F           0.2816    2.1585   17.8563 F       1  UNL1       -0.1675
      8 C           1.1867    0.1377   18.9510 C.3     1  UNL1        0.1307
      9 N           2.3601   -0.6052   19.5179 N.am    1  UNL1       -0.2733
     10 C           3.4859   -1.0262   18.6206 C.2     1  UNL1        0.2507
     11 O           3.4385   -0.7043   17.1563 O.2     1  UNL1       -0.2698
     12 C           4.6592   -1.7691   19.1876 C.ar    1  UNL1        0.0747
     13 C           5.9064   -1.0259   19.5647 C.ar    1  UNL1        0.0628
     14 CL          5.9802    0.4602   19.3748 Cl      1  UNL1       -0.0821
     15 C           7.0796   -1.7688   20.1317 C.ar    1  UNL1        0.0116
     16 C           7.0059   -3.2549   20.3216 C.ar    1  UNL1        0.0017
     17 C           5.7586   -3.9981   19.9444 C.ar    1  UNL1        0.0116
     18 C           4.5854   -3.2552   19.3774 C.ar    1  UNL1        0.0628
     19 CL          3.3382   -3.9984   19.0003 Cl      1  UNL1       -0.0821
     20 C           3.1719   -0.0409   21.9206 C.3     1  UNL1        0.0233
     21 C           2.4075   -0.9271   20.9822 C.3     1  UNL1        0.0939
     22 C          -0.1171    2.3213   20.5422 C.3     1  UNL1        0.1269
     23 N          -0.4416    2.1027   21.9902 N.am    1  UNL1       -0.2982
     24 C           0.5153    2.5605   23.0507 C.2     1  UNL1        0.2502
     25 O           1.7968    3.2369   22.6632 O.2     1  UNL1       -0.2700
     26 H          -1.2827    1.6587   22.2446 H       1  UNL1        0.1498
     27 C           0.1908    2.3419   24.4988 C.ar    1  UNL1        0.1053
     28 C          -1.1565    2.5120   25.1359 C.ar    1  UNL1        0.1278
     29 N          -1.0234    2.1901   26.5948 N.ar    1  UNL1       -0.1622
     30 N           0.4061    1.8209   26.8595 N.ar    1  UNL1       -0.2163
     31 C           1.1566    1.9148   25.5641 C.ar    1  UNL1        0.1327
     32 N           2.6164    1.6313   25.3683 N.pl3   1  UNL1       -0.3424
     33 H           3.1712    1.3552   26.1333 H       1  UNL1        0.1437
     34 H           3.0199    1.7212   24.4748 H       1  UNL1        0.1437
     35 C           0.9839    1.4271   28.1866 C.ar    1  UNL1        0.0843
     36 C           1.4212    0.0121   28.4240 C.ar    1  UNL1        0.0215
     37 C           1.9990   -0.3817   29.7511 C.ar    1  UNL1        0.0312
     38 C           2.1394    0.6395   30.8407 C.ar    1  UNL1        0.1402
     39 F           2.7172    0.2457   32.1678 F       1  UNL1       -0.2042
     40 C           1.7021    2.0546   30.6033 C.ar    1  UNL1        0.0312
     41 C           1.1243    2.4483   29.2763 C.ar    1  UNL1        0.0215
@<TRIPOS>BOND
     1    20    21    1
     2    21     9    1
     3     9     8    1
     4     8     1    1
     5     1     2    1
     6     1    22    1
     7    22    23    1
     8    23    24   am
     9    24    25    2
    10    24    27    1
    11    27    28   ar
    12    28    29   ar
    13    29    30   ar
    14    30    35    1
    15    35    36   ar
    16    36    37   ar
    17    37    38   ar
    18    38    39    1
    19    38    40   ar
    20    40    41   ar
    21    30    31   ar
    22    31    32    1
    23     1     4    1
    24     4     5    1
    25     4     6    1
    26     4     7    1
    27     9    10   am
    28    10    11    2
    29    10    12    1
    30    12    13   ar
    31    13    14    1
    32    13    15   ar
    33    15    16   ar
    34    16    17   ar
    35    17    18   ar
    36    18    19    1
    37    31    27   ar
    38    18    12   ar
    39    41    35   ar
    40     2     3    1
    41    23    26    1
    42    32    33    1
    43    32    34    1
@<TRIPOS>MOLECULE
*****
 41 43 0 0 0
SMALL
GASTEIGER

@<TRIPOS>ATOM
      1 C           0.9812    1.2961   19.9245 C.3     1  UNL1        0.2120
      2 O           0.1111    0.3764   20.7288 O.3     1  UNL1       -0.3763
      3 H          -0.2386    0.8527   21.4981 H       1  UNL1        0.2107
      4 C           1.8513    2.2159   19.1201 C.3     1  UNL1        0.4226
      5 F           2.7214    3.1355   18.3157 F       1  UNL1       -0.1675
      6 F           0.8497    2.1871   18.0039 F       1  UNL1       -0.1675
      7 F           2.8529    2.2446   20.2363 F       1  UNL1       -0.1675
      8 C           1.2471    0.1898   18.9471 C.3     1  UNL1        0.1307
      9 N           2.5729   -0.5119   18.9511 N.am    1  UNL1       -0.2733
     10 C           3.0871   -1.1364   20.2143 C.2     1  UNL1        0.2507
     11 O           2.2756   -1.0591   21.4735 O.2     1  UNL1       -0.2698
     12 C           4.4128   -1.8381   20.2183 C.ar    1  UNL1        0.0747
     13 C           4.5076   -3.2647   19.7646 C.ar    1  UNL1        0.0628
     14 CL          3.2767   -3.9895   19.3070 Cl      1  UNL1       -0.0821
     15 C           5.8334   -3.9664   19.7686 C.ar    1  UNL1        0.0116
     16 C           7.0644   -3.2416   20.2262 C.ar    1  UNL1        0.0017
     17 C           6.9695   -1.8149   20.6799 C.ar    1  UNL1        0.0116
     18 C           5.6438   -1.1132   20.6759 C.ar    1  UNL1        0.0628
     19 CL          5.5490    0.3134   21.1296 Cl      1  UNL1       -0.0821
     20 C           4.5493    0.3345   17.4926 C.3     1  UNL1        0.0233
     21 C           3.3844   -0.5892   17.6919 C.3     1  UNL1        0.0939
     22 C           0.7153    2.4025   20.9018 C.3     1  UNL1        0.1269
     23 N           0.3061    2.0786   22.3081 N.am    1  UNL1       -0.2982
     24 C           1.3082    2.1692   23.4206 C.2     1  UNL1        0.2502
     25 O           2.7196    2.5835   23.1267 O.2     1  UNL1       -0.2700
     26 H          -0.6202    1.8067   22.5010 H       1  UNL1        0.1498
     27 C           0.8990    1.8453   24.8268 C.ar    1  UNL1        0.1053
     28 C          -0.5090    1.7286   25.3307 C.ar    1  UNL1        0.1278
     29 N          -0.4522    1.3925   26.7915 N.ar    1  UNL1       -0.1622
     30 N           0.9909    1.3014   27.1904 N.ar    1  UNL1       -0.2163
     31 C           1.8260    1.5813   25.9762 C.ar    1  UNL1        0.1327
     32 N           3.3249    1.5948   25.9211 N.pl3   1  UNL1       -0.3424
     33 H           3.8491    1.4081   26.7332 H       1  UNL1        0.1437
     34 H           3.7845    1.7902   25.0727 H       1  UNL1        0.1437
     35 C           1.5081    0.9859   28.5627 C.ar    1  UNL1        0.0843
     36 C           2.1410   -0.3459   28.8377 C.ar    1  UNL1        0.0215
     37 C           2.6582   -0.6613   30.2099 C.ar    1  UNL1        0.0312
     38 C           2.5424    0.3550   31.3071 C.ar    1  UNL1        0.1402
     39 F           3.0597    0.0394   32.6793 F       1  UNL1       -0.2042
     40 C           1.9095    1.6867   31.0320 C.ar    1  UNL1        0.0312
     41 C           1.3923    2.0022   29.6598 C.ar    1  UNL1        0.0215
@<TRIPOS>BOND
     1    20    21    1
     2    21     9    1
     3     9     8    1
     4     8     1    1
     5     1     2    1
     6     1    22    1
     7    22    23    1
     8    23    24   am
     9    24    25    2
    10    24    27    1
    11    27    28   ar
    12    28    29   ar
    13    29    30   ar
    14    30    35    1
    15    35    36   ar
    16    36    37   ar
    17    37    38   ar
    18    38    39    1
    19    38    40   ar
    20    40    41   ar
    21    30    31   ar
    22    31    32    1
    23     1     4    1
    24     4     5    1
    25     4     6    1
    26     4     7    1
    27     9    10   am
    28    10    11    2
    29    10    12    1
    30    12    13   ar
    31    13    14    1
    32    13    15   ar
    33    15    16   ar
    34    16    17   ar
    35    17    18   ar
    36    18    19    1
    37    31    27   ar
    38    18    12   ar
    39    41    35   ar
    40     2     3    1
    41    23    26    1
    42    32    33    1
    43    32    34    1
@<TRIPOS>MOLECULE
*****
 41 43 0 0 0
SMALL
GASTEIGER

@<TRIPOS>ATOM
      1 C           5.8222   -2.5895   19.9992 C.3     1  UNL1        0.2120
      2 O           7.0449   -2.0813   20.7040 O.3     1  UNL1       -0.3763
      3 H           7.3693   -2.7587   21.3179 H       1  UNL1        0.2107
      4 C           4.5995   -3.0977   19.2943 C.3     1  UNL1        0.4226
      5 F           3.3769   -3.6058   18.5895 F       1  UNL1       -0.1675
      6 F           3.8629   -3.1366   20.6004 F       1  UNL1       -0.1675
      7 F           5.3363   -3.0588   17.9883 F       1  UNL1       -0.1675
      8 C           5.7225   -1.2988   19.2416 C.3     1  UNL1        0.1307
      9 N           4.6745   -0.2912   19.6113 N.am    1  UNL1       -0.2733
     10 C           3.6052    0.0749   18.6251 C.2     1  UNL1        0.2507
     11 O           3.5838   -0.5664   17.2693 O.2     1  UNL1       -0.2698
     12 C           2.5572    1.0825   18.9948 C.ar    1  UNL1        0.0747
     13 C           1.2994    0.6389   19.6812 C.ar    1  UNL1        0.0628
     14 CL          1.0896   -0.8122   19.9979 Cl      1  UNL1       -0.0821
     15 C           0.2515    1.6464   20.0509 C.ar    1  UNL1        0.0116
     16 C           0.4613    3.0976   19.7343 C.ar    1  UNL1        0.0017
     17 C           1.7192    3.5411   19.0478 C.ar    1  UNL1        0.0116
     18 C           2.7671    2.5336   18.6782 C.ar    1  UNL1        0.0628
     19 CL          4.0249    2.9772   17.9918 Cl      1  UNL1       -0.0821
     20 C           3.9866   -0.3022   22.1166 C.3     1  UNL1        0.0233
     21 C           4.6959    0.3501   20.9671 C.3     1  UNL1        0.0939
     22 C           5.9220   -3.8803   20.7568 C.3     1  UNL1        0.1269
     23 N           6.7527   -3.9560   22.0034 N.am    1  UNL1       -0.2982
     24 C           6.1123   -3.7548   23.3449 C.2     1  UNL1        0.2502
     25 O           4.6412   -3.4780   23.4397 O.2     1  UNL1       -0.2700
     26 H           7.7183   -4.1377   21.9412 H       1  UNL1        0.1498
     27 C           6.9431   -3.8305   24.5915 C.ar    1  UNL1        0.1053
     28 C           8.3201   -4.4157   24.6992 C.ar    1  UNL1        0.1278
     29 N           8.7708   -4.2811   26.1235 N.ar    1  UNL1       -0.1622
     30 N           7.6724   -3.6128   26.8961 N.ar    1  UNL1       -0.2163
     31 C           6.5429   -3.3343   25.9492 C.ar    1  UNL1        0.1327
     32 N           5.2415   -2.6754   26.2988 N.pl3   1  UNL1       -0.3424
     33 H           5.0706   -2.3826   27.2231 H       1  UNL1        0.1437
     34 H           4.5583   -2.5356   25.6039 H       1  UNL1        0.1437
     35 C           7.6989   -3.2812   28.3588 C.ar    1  UNL1        0.0843
     36 C           6.7413   -3.9532   29.2977 C.ar    1  UNL1        0.0215
     37 C           6.7678   -3.6216   30.7603 C.ar    1  UNL1        0.0312
     38 C           7.7519   -2.6180   31.2840 C.ar    1  UNL1        0.1402
     39 F           7.7784   -2.2864   32.7467 F       1  UNL1       -0.2042
     40 C           8.7095   -1.9460   30.3452 C.ar    1  UNL1        0.0312
     41 C           8.6830   -2.2776   28.8826 C.ar    1  UNL1        0.0215
@<TRIPOS>BOND
     1    20    21    1
     2    21     9    1
     3     9     8    1
     4     8     1    1
     5     1     2    1
     6     1    22    1
     7    22    23    1
     8    23    24   am
     9    24    25    2
    10    24    27    1
    11    27    28   ar
    12    28    29   ar
    13    29    30   ar
    14    30    35    1
    15    35    36   ar
    16    36    37   ar
    17    37    38   ar
    18    38    39    1
    19    38    40   ar
    20    40    41   ar
    21    30    31   ar
    22    31    32    1
    23     1     4    1
    24     4     5    1
    25     4     6    1
    26     4     7    1
    27     9    10   am
    28    10    11    2
    29    10    12    1
    30    12    13   ar
    31    13    14    1
    32    13    15   ar
    33    15    16   ar
    34    16    17   ar
    35    17    18   ar
    36    18    19    1
    37    31    27   ar
    38    18    12   ar
    39    41    35   ar
    40     2     3    1
    41    23    26    1
    42    32    33    1
    43    32    34    1
@<TRIPOS>MOLECULE
*****
 41 43 0 0 0
SMALL
GASTEIGER

@<TRIPOS>ATOM
      1 C           6.6466   -3.4742   24.3157 C.3     1  UNL1        0.2120
      2 O           6.8020   -4.9139   23.9246 O.3     1  UNL1       -0.3763
      3 H           7.5740   -5.2900   24.3757 H       1  UNL1        0.2107
      4 C           6.4911   -2.0344   24.7068 C.3     1  UNL1        0.4226
      5 F           6.3356   -0.5947   25.0979 F       1  UNL1       -0.1675
      6 F           5.1369   -2.3357   25.2773 F       1  UNL1       -0.1675
      7 F           7.8453   -1.7332   24.1363 F       1  UNL1       -0.1675
      8 C           5.4354   -3.3664   23.4375 C.3     1  UNL1        0.1307
      9 N           5.5415   -2.7158   22.0900 N.am    1  UNL1       -0.2733
     10 C           4.4250   -1.8509   21.5847 C.2     1  UNL1        0.2507
     11 O           3.2024   -1.6365   22.4268 O.2     1  UNL1       -0.2698
     12 C           4.5312   -1.2004   20.2373 C.ar    1  UNL1        0.0747
     13 C           5.0910    0.1859   20.1158 C.ar    1  UNL1        0.0628
     14 CL          5.5445    0.9217   21.3417 Cl      1  UNL1       -0.0821
     15 C           5.1971    0.8364   18.7683 C.ar    1  UNL1        0.0116
     16 C           4.7436    0.1007   17.5424 C.ar    1  UNL1        0.0017
     17 C           4.1838   -1.2857   17.6639 C.ar    1  UNL1        0.0116
     18 C           4.0777   -1.9362   19.0113 C.ar    1  UNL1        0.0628
     19 CL          3.5179   -3.3225   19.1328 Cl      1  UNL1       -0.0821
     20 C           6.9238   -4.2012   20.4673 C.3     1  UNL1        0.0233
     21 C           6.7642   -2.9302   21.2479 C.3     1  UNL1        0.0939
     22 C           7.8578   -3.5819   25.1939 C.3     1  UNL1        0.1269
     23 N           7.7172   -3.4674   26.6829 N.am    1  UNL1       -0.2982
     24 C           7.0424   -4.5596   27.4588 C.2     1  UNL1        0.2502
     25 O           6.5082   -5.7663   26.7456 O.2     1  UNL1       -0.2700
     26 H           8.0677   -2.6754   27.1510 H       1  UNL1        0.1498
     27 C           6.9017   -4.4450   28.9477 C.ar    1  UNL1        0.1053
     28 C           7.1694   -5.5332   29.9450 C.ar    1  UNL1        0.1278
     29 N           6.9018   -4.9829   31.3145 N.ar    1  UNL1       -0.1622
     30 N           6.4688   -3.5547   31.1637 N.ar    1  UNL1       -0.2163
     31 C           6.4688   -3.2223   29.7010 C.ar    1  UNL1        0.1327
     32 N           6.1004   -1.8994   29.0975 N.pl3   1  UNL1       -0.3424
     33 H           5.8275   -1.1525   29.6779 H       1  UNL1        0.1437
     34 H           6.1316   -1.7780   28.1210 H       1  UNL1        0.1437
     35 C           6.1005   -2.6225   32.2798 C.ar    1  UNL1        0.0843
     36 C           7.1125   -1.6506   32.8100 C.ar    1  UNL1        0.0215
     37 C           6.7442   -0.7185   33.9260 C.ar    1  UNL1        0.0312
     38 C           5.3638   -0.7583   34.5117 C.ar    1  UNL1        0.1402
     39 F           4.9955    0.1739   35.6277 F       1  UNL1       -0.2042
     40 C           4.3518   -1.7302   33.9814 C.ar    1  UNL1        0.0312
     41 C           4.7202   -2.6623   32.8655 C.ar    1  UNL1        0.0215
@<TRIPOS>BOND
     1    20    21    1
     2    21     9    1
     3     9     8    1
     4     8     1    1
     5     1     2    1
     6     1    22    1
     7    22    23    1
     8    23    24   am
     9    24    25    2
    10    24    27    1
    11    27    28   ar
    12    28    29   ar
    13    29    30   ar
    14    30    35    1
    15    35    36   ar
    16    36    37   ar
    17    37    38   ar
    18    38    39    1
    19    38    40   ar
    20    40    41   ar
    21    30    31   ar
    22    31    32    1
    23     1     4    1
    24     4     5    1
    25     4     6    1
    26     4     7    1
    27     9    10   am
    28    10    11    2
    29    10    12    1
    30    12    13   ar
    31    13    14    1
    32    13    15   ar
    33    15    16   ar
    34    16    17   ar
    35    17    18   ar
    36    18    19    1
    37    31    27   ar
    38    18    12   ar
    39    41    35   ar
    40     2     3    1
    41    23    26    1
    42    32    33    1
    43    32    34    1
