@<TRIPOS>MOLECULE
*****
 25 27 0 0 0
SMALL
GASTEIGER

@<TRIPOS>ATOM
      1 C          -4.9737  -15.8945   23.6316 C.2     1  UNL1        0.3551
      2 N          -4.9599  -14.9312   24.7813 N.2     1  UNL1        0.0803
      3 N          -6.3491  -14.8595   25.3426 N.2     1  UNL1       -0.0381
      4 C          -7.2214  -15.7784   24.5398 C.2     1  UNL1        0.1169
      5 C          -8.6800  -16.1154   24.6350 C.3     1  UNL1        0.0768
      6 C          -9.2885  -17.0920   23.6727 C.2     1  UNL1       -0.0098
      7 C          -8.4385  -17.7316   22.6153 C.2     1  UNL1        0.0313
      8 BR         -9.0470  -18.7083   21.6530 Br      1  UNL1       -0.0493
      9 C          -6.9798  -17.3947   22.5200 C.2     1  UNL1        0.0152
     10 C          -6.3714  -16.4181   23.4823 C.2     1  UNL1        0.1029
     11 C         -10.7471  -17.4289   23.7679 C.ar    1  UNL1       -0.0029
     12 C         -11.2054  -18.5249   24.6837 C.ar    1  UNL1        0.0028
     13 C         -12.6641  -18.8618   24.7789 C.ar    1  UNL1        0.0366
     14 C         -13.6642  -18.1026   23.9584 C.ar    1  UNL1        0.1337
     15 O         -15.1228  -18.4395   24.0536 O.3     1  UNL1       -0.5055
     16 C         -13.2058  -17.0066   23.0426 C.ar    1  UNL1        0.0366
     17 C         -11.7473  -16.6697   22.9474 C.ar    1  UNL1        0.0028
     18 H         -15.4091  -19.1241   24.6256 H       1  UNL1        0.2922
     19 C          -3.2862  -17.6790   22.7843 C.2     1  UNL1        0.3106
     20 O          -3.9532  -18.7156   23.6391 O.2     1  UNL1       -0.2469
     21 N          -3.7964  -16.2685   22.7805 N.am    1  UNL1       -0.1678
     22 H          -3.3587  -15.5881   22.2195 H       1  UNL1        0.3014
     23 C          -2.1090  -18.0530   21.9333 C.3     1  UNL1        0.1126
     24 C          -3.2981  -19.3379   20.0136 C.3     1  UNL1        0.0006
     25 C          -2.1905  -19.2406   21.0205 C.3     1  UNL1        0.0121
@<TRIPOS>BOND
     1    24    25    1
     2    25    23    1
     3    23    19    1
     4    19    20    2
     5    19    21   am
     6    21     1    1
     7     1     2    2
     8     2     3    1
     9     3     4    2
    10     4     5    1
    11     5     6    1
    12     6    11    1
    13    11    12   ar
    14    12    13   ar
    15    13    14   ar
    16    14    15    1
    17    14    16   ar
    18    16    17   ar
    19     6     7    2
    20     7     8    1
    21     7     9    1
    22     9    10    2
    23    10     1    1
    24    10     4    1
    25    17    11   ar
    26    21    22    1
    27    15    18    1
@<TRIPOS>MOLECULE
*****
 25 27 0 0 0
SMALL
GASTEIGER

@<TRIPOS>ATOM
      1 C          -4.8093  -18.8434   21.7388 C.2     1  UNL1        0.3551
      2 N          -4.8911  -20.1413   20.9914 N.2     1  UNL1        0.0803
      3 N          -6.3176  -20.6044   21.0212 N.2     1  UNL1       -0.0381
      4 C          -7.1174  -19.5925   21.7870 C.2     1  UNL1        0.1169
      5 C          -8.5741  -19.5216   22.1378 C.3     1  UNL1        0.0768
      6 C          -9.0986  -18.3623   22.9321 C.2     1  UNL1       -0.0098
      7 C          -8.1665  -17.2740   23.3756 C.2     1  UNL1        0.0313
      8 BR         -8.6911  -16.1147   24.1699 Br      1  UNL1       -0.0493
      9 C          -6.7098  -17.3449   23.0248 C.2     1  UNL1        0.0152
     10 C          -6.1853  -18.5042   22.2305 C.2     1  UNL1        0.1029
     11 C         -10.5553  -18.2914   23.2829 C.ar    1  UNL1       -0.0029
     12 C         -11.5154  -17.5975   22.3629 C.ar    1  UNL1        0.0028
     13 C         -12.9722  -17.5266   22.7137 C.ar    1  UNL1        0.0366
     14 C         -13.4687  -18.1497   23.9846 C.ar    1  UNL1        0.1337
     15 O         -14.9253  -18.0788   24.3354 O.3     1  UNL1       -0.5055
     16 C         -12.5085  -18.8436   24.9047 C.ar    1  UNL1        0.0366
     17 C         -11.0518  -18.9145   24.5538 C.ar    1  UNL1        0.0028
     18 H         -15.5251  -17.6453   23.7607 H       1  UNL1        0.2922
     19 C          -2.8474  -17.4333   20.7836 C.2     1  UNL1        0.3106
     20 O          -3.3654  -17.6544   19.3933 O.2     1  UNL1       -0.2469
     21 N          -3.5694  -18.0278   21.9563 N.am    1  UNL1       -0.1678
     22 H          -3.2294  -17.8827   22.8688 H       1  UNL1        0.3014
     23 C          -1.6075  -16.6177   21.0011 C.3     1  UNL1        0.1126
     24 C           0.0244  -18.2582   19.8196 C.3     1  UNL1        0.0006
     25 C          -0.3941  -16.8567   20.1521 C.3     1  UNL1        0.0121
@<TRIPOS>BOND
     1    24    25    1
     2    25    23    1
     3    23    19    1
     4    19    20    2
     5    19    21   am
     6    21     1    1
     7     1     2    2
     8     2     3    1
     9     3     4    2
    10     4     5    1
    11     5     6    1
    12     6    11    1
    13    11    12   ar
    14    12    13   ar
    15    13    14   ar
    16    14    15    1
    17    14    16   ar
    18    16    17   ar
    19     6     7    2
    20     7     8    1
    21     7     9    1
    22     9    10    2
    23    10     1    1
    24    10     4    1
    25    17    11   ar
    26    21    22    1
    27    15    18    1
@<TRIPOS>MOLECULE
*****
 25 27 0 0 0
SMALL
GASTEIGER

@<TRIPOS>ATOM
      1 C         -10.2075  -19.1601   21.1852 C.2     1  UNL1        0.3551
      2 N         -10.5688  -19.8049   19.8799 N.2     1  UNL1        0.0803
      3 N          -9.3008  -20.0471   19.1160 N.2     1  UNL1       -0.0381
      4 C          -8.1559  -19.5520   19.9491 C.2     1  UNL1        0.1169
      5 C          -6.6755  -19.5295   19.7084 C.3     1  UNL1        0.0768
      6 C          -5.7555  -18.9589   20.7466 C.2     1  UNL1       -0.0098
      7 C          -6.3159  -18.4107   22.0254 C.2     1  UNL1        0.0313
      8 BR         -5.3958  -17.8400   23.0636 Br      1  UNL1       -0.0493
      9 C          -7.7963  -18.4331   22.2661 C.2     1  UNL1        0.0152
     10 C          -8.7163  -19.0038   21.2279 C.2     1  UNL1        0.1029
     11 C          -4.2751  -18.9364   20.5059 C.ar    1  UNL1       -0.0029
     12 C          -3.7183  -18.1967   19.3258 C.ar    1  UNL1        0.0028
     13 C          -2.2378  -18.1743   19.0851 C.ar    1  UNL1        0.0366
     14 C          -1.3143  -18.8916   20.0246 C.ar    1  UNL1        0.1337
     15 O           0.1661  -18.8692   19.7839 O.3     1  UNL1       -0.5055
     16 C          -1.8712  -19.6313   21.2047 C.ar    1  UNL1        0.0366
     17 C          -3.3516  -19.6537   21.4454 C.ar    1  UNL1        0.0028
     18 H           0.5139  -18.4071   19.0467 H       1  UNL1        0.2922
     19 C         -12.2636  -17.7674   21.9487 C.2     1  UNL1        0.3106
     20 O         -12.3974  -17.2058   20.5642 O.2     1  UNL1       -0.2469
     21 N         -11.1687  -18.7446   22.2592 N.am    1  UNL1       -0.1678
     22 H         -11.0810  -19.1131   23.1679 H       1  UNL1        0.3014
     23 C         -13.2248  -17.3519   23.0227 C.3     1  UNL1        0.1126
     24 C         -14.7551  -18.4454   24.8151 C.3     1  UNL1        0.0006
     25 C         -13.3874  -18.1967   24.2516 C.3     1  UNL1        0.0121
@<TRIPOS>BOND
     1    24    25    1
     2    25    23    1
     3    23    19    1
     4    19    20    2
     5    19    21   am
     6    21     1    1
     7     1     2    2
     8     2     3    1
     9     3     4    2
    10     4     5    1
    11     5     6    1
    12     6    11    1
    13    11    12   ar
    14    12    13   ar
    15    13    14   ar
    16    14    15    1
    17    14    16   ar
    18    16    17   ar
    19     6     7    2
    20     7     8    1
    21     7     9    1
    22     9    10    2
    23    10     1    1
    24    10     4    1
    25    17    11   ar
    26    21    22    1
    27    15    18    1
@<TRIPOS>MOLECULE
*****
 25 27 0 0 0
SMALL
GASTEIGER

@<TRIPOS>ATOM
      1 C           6.2995   -3.7876   24.2726 C.2     1  UNL1        0.3551
      2 N           6.3216   -2.8202   25.4187 N.2     1  UNL1        0.0803
      3 N           5.4921   -1.6301   25.0370 N.2     1  UNL1       -0.0381
      4 C           4.9573   -1.8620   23.6549 C.2     1  UNL1        0.1169
      5 C           4.0805   -1.0312   22.7655 C.3     1  UNL1        0.0768
      6 C           3.7026   -1.5339   21.4037 C.2     1  UNL1       -0.0098
      7 C           4.2015   -2.8672   20.9313 C.2     1  UNL1        0.0313
      8 BR          3.8236   -3.3698   19.5694 Br      1  UNL1       -0.0493
      9 C           5.0784   -3.6980   21.8207 C.2     1  UNL1        0.0152
     10 C           5.4563   -3.1953   23.1825 C.2     1  UNL1        0.1029
     11 C           2.8257   -0.7031   20.5143 C.ar    1  UNL1       -0.0029
     12 C           1.3523   -0.6178   20.7817 C.ar    1  UNL1        0.0028
     13 C           0.4754    0.2130   19.8923 C.ar    1  UNL1        0.0366
     14 C           1.0721    0.9585   18.7356 C.ar    1  UNL1        0.1337
     15 O           0.1953    1.7893   17.8462 O.3     1  UNL1       -0.5055
     16 C           2.5456    0.8732   18.4682 C.ar    1  UNL1        0.0366
     17 C           3.4224    0.0425   19.3576 C.ar    1  UNL1        0.0028
     18 H          -0.7251    1.8426   18.0132 H       1  UNL1        0.2922
     19 C           8.1812   -5.3069   23.3235 C.2     1  UNL1        0.3106
     20 O           8.6662   -4.1728   22.4697 O.2     1  UNL1       -0.2469
     21 N           6.9979   -5.1142   24.2249 N.am    1  UNL1       -0.1678
     22 H           6.6796   -5.8585   24.7852 H       1  UNL1        0.3014
     23 C           8.8796   -6.6335   23.2758 C.3     1  UNL1        0.1126
     24 C           9.2535   -7.8406   25.5459 C.3     1  UNL1        0.0006
     25 C           8.5086   -7.7118   24.2503 C.3     1  UNL1        0.0121
@<TRIPOS>BOND
     1    24    25    1
     2    25    23    1
     3    23    19    1
     4    19    20    2
     5    19    21   am
     6    21     1    1
     7     1     2    2
     8     2     3    1
     9     3     4    2
    10     4     5    1
    11     5     6    1
    12     6    11    1
    13    11    12   ar
    14    12    13   ar
    15    13    14   ar
    16    14    15    1
    17    14    16   ar
    18    16    17   ar
    19     6     7    2
    20     7     8    1
    21     7     9    1
    22     9    10    2
    23    10     1    1
    24    10     4    1
    25    17    11   ar
    26    21    22    1
    27    15    18    1
@<TRIPOS>MOLECULE
*****
 25 27 0 0 0
SMALL
GASTEIGER

@<TRIPOS>ATOM
      1 C          -4.3698    4.7072   23.4812 C.2     1  UNL1        0.3551
      2 N          -5.5228    5.0618   24.3728 N.2     1  UNL1        0.0803
      3 N          -5.1872    4.6143   25.7646 N.2     1  UNL1       -0.0381
      4 C          -3.8267    3.9832   25.7332 C.2     1  UNL1        0.1169
      5 C          -2.9827    3.3637   26.8073 C.3     1  UNL1        0.0768
      6 C          -1.6335    2.8016   26.4702 C.2     1  UNL1       -0.0098
      7 C          -1.1284    2.8590   25.0591 C.2     1  UNL1        0.0313
      8 BR          0.2209    2.2968   24.7219 Br      1  UNL1       -0.0493
      9 C          -1.9724    3.4785   23.9849 C.2     1  UNL1        0.0152
     10 C          -3.3216    4.0406   24.3220 C.2     1  UNL1        0.1029
     11 C          -0.7894    2.1821   27.5444 C.ar    1  UNL1       -0.0029
     12 C           0.2143    3.0159   28.2840 C.ar    1  UNL1        0.0028
     13 C           1.0584    2.3964   29.3582 C.ar    1  UNL1        0.0366
     14 C           0.8986    0.9429   29.6927 C.ar    1  UNL1        0.1337
     15 O           1.7426    0.3234   30.7668 O.3     1  UNL1       -0.5055
     16 C          -0.1052    0.1090   28.9530 C.ar    1  UNL1        0.0366
     17 C          -0.9492    0.7286   27.8789 C.ar    1  UNL1        0.0028
     18 H           2.3697    0.8443   31.2288 H       1  UNL1        0.2922
     19 C          -4.3969    3.8384   21.0328 C.2     1  UNL1        0.3106
     20 O          -4.6022    2.4387   21.5318 O.2     1  UNL1       -0.2469
     21 N          -4.2807    4.9726   22.0075 N.am    1  UNL1       -0.1678
     22 H          -4.1460    5.8912   21.6801 H       1  UNL1        0.3014
     23 C          -4.3078    4.1038   19.5592 C.3     1  UNL1        0.1126
     24 C          -6.7677    3.5941   18.8965 C.3     1  UNL1        0.0006
     25 C          -5.2975    3.4762   18.6229 C.3     1  UNL1        0.0121
@<TRIPOS>BOND
     1    24    25    1
     2    25    23    1
     3    23    19    1
     4    19    20    2
     5    19    21   am
     6    21     1    1
     7     1     2    2
     8     2     3    1
     9     3     4    2
    10     4     5    1
    11     5     6    1
    12     6    11    1
    13    11    12   ar
    14    12    13   ar
    15    13    14   ar
    16    14    15    1
    17    14    16   ar
    18    16    17   ar
    19     6     7    2
    20     7     8    1
    21     7     9    1
    22     9    10    2
    23    10     1    1
    24    10     4    1
    25    17    11   ar
    26    21    22    1
    27    15    18    1
@<TRIPOS>MOLECULE
*****
 25 27 0 0 0
SMALL
GASTEIGER

@<TRIPOS>ATOM
      1 C           6.7482   -3.9250   21.6779 C.2     1  UNL1        0.3551
      2 N           7.6032   -5.0740   21.2322 N.2     1  UNL1        0.0803
      3 N           8.1805   -5.7238   22.4547 N.2     1  UNL1       -0.0381
      4 C           7.6822   -4.9764   23.6560 C.2     1  UNL1        0.1169
      5 C           7.9201   -5.1645   25.1250 C.3     1  UNL1        0.0768
      6 C           7.2728   -4.2409   26.1139 C.2     1  UNL1       -0.0098
      7 C           6.3877   -3.1293   25.6339 C.2     1  UNL1        0.0313
      8 BR          5.7404   -2.2056   26.6229 Br      1  UNL1       -0.0493
      9 C           6.1497   -2.9411   24.1648 C.2     1  UNL1        0.0152
     10 C           6.7970   -3.8647   23.1759 C.2     1  UNL1        0.1029
     11 C           7.5108   -4.4291   27.5830 C.ar    1  UNL1       -0.0029
     12 C           8.6550   -3.7282   28.2532 C.ar    1  UNL1        0.0028
     13 C           8.8930   -3.9164   29.7223 C.ar    1  UNL1        0.0366
     14 C           7.9867   -4.8055   30.5210 C.ar    1  UNL1        0.1337
     15 O           8.2246   -4.9938   31.9900 O.3     1  UNL1       -0.5055
     16 C           6.8424   -5.5065   29.8506 C.ar    1  UNL1        0.0366
     17 C           6.6045   -5.3183   28.3816 C.ar    1  UNL1        0.0028
     18 H           8.9394   -4.5559   32.4087 H       1  UNL1        0.2922
     19 C           4.6431   -3.4150   20.2432 C.2     1  UNL1        0.3106
     20 O           4.0756   -4.7573   20.5987 O.2     1  UNL1       -0.2469
     21 N           5.9793   -2.9989   20.7828 N.am    1  UNL1       -0.1678
     22 H           6.3518   -2.1179   20.5495 H       1  UNL1        0.3014
     23 C           3.8742   -2.4889   19.3481 C.3     1  UNL1        0.1126
     24 C           2.8999   -1.0833   21.3039 C.3     1  UNL1        0.0006
     25 C           2.7777   -1.6365   19.9150 C.3     1  UNL1        0.0121
@<TRIPOS>BOND
     1    24    25    1
     2    25    23    1
     3    23    19    1
     4    19    20    2
     5    19    21   am
     6    21     1    1
     7     1     2    2
     8     2     3    1
     9     3     4    2
    10     4     5    1
    11     5     6    1
    12     6    11    1
    13    11    12   ar
    14    12    13   ar
    15    13    14   ar
    16    14    15    1
    17    14    16   ar
    18    16    17   ar
    19     6     7    2
    20     7     8    1
    21     7     9    1
    22     9    10    2
    23    10     1    1
    24    10     4    1
    25    17    11   ar
    26    21    22    1
    27    15    18    1
@<TRIPOS>MOLECULE
*****
 25 27 0 0 0
SMALL
GASTEIGER

@<TRIPOS>ATOM
      1 C          -2.1472    3.6596   20.6493 C.2     1  UNL1        0.3551
      2 N          -2.5150    4.4995   19.4621 N.2     1  UNL1        0.0803
      3 N          -1.4682    4.2950   18.4074 N.2     1  UNL1       -0.0381
      4 C          -0.4535    3.3286   18.9427 C.2     1  UNL1        0.1169
      5 C           0.7984    2.7555   18.3475 C.3     1  UNL1        0.0768
      6 C           1.6306    1.7897   19.1378 C.2     1  UNL1       -0.0098
      7 C           1.2110    1.3970   20.5232 C.2     1  UNL1        0.0313
      8 BR          2.0432    0.4311   21.3135 Br      1  UNL1       -0.0493
      9 C          -0.0410    1.9701   21.1185 C.2     1  UNL1        0.0152
     10 C          -0.8732    2.9359   20.3282 C.2     1  UNL1        0.1029
     11 C           2.8826    1.2166   18.5425 C.ar    1  UNL1       -0.0029
     12 C           4.1888    1.9351   18.7079 C.ar    1  UNL1        0.0028
     13 C           5.4407    1.3620   18.1126 C.ar    1  UNL1        0.0366
     14 C           5.3863    0.0703   17.3519 C.ar    1  UNL1        0.1337
     15 O           6.6381   -0.5028   16.7566 O.3     1  UNL1       -0.5055
     16 C           4.0800   -0.6482   17.1865 C.ar    1  UNL1        0.0366
     17 C           2.8281   -0.0750   17.7818 C.ar    1  UNL1        0.0028
     18 H           7.4541   -0.0539   16.8599 H       1  UNL1        0.2922
     19 C          -4.3794    3.2229   21.9049 C.2     1  UNL1        0.3106
     20 O          -5.0697    2.9840   20.5947 O.2     1  UNL1       -0.2469
     21 N          -2.9182    3.5606   21.9322 N.am    1  UNL1       -0.1678
     22 H          -2.4652    3.7174   22.7920 H       1  UNL1        0.3014
     23 C          -5.1504    3.1239   23.1878 C.3     1  UNL1        0.1126
     24 C          -7.4169    4.3771   22.9820 C.3     1  UNL1        0.0006
     25 C          -6.0591    4.2422   23.6049 C.3     1  UNL1        0.0121
@<TRIPOS>BOND
     1    24    25    1
     2    25    23    1
     3    23    19    1
     4    19    20    2
     5    19    21   am
     6    21     1    1
     7     1     2    2
     8     2     3    1
     9     3     4    2
    10     4     5    1
    11     5     6    1
    12     6    11    1
    13    11    12   ar
    14    12    13   ar
    15    13    14   ar
    16    14    15    1
    17    14    16   ar
    18    16    17   ar
    19     6     7    2
    20     7     8    1
    21     7     9    1
    22     9    10    2
    23    10     1    1
    24    10     4    1
    25    17    11   ar
    26    21    22    1
    27    15    18    1
@<TRIPOS>MOLECULE
*****
 25 27 0 0 0
SMALL
GASTEIGER

@<TRIPOS>ATOM
      1 C           1.9790    3.7376   35.1755 C.2     1  UNL1        0.3551
      2 N           1.1441    4.9835   35.1979 N.2     1  UNL1        0.0803
      3 N           0.4883    5.1263   33.8565 N.2     1  UNL1       -0.0381
      4 C           0.9179    3.9685   33.0050 C.2     1  UNL1        0.1169
      5 C           0.5892    3.5849   31.5926 C.3     1  UNL1        0.0768
      6 C           1.1818    2.3430   30.9955 C.2     1  UNL1       -0.0098
      7 C           2.1030    1.4848   31.8107 C.2     1  UNL1        0.0313
      8 BR          2.6957    0.2429   31.2135 Br      1  UNL1       -0.0493
      9 C           2.4318    1.8684   33.2231 C.2     1  UNL1        0.0152
     10 C           1.8392    3.1103   33.8202 C.2     1  UNL1        0.1029
     11 C           0.8530    1.9594   29.5831 C.ar    1  UNL1       -0.0029
     12 C           1.6599    2.5157   28.4476 C.ar    1  UNL1        0.0028
     13 C           1.3311    2.1321   27.0352 C.ar    1  UNL1        0.0366
     14 C           0.1954    1.1922   26.7584 C.ar    1  UNL1        0.1337
     15 O          -0.1334    0.8086   25.3461 O.3     1  UNL1       -0.5055
     16 C          -0.6115    0.6359   27.8939 C.ar    1  UNL1        0.0366
     17 C          -0.2827    1.0195   29.3063 C.ar    1  UNL1        0.0028
     18 H           0.3706    1.1561   24.6368 H       1  UNL1        0.2922
     19 C           2.1886    3.0076   37.6601 C.2     1  UNL1        0.3106
     20 O           0.7398    3.3300   37.8770 O.2     1  UNL1       -0.2469
     21 N           2.8082    3.2114   36.3094 N.am    1  UNL1       -0.1678
     22 H           3.7591    2.9998   36.1670 H       1  UNL1        0.3014
     23 C           3.0178    2.4813   38.7939 C.3     1  UNL1        0.1126
     24 C           1.5998    0.3744   39.3419 C.3     1  UNL1        0.0006
     25 C           2.9372    1.0320   39.1724 C.3     1  UNL1        0.0121
@<TRIPOS>BOND
     1    24    25    1
     2    25    23    1
     3    23    19    1
     4    19    20    2
     5    19    21   am
     6    21     1    1
     7     1     2    2
     8     2     3    1
     9     3     4    2
    10     4     5    1
    11     5     6    1
    12     6    11    1
    13    11    12   ar
    14    12    13   ar
    15    13    14   ar
    16    14    15    1
    17    14    16   ar
    18    16    17   ar
    19     6     7    2
    20     7     8    1
    21     7     9    1
    22     9    10    2
    23    10     1    1
    24    10     4    1
    25    17    11   ar
    26    21    22    1
    27    15    18    1
@<TRIPOS>MOLECULE
*****
 25 27 0 0 0
SMALL
GASTEIGER

@<TRIPOS>ATOM
      1 C           1.9184    0.7537   30.4222 C.2     1  UNL1        0.3551
      2 N           2.6554   -0.5310   30.1849 N.2     1  UNL1        0.0803
      3 N           3.4397   -0.8511   31.4229 N.2     1  UNL1       -0.0381
      4 C           3.1874    0.2359   32.4253 C.2     1  UNL1        0.1169
      5 C           3.6923    0.4508   33.8213 C.3     1  UNL1        0.0768
      6 C           3.2570    1.6574   34.5988 C.2     1  UNL1       -0.0098
      7 C           2.3169    2.6491   33.9804 C.2     1  UNL1        0.0313
      8 BR          1.8817    3.8558   34.7580 Br      1  UNL1       -0.0493
      9 C           1.8120    2.4343   32.5843 C.2     1  UNL1        0.0152
     10 C           2.2472    1.2277   31.8068 C.2     1  UNL1        0.1029
     11 C           3.7620    1.8722   35.9949 C.ar    1  UNL1       -0.0029
     12 C           2.9945    1.3265   37.1624 C.ar    1  UNL1        0.0028
     13 C           3.4995    1.5413   38.5584 C.ar    1  UNL1        0.0366
     14 C           4.7720    2.3019   38.7869 C.ar    1  UNL1        0.1337
     15 O           5.2770    2.5167   40.1829 O.3     1  UNL1       -0.5055
     16 C           5.5395    2.8476   37.6194 C.ar    1  UNL1        0.0366
     17 C           5.0345    2.6328   36.2234 C.ar    1  UNL1        0.0028
     18 H           4.7975    2.1758   40.9122 H       1  UNL1        0.2922
     19 C          -0.2409    0.7645   28.9774 C.2     1  UNL1        0.3106
     20 O          -0.5871   -0.6041   29.4846 O.2     1  UNL1       -0.2469
     21 N           1.0119    1.4433   29.4462 N.am    1  UNL1       -0.1678
     22 H           1.2391    2.3416   29.1133 H       1  UNL1        0.3014
     23 C          -1.1474    1.4541   28.0014 C.3     1  UNL1        0.1126
     24 C          -0.0006    1.2722   25.6773 C.3     1  UNL1        0.0006
     25 C          -0.5744    2.1109   26.7806 C.3     1  UNL1        0.0121
@<TRIPOS>BOND
     1    24    25    1
     2    25    23    1
     3    23    19    1
     4    19    20    2
     5    19    21   am
     6    21     1    1
     7     1     2    2
     8     2     3    1
     9     3     4    2
    10     4     5    1
    11     5     6    1
    12     6    11    1
    13    11    12   ar
    14    12    13   ar
    15    13    14   ar
    16    14    15    1
    17    14    16   ar
    18    16    17   ar
    19     6     7    2
    20     7     8    1
    21     7     9    1
    22     9    10    2
    23    10     1    1
    24    10     4    1
    25    17    11   ar
    26    21    22    1
    27    15    18    1
