@<TRIPOS>MOLECULE
*****
 30 32 0 0 0
SMALL
GASTEIGER

@<TRIPOS>ATOM
      1 N          -7.9728  -18.7133   21.3171 N.pl3   1  UNL1       -0.3037
      2 C          -8.1106  -17.9063   22.5740 C.ar    1  UNL1        0.0490
      3 C          -7.5658  -16.5100   22.6322 C.ar    1  UNL1        0.0153
      4 C          -7.7037  -15.7029   23.8891 C.ar    1  UNL1        0.0124
      5 C          -8.3864  -16.2922   25.0877 C.ar    1  UNL1        0.0791
      6 C          -8.9313  -17.6885   25.0294 C.ar    1  UNL1        0.0685
      7 CL         -9.6140  -18.2778   26.2280 Cl      1  UNL1       -0.0815
      8 C          -8.7934  -18.4956   23.7726 C.ar    1  UNL1        0.0266
      9 C          -8.5243  -15.4851   26.3445 C.1     1  UNL1        0.1013
     10 N          -8.6622  -14.6781   27.6014 N.1     1  UNL1       -0.1908
     11 N          -4.2478  -19.3787   20.4525 N.3     1  UNL1       -0.1576
     12 C          -4.8700  -20.6929   20.0842 C.3     1  UNL1        0.0972
     13 C          -6.3412  -20.6036   20.3633 C.3     1  UNL1        0.0403
     14 C          -6.6281  -19.2342   20.9040 C.3     1  UNL1        0.0922
     15 C          -5.3343  -18.4772   20.9591 C.3     1  UNL1        0.1151
     16 C          -1.3407  -18.6765   20.2170 C.3     1  UNL1        0.1960
     17 S          -2.7943  -19.0276   20.3347 S.O2    1  UNL1        0.0457
     18 O          -3.1530  -17.8115   19.5332 O.2     1  UNL1       -0.1572
     19 O          -2.4355  -20.2437   21.1363 O.2     1  UNL1       -0.1572
     20 C          -9.1795  -18.9995   20.4734 C.3     1  UNL1        0.1176
     21 C         -10.3916  -18.1219   20.5760 C.ar    1  UNL1        0.0015
     22 C         -10.4871  -16.8751   19.7475 C.ar    1  UNL1       -0.0027
     23 C         -11.6992  -15.9974   19.8501 C.ar    1  UNL1       -0.0003
     24 C         -12.8158  -16.3666   20.7811 C.ar    1  UNL1       -0.0001
     25 C         -12.7204  -17.6134   21.6096 C.ar    1  UNL1        0.0036
     26 C         -11.5083  -18.4911   21.5070 C.ar    1  UNL1        0.0691
     27 C         -11.4127  -19.7378   22.3355 C.3     1  UNL1        0.4183
     28 F         -11.3172  -20.9846   23.1639 F       1  UNL1       -0.1659
     29 F         -11.1586  -20.5424   21.0954 F       1  UNL1       -0.1659
     30 F         -11.6669  -18.9333   23.5756 F       1  UNL1       -0.1659
@<TRIPOS>BOND
     1    16    17    1
     2    17    18    2
     3    17    19    2
     4    17    11    1
     5    11    12    1
     6    12    13    1
     7    13    14    1
     8    14     1    1
     9     1    20    1
    10    20    21    1
    11    21    22   ar
    12    22    23   ar
    13    23    24   ar
    14    24    25   ar
    15    25    26   ar
    16    26    27    1
    17    27    28    1
    18    27    29    1
    19    27    30    1
    20     1     2    1
    21     2     3   ar
    22     3     4   ar
    23     4     5   ar
    24     5     9    1
    25     9    10    3
    26     5     6   ar
    27     6     7    1
    28     6     8   ar
    29    14    15    1
    30    15    11    1
    31    26    21   ar
    32     8     2   ar
@<TRIPOS>MOLECULE
*****
 30 32 0 0 0
SMALL
GASTEIGER

@<TRIPOS>ATOM
      1 N          -8.0407  -18.8758   21.4833 N.pl3   1  UNL1       -0.3037
      2 C          -8.1637  -18.0660   22.7398 C.ar    1  UNL1        0.0490
      3 C          -8.7581  -18.6798   23.9726 C.ar    1  UNL1        0.0153
      4 C          -8.8810  -17.8700   25.2292 C.ar    1  UNL1        0.0124
      5 C          -8.4096  -16.4462   25.2530 C.ar    1  UNL1        0.0791
      6 C          -7.8152  -15.8323   24.0202 C.ar    1  UNL1        0.0685
      7 CL         -7.3437  -14.4085   24.0440 Cl      1  UNL1       -0.0815
      8 C          -7.6922  -16.6421   22.7636 C.ar    1  UNL1        0.0266
      9 C          -8.5326  -15.6364   26.5096 C.1     1  UNL1        0.1013
     10 N          -8.6555  -14.8265   27.7662 N.1     1  UNL1       -0.1908
     11 N          -4.3193  -19.4450   20.5387 N.3     1  UNL1       -0.1576
     12 C          -4.9260  -20.7540   20.1281 C.3     1  UNL1        0.0972
     13 C          -6.3940  -20.7001   20.4320 C.3     1  UNL1        0.0403
     14 C          -6.6944  -19.3578   21.0303 C.3     1  UNL1        0.0922
     15 C          -5.4122  -18.5821   21.0963 C.3     1  UNL1        0.1151
     16 C          -1.4277  -18.6861   20.2885 C.3     1  UNL1        0.1960
     17 S          -2.8735  -19.0656   20.4136 S.O2    1  UNL1        0.0457
     18 O          -2.4878  -20.2687   21.2221 O.2     1  UNL1       -0.1572
     19 O          -3.2592  -17.8624   19.6051 O.2     1  UNL1       -0.1572
     20 C          -9.2641  -19.2037   20.6796 C.3     1  UNL1        0.1176
     21 C         -10.4489  -18.2843   20.7082 C.ar    1  UNL1        0.0015
     22 C         -10.5305  -17.1359   19.7468 C.ar    1  UNL1       -0.0027
     23 C         -11.7154  -16.2165   19.7754 C.ar    1  UNL1       -0.0003
     24 C         -12.8187  -16.4455   20.7655 C.ar    1  UNL1       -0.0001
     25 C         -12.7371  -17.5940   21.7270 C.ar    1  UNL1        0.0036
     26 C         -11.5522  -18.5134   21.6984 C.ar    1  UNL1        0.0691
     27 C         -11.4706  -19.6618   22.6599 C.3     1  UNL1        0.4183
     28 F         -11.3890  -20.8102   23.6213 F       1  UNL1       -0.1659
     29 F         -11.7324  -18.7247   23.8014 F       1  UNL1       -0.1659
     30 F         -11.2089  -20.5989   21.5183 F       1  UNL1       -0.1659
@<TRIPOS>BOND
     1    16    17    1
     2    17    18    2
     3    17    19    2
     4    17    11    1
     5    11    12    1
     6    12    13    1
     7    13    14    1
     8    14     1    1
     9     1    20    1
    10    20    21    1
    11    21    22   ar
    12    22    23   ar
    13    23    24   ar
    14    24    25   ar
    15    25    26   ar
    16    26    27    1
    17    27    28    1
    18    27    29    1
    19    27    30    1
    20     1     2    1
    21     2     3   ar
    22     3     4   ar
    23     4     5   ar
    24     5     9    1
    25     9    10    3
    26     5     6   ar
    27     6     7    1
    28     6     8   ar
    29    14    15    1
    30    15    11    1
    31    26    21   ar
    32     8     2   ar
@<TRIPOS>MOLECULE
*****
 30 32 0 0 0
SMALL
GASTEIGER

@<TRIPOS>ATOM
      1 N          -7.2208  -18.2922   22.3556 N.pl3   1  UNL1       -0.3037
      2 C          -5.8321  -18.4399   21.8082 C.ar    1  UNL1        0.0490
      3 C          -5.6261  -18.9554   20.4147 C.ar    1  UNL1        0.0153
      4 C          -4.2374  -19.1031   19.8673 C.ar    1  UNL1        0.0124
      5 C          -3.0547  -18.7353   20.7133 C.ar    1  UNL1        0.0791
      6 C          -3.2606  -18.2197   22.1068 C.ar    1  UNL1        0.0685
      7 CL         -2.0779  -17.8519   22.9529 Cl      1  UNL1       -0.0815
      8 C          -4.6493  -18.0721   22.6543 C.ar    1  UNL1        0.0266
      9 C          -1.6660  -18.8830   20.1658 C.1     1  UNL1        0.1013
     10 N          -0.2773  -19.0307   19.6184 N.1     1  UNL1       -0.1908
     11 N          -7.5731  -15.7625   25.2783 N.3     1  UNL1       -0.1576
     12 C          -8.4787  -15.1480   24.2524 C.3     1  UNL1        0.0972
     13 C          -8.4569  -16.0209   23.0326 C.3     1  UNL1        0.0403
     14 C          -7.5379  -17.1748   23.3048 C.3     1  UNL1        0.0922
     15 C          -6.9917  -17.0151   24.6926 C.3     1  UNL1        0.1151
     16 C          -7.0216  -14.6768   28.0200 C.3     1  UNL1        0.1960
     17 S          -7.2973  -15.2197   26.6491 S.O2    1  UNL1        0.0457
     18 O          -5.8286  -15.1984   26.3452 O.2     1  UNL1       -0.1572
     19 O          -8.7661  -15.2409   26.9531 O.2     1  UNL1       -0.1572
     20 C          -8.2924  -19.2619   21.9539 C.3     1  UNL1        0.1176
     21 C          -9.6946  -18.7791   21.7286 C.ar    1  UNL1        0.0015
     22 C         -10.0773  -18.1758   20.4097 C.ar    1  UNL1       -0.0027
     23 C         -11.4795  -17.6931   20.1844 C.ar    1  UNL1       -0.0003
     24 C         -12.4990  -17.8137   21.2780 C.ar    1  UNL1       -0.0001
     25 C         -12.1164  -18.4170   22.5970 C.ar    1  UNL1        0.0036
     26 C         -10.7142  -18.8998   22.8223 C.ar    1  UNL1        0.0691
     27 C         -10.3315  -19.5031   24.1412 C.3     1  UNL1        0.4183
     28 F          -9.9488  -20.1064   25.4601 F       1  UNL1       -0.1659
     29 F         -10.4123  -20.8739   23.5376 F       1  UNL1       -0.1659
     30 F         -10.2507  -18.1323   24.7448 F       1  UNL1       -0.1659
@<TRIPOS>BOND
     1    16    17    1
     2    17    18    2
     3    17    19    2
     4    17    11    1
     5    11    12    1
     6    12    13    1
     7    13    14    1
     8    14     1    1
     9     1    20    1
    10    20    21    1
    11    21    22   ar
    12    22    23   ar
    13    23    24   ar
    14    24    25   ar
    15    25    26   ar
    16    26    27    1
    17    27    28    1
    18    27    29    1
    19    27    30    1
    20     1     2    1
    21     2     3   ar
    22     3     4   ar
    23     4     5   ar
    24     5     9    1
    25     9    10    3
    26     5     6   ar
    27     6     7    1
    28     6     8   ar
    29    14    15    1
    30    15    11    1
    31    26    21   ar
    32     8     2   ar
@<TRIPOS>MOLECULE
*****
 30 32 0 0 0
SMALL
GASTEIGER

@<TRIPOS>ATOM
      1 N          -8.2517  -18.0955   21.9513 N.pl3   1  UNL1       -0.3037
      2 C          -8.2722  -17.3077   23.2277 C.ar    1  UNL1        0.0490
      3 C          -7.7762  -15.8922   23.2434 C.ar    1  UNL1        0.0153
      4 C          -7.7967  -15.1045   24.5198 C.ar    1  UNL1        0.0124
      5 C          -8.3132  -15.7322   25.7803 C.ar    1  UNL1        0.0791
      6 C          -8.8092  -17.1478   25.7646 C.ar    1  UNL1        0.0685
      7 CL         -9.3257  -17.7756   27.0252 Cl      1  UNL1       -0.0815
      8 C          -8.7887  -17.9356   24.4883 C.ar    1  UNL1        0.0266
      9 C          -8.3337  -14.9445   27.0567 C.1     1  UNL1        0.1013
     10 N          -8.3542  -14.1568   28.3330 N.1     1  UNL1       -0.1908
     11 N          -4.5697  -18.9249   21.0455 N.3     1  UNL1       -0.1576
     12 C          -5.2932  -19.4796   19.8543 C.3     1  UNL1        0.0972
     13 C          -6.7606  -19.2364   20.0487 C.3     1  UNL1        0.0403
     14 C          -6.9438  -18.5314   21.3599 C.3     1  UNL1        0.0922
     15 C          -5.5898  -18.3389   21.9760 C.3     1  UNL1        0.1151
     16 C          -1.6031  -18.9781   21.4889 C.3     1  UNL1        0.1960
     17 S          -3.0864  -18.9515   21.2672 S.O2    1  UNL1        0.0457
     18 O          -3.1207  -17.5069   21.6696 O.2     1  UNL1       -0.1572
     19 O          -3.0521  -20.3961   20.8649 O.2     1  UNL1       -0.1572
     20 C          -9.5389  -18.4473   21.2663 C.3     1  UNL1        0.1176
     21 C         -10.8491  -18.1509   21.9339 C.ar    1  UNL1        0.0015
     22 C         -11.3266  -19.0131   23.0646 C.ar    1  UNL1       -0.0027
     23 C         -12.6368  -18.7167   23.7322 C.ar    1  UNL1       -0.0003
     24 C         -13.4694  -17.5583   23.2690 C.ar    1  UNL1       -0.0001
     25 C         -12.9919  -16.6961   22.1381 C.ar    1  UNL1        0.0036
     26 C         -11.6817  -16.9924   21.4706 C.ar    1  UNL1        0.0691
     27 C         -11.2042  -16.1303   20.3398 C.3     1  UNL1        0.4183
     28 F         -10.7267  -15.2682   19.2091 F       1  UNL1       -0.1659
     29 F         -10.4441  -15.2770   21.3114 F       1  UNL1       -0.1659
     30 F         -11.9644  -16.9836   19.3682 F       1  UNL1       -0.1659
@<TRIPOS>BOND
     1    16    17    1
     2    17    18    2
     3    17    19    2
     4    17    11    1
     5    11    12    1
     6    12    13    1
     7    13    14    1
     8    14     1    1
     9     1    20    1
    10    20    21    1
    11    21    22   ar
    12    22    23   ar
    13    23    24   ar
    14    24    25   ar
    15    25    26   ar
    16    26    27    1
    17    27    28    1
    18    27    29    1
    19    27    30    1
    20     1     2    1
    21     2     3   ar
    22     3     4   ar
    23     4     5   ar
    24     5     9    1
    25     9    10    3
    26     5     6   ar
    27     6     7    1
    28     6     8   ar
    29    14    15    1
    30    15    11    1
    31    26    21   ar
    32     8     2   ar
@<TRIPOS>MOLECULE
*****
 30 32 0 0 0
SMALL
GASTEIGER

@<TRIPOS>ATOM
      1 N          -6.8936  -18.1714   22.1623 N.pl3   1  UNL1       -0.3037
      2 C          -5.4897  -18.3411   21.6620 C.ar    1  UNL1        0.0490
      3 C          -5.2453  -18.8273   20.2642 C.ar    1  UNL1        0.0153
      4 C          -3.8414  -18.9969   19.7639 C.ar    1  UNL1        0.0124
      5 C          -2.6820  -18.6804   20.6613 C.ar    1  UNL1        0.0791
      6 C          -2.9264  -18.1941   22.0592 C.ar    1  UNL1        0.0685
      7 CL         -1.7669  -17.8776   22.9566 Cl      1  UNL1       -0.0815
      8 C          -4.3302  -18.0245   22.5595 C.ar    1  UNL1        0.0266
      9 C          -1.2781  -18.8500   20.1610 C.1     1  UNL1        0.1013
     10 N           0.1258  -19.0197   19.6606 N.1     1  UNL1       -0.1908
     11 N          -7.3541  -15.6867   25.1085 N.3     1  UNL1       -0.1576
     12 C          -8.1058  -14.9843   24.0168 C.3     1  UNL1        0.0972
     13 C          -8.0247  -15.8297   22.7802 C.3     1  UNL1        0.0403
     14 C          -7.2230  -17.0544   23.1078 C.3     1  UNL1        0.0922
     15 C          -6.8085  -16.9660   24.5467 C.3     1  UNL1        0.1151
     16 C          -7.0034  -14.7050   27.9215 C.3     1  UNL1        0.1960
     17 S          -7.1788  -15.1959   26.5149 S.O2    1  UNL1        0.0457
     18 O          -5.6947  -15.1299   26.3069 O.2     1  UNL1       -0.1572
     19 O          -8.6628  -15.2617   26.7230 O.2     1  UNL1       -0.1572
     20 C          -7.9681  -19.1187   21.7173 C.3     1  UNL1        0.1176
     21 C          -9.2318  -19.2478   22.5150 C.ar    1  UNL1        0.0015
     22 C          -9.1927  -19.8443   23.8907 C.ar    1  UNL1       -0.0027
     23 C         -10.4564  -19.9734   24.6884 C.ar    1  UNL1       -0.0003
     24 C         -11.7592  -19.5059   24.1105 C.ar    1  UNL1       -0.0001
     25 C         -11.7983  -18.9093   22.7347 C.ar    1  UNL1        0.0036
     26 C         -10.5346  -18.7803   21.9370 C.ar    1  UNL1        0.0691
     27 C         -10.5737  -18.1837   20.5613 C.3     1  UNL1        0.4183
     28 F         -10.6128  -17.5872   19.1856 F       1  UNL1       -0.1659
     29 F         -10.6458  -19.5591   19.9670 F       1  UNL1       -0.1659
     30 F         -10.5017  -16.8084   21.1556 F       1  UNL1       -0.1659
@<TRIPOS>BOND
     1    16    17    1
     2    17    18    2
     3    17    19    2
     4    17    11    1
     5    11    12    1
     6    12    13    1
     7    13    14    1
     8    14     1    1
     9     1    20    1
    10    20    21    1
    11    21    22   ar
    12    22    23   ar
    13    23    24   ar
    14    24    25   ar
    15    25    26   ar
    16    26    27    1
    17    27    28    1
    18    27    29    1
    19    27    30    1
    20     1     2    1
    21     2     3   ar
    22     3     4   ar
    23     4     5   ar
    24     5     9    1
    25     9    10    3
    26     5     6   ar
    27     6     7    1
    28     6     8   ar
    29    14    15    1
    30    15    11    1
    31    26    21   ar
    32     8     2   ar
@<TRIPOS>MOLECULE
*****
 30 32 0 0 0
SMALL
GASTEIGER

@<TRIPOS>ATOM
      1 N          -6.4370  -18.5003   21.6210 N.pl3   1  UNL1       -0.3037
      2 C          -6.4043  -17.6053   22.8243 C.ar    1  UNL1        0.0490
      3 C          -5.1117  -17.3670   23.5468 C.ar    1  UNL1        0.0153
      4 C          -5.0790  -16.4720   24.7501 C.ar    1  UNL1        0.0124
      5 C          -6.3390  -15.8154   25.2309 C.ar    1  UNL1        0.0791
      6 C          -7.6318  -16.0538   24.5084 C.ar    1  UNL1        0.0685
      7 CL         -8.8918  -15.3972   24.9892 Cl      1  UNL1       -0.0815
      8 C          -7.6645  -16.9487   23.3051 C.ar    1  UNL1        0.0266
      9 C          -6.3063  -14.9205   26.4342 C.1     1  UNL1        0.1013
     10 N          -6.2737  -14.0255   27.6376 N.1     1  UNL1       -0.1908
     11 N          -2.8526  -18.9451   20.1997 N.3     1  UNL1       -0.1576
     12 C          -3.5150  -20.2002   19.7135 C.3     1  UNL1        0.0972
     13 C          -4.9384  -20.1862   20.1868 C.3     1  UNL1        0.0403
     14 C          -5.1556  -18.9227   20.9654 C.3     1  UNL1        0.0922
     15 C          -3.8666  -18.1557   20.9734 C.3     1  UNL1        0.1151
     16 C          -0.0007  -18.1533   19.7105 C.3     1  UNL1        0.1960
     17 S          -1.4267  -18.5492   19.9551 S.O2    1  UNL1        0.0457
     18 O          -1.1197  -18.7569   21.4086 O.2     1  UNL1       -0.1572
     19 O          -1.7336  -18.3415   18.5016 O.2     1  UNL1       -0.1572
     20 C          -7.7510  -18.9729   21.0732 C.3     1  UNL1        0.1176
     21 C          -8.8536  -19.3719   22.0086 C.ar    1  UNL1        0.0015
     22 C          -8.5491  -20.2172   23.2097 C.ar    1  UNL1       -0.0027
     23 C          -9.6517  -20.6163   24.1451 C.ar    1  UNL1       -0.0003
     24 C         -11.0588  -20.1699   23.8794 C.ar    1  UNL1       -0.0001
     25 C         -11.3635  -19.3245   22.6783 C.ar    1  UNL1        0.0036
     26 C         -10.2608  -18.9255   21.7429 C.ar    1  UNL1        0.0691
     27 C         -10.5654  -18.0802   20.5418 C.3     1  UNL1        0.4183
     28 F         -10.8699  -17.2348   19.3408 F       1  UNL1       -0.1659
     29 F         -10.7735  -19.3192   19.7225 F       1  UNL1       -0.1659
     30 F         -10.3572  -16.8411   21.3612 F       1  UNL1       -0.1659
@<TRIPOS>BOND
     1    16    17    1
     2    17    18    2
     3    17    19    2
     4    17    11    1
     5    11    12    1
     6    12    13    1
     7    13    14    1
     8    14     1    1
     9     1    20    1
    10    20    21    1
    11    21    22   ar
    12    22    23   ar
    13    23    24   ar
    14    24    25   ar
    15    25    26   ar
    16    26    27    1
    17    27    28    1
    18    27    29    1
    19    27    30    1
    20     1     2    1
    21     2     3   ar
    22     3     4   ar
    23     4     5   ar
    24     5     9    1
    25     9    10    3
    26     5     6   ar
    27     6     7    1
    28     6     8   ar
    29    14    15    1
    30    15    11    1
    31    26    21   ar
    32     8     2   ar
@<TRIPOS>MOLECULE
*****
 30 32 0 0 0
SMALL
GASTEIGER

@<TRIPOS>ATOM
      1 N           2.8695   -0.5213   19.4240 N.pl3   1  UNL1       -0.3037
      2 C           1.7977    0.5049   19.6437 C.ar    1  UNL1        0.0490
      3 C           1.1661    0.6520   20.9962 C.ar    1  UNL1        0.0153
      4 C           0.0943    1.6782   21.2159 C.ar    1  UNL1        0.0124
      5 C          -0.3458    2.5574   20.0831 C.ar    1  UNL1        0.0791
      6 C           0.2859    2.4103   18.7305 C.ar    1  UNL1        0.0685
      7 CL         -0.1542    3.2895   17.5977 Cl      1  UNL1       -0.0815
      8 C           1.3576    1.3841   18.5108 C.ar    1  UNL1        0.0266
      9 C          -1.4175    3.5836   20.3028 C.1     1  UNL1        0.1013
     10 N          -2.4893    4.6098   20.5225 N.1     1  UNL1       -0.1908
     11 N           6.2875    0.6174   17.9797 N.3     1  UNL1       -0.1576
     12 C           5.6131    0.0910   16.7475 C.3     1  UNL1        0.0972
     13 C           4.2506   -0.3997   17.1387 C.3     1  UNL1        0.0403
     14 C           4.0830   -0.1764   18.6125 C.3     1  UNL1        0.0922
     15 C           5.3419    0.4522   19.1322 C.3     1  UNL1        0.1151
     16 C           9.0437    1.7942   18.1150 C.3     1  UNL1        0.1960
     17 S           7.6656    1.2058   18.0473 S.O2    1  UNL1        0.0457
     18 O           7.5312    1.3495   19.5344 O.2     1  UNL1       -0.1572
     19 O           7.8000    1.0622   16.5603 O.2     1  UNL1       -0.1572
     20 C           2.7278   -1.8922   20.0159 C.3     1  UNL1        0.1176
     21 C           3.6320   -2.3245   21.1319 C.ar    1  UNL1        0.0015
     22 C           3.5974   -1.6041   22.4470 C.ar    1  UNL1       -0.0027
     23 C           4.5016   -2.0363   23.5631 C.ar    1  UNL1       -0.0003
     24 C           5.4404   -3.1891   23.3639 C.ar    1  UNL1       -0.0001
     25 C           5.4751   -3.9096   22.0487 C.ar    1  UNL1        0.0036
     26 C           4.5709   -3.4773   20.9327 C.ar    1  UNL1        0.0691
     27 C           4.6055   -4.1978   19.6175 C.3     1  UNL1        0.4183
     28 F           4.6401   -4.9183   18.3024 F       1  UNL1       -0.1659
     29 F           3.5674   -5.1587   20.1166 F       1  UNL1       -0.1659
     30 F           5.6435   -3.2369   19.1185 F       1  UNL1       -0.1659
@<TRIPOS>BOND
     1    16    17    1
     2    17    18    2
     3    17    19    2
     4    17    11    1
     5    11    12    1
     6    12    13    1
     7    13    14    1
     8    14     1    1
     9     1    20    1
    10    20    21    1
    11    21    22   ar
    12    22    23   ar
    13    23    24   ar
    14    24    25   ar
    15    25    26   ar
    16    26    27    1
    17    27    28    1
    18    27    29    1
    19    27    30    1
    20     1     2    1
    21     2     3   ar
    22     3     4   ar
    23     4     5   ar
    24     5     9    1
    25     9    10    3
    26     5     6   ar
    27     6     7    1
    28     6     8   ar
    29    14    15    1
    30    15    11    1
    31    26    21   ar
    32     8     2   ar
@<TRIPOS>MOLECULE
*****
 30 32 0 0 0
SMALL
GASTEIGER

@<TRIPOS>ATOM
      1 N           2.4232   -0.5200   21.2004 N.pl3   1  UNL1       -0.3037
      2 C           2.9447   -0.7531   22.5874 C.ar    1  UNL1        0.0490
      3 C           3.9618   -1.8272   22.8356 C.ar    1  UNL1        0.0153
      4 C           4.4833   -2.0603   24.2226 C.ar    1  UNL1        0.0124
      5 C           3.9877   -1.2192   25.3614 C.ar    1  UNL1        0.0791
      6 C           2.9706   -0.1450   25.1132 C.ar    1  UNL1        0.0685
      7 CL          2.4750    0.6961   26.2520 Cl      1  UNL1       -0.0815
      8 C           2.4491    0.0881   23.7262 C.ar    1  UNL1        0.0266
      9 C           4.5093   -1.4523   26.7483 C.1     1  UNL1        0.1013
     10 N           5.0308   -1.6853   28.1353 N.1     1  UNL1       -0.1908
     11 N           0.0630    2.4415   20.3491 N.3     1  UNL1       -0.1576
     12 C           1.4014    3.1181   20.3139 C.3     1  UNL1        0.0972
     13 C           2.4484    2.0910   20.6285 C.3     1  UNL1        0.0403
     14 C           1.7571    0.7797   20.8582 C.3     1  UNL1        0.0922
     15 C           0.2829    0.9964   20.6855 C.3     1  UNL1        0.1151
     16 C          -2.5879    3.7491   19.8368 C.3     1  UNL1        0.1960
     17 S          -1.2624    3.0953   20.0930 S.O2    1  UNL1        0.0457
     18 O          -1.6849    2.7899   21.4995 O.2     1  UNL1       -0.1572
     19 O          -0.8400    3.4008   18.6865 O.2     1  UNL1       -0.1572
     20 C           2.5677   -1.5866   20.1557 C.3     1  UNL1        0.1176
     21 C           3.8402   -1.6989   19.3696 C.ar    1  UNL1        0.0015
     22 C           4.4674   -0.4713   18.7784 C.ar    1  UNL1       -0.0027
     23 C           5.7399   -0.5836   17.9922 C.ar    1  UNL1       -0.0003
     24 C           6.3853   -1.9235   17.7972 C.ar    1  UNL1       -0.0001
     25 C           5.7581   -3.1512   18.3884 C.ar    1  UNL1        0.0036
     26 C           4.4856   -3.0389   19.1746 C.ar    1  UNL1        0.0691
     27 C           3.8584   -4.2666   19.7658 C.3     1  UNL1        0.4183
     28 F           3.2313   -5.4942   20.3570 F       1  UNL1       -0.1659
     29 F           4.7916   -4.1792   20.9370 F       1  UNL1       -0.1659
     30 F           2.9253   -4.3539   18.5947 F       1  UNL1       -0.1659
@<TRIPOS>BOND
     1    16    17    1
     2    17    18    2
     3    17    19    2
     4    17    11    1
     5    11    12    1
     6    12    13    1
     7    13    14    1
     8    14     1    1
     9     1    20    1
    10    20    21    1
    11    21    22   ar
    12    22    23   ar
    13    23    24   ar
    14    24    25   ar
    15    25    26   ar
    16    26    27    1
    17    27    28    1
    18    27    29    1
    19    27    30    1
    20     1     2    1
    21     2     3   ar
    22     3     4   ar
    23     4     5   ar
    24     5     9    1
    25     9    10    3
    26     5     6   ar
    27     6     7    1
    28     6     8   ar
    29    14    15    1
    30    15    11    1
    31    26    21   ar
    32     8     2   ar
@<TRIPOS>MOLECULE
*****
 30 32 0 0 0
SMALL
GASTEIGER

@<TRIPOS>ATOM
      1 N           2.9352   -0.2447   19.3144 N.pl3   1  UNL1       -0.3037
      2 C           4.1959    0.2895   18.7020 C.ar    1  UNL1        0.0490
      3 C           4.6238   -0.1742   17.3412 C.ar    1  UNL1        0.0153
      4 C           5.8846    0.3600   16.7289 C.ar    1  UNL1        0.0124
      5 C           6.7175    1.3581   17.4772 C.ar    1  UNL1        0.0791
      6 C           6.2896    1.8219   18.8381 C.ar    1  UNL1        0.0685
      7 CL          7.1225    2.8200   19.5865 Cl      1  UNL1       -0.0815
      8 C           5.0288    1.2877   19.4505 C.ar    1  UNL1        0.0266
      9 C           7.9782    1.8923   16.8648 C.1     1  UNL1        0.1013
     10 N           9.2390    2.4266   16.2524 N.1     1  UNL1       -0.1908
     11 N           0.1502    2.4580   19.2450 N.3     1  UNL1       -0.1576
     12 C          -0.2450    1.6657   20.4558 C.3     1  UNL1        0.0972
     13 C           0.7502    0.5567   20.6292 C.3     1  UNL1        0.0403
     14 C           1.7604    0.6638   19.5255 C.3     1  UNL1        0.0922
     15 C           1.3896    1.8389   18.6701 C.3     1  UNL1        0.1151
     16 C          -1.2859    4.8595   18.1632 C.3     1  UNL1        0.1960
     17 S          -0.5678    3.6587   18.7041 S.O2    1  UNL1        0.0457
     18 O          -1.7088    3.3991   19.6426 O.2     1  UNL1       -0.1572
     19 O           0.5731    3.9184   17.7656 O.2     1  UNL1       -0.1572
     20 C           2.8492   -1.6874   19.7157 C.3     1  UNL1        0.1176
     21 C           3.5827   -2.1730   20.9307 C.ar    1  UNL1        0.0015
     22 C           3.4752   -1.4189   22.2229 C.ar    1  UNL1       -0.0027
     23 C           4.2087   -1.9044   23.4379 C.ar    1  UNL1       -0.0003
     24 C           5.0496   -3.1441   23.3607 C.ar    1  UNL1       -0.0001
     25 C           5.1571   -3.8983   22.0685 C.ar    1  UNL1        0.0036
     26 C           4.4236   -3.4127   20.8535 C.ar    1  UNL1        0.0691
     27 C           4.5311   -4.1669   19.5614 C.3     1  UNL1        0.4183
     28 F           4.6385   -4.9210   18.2692 F       1  UNL1       -0.1659
     29 F           5.6676   -3.2832   19.1401 F       1  UNL1       -0.1659
     30 F           3.3946   -5.0505   19.9826 F       1  UNL1       -0.1659
@<TRIPOS>BOND
     1    16    17    1
     2    17    18    2
     3    17    19    2
     4    17    11    1
     5    11    12    1
     6    12    13    1
     7    13    14    1
     8    14     1    1
     9     1    20    1
    10    20    21    1
    11    21    22   ar
    12    22    23   ar
    13    23    24   ar
    14    24    25   ar
    15    25    26   ar
    16    26    27    1
    17    27    28    1
    18    27    29    1
    19    27    30    1
    20     1     2    1
    21     2     3   ar
    22     3     4   ar
    23     4     5   ar
    24     5     9    1
    25     9    10    3
    26     5     6   ar
    27     6     7    1
    28     6     8   ar
    29    14    15    1
    30    15    11    1
    31    26    21   ar
    32     8     2   ar
