@<TRIPOS>MOLECULE
*****
 31 34 0 0 0
SMALL
GASTEIGER

@<TRIPOS>ATOM
      1 C           5.0855   -2.9623   20.6758 C.3     1  UNL1        0.1174
      2 C           5.7827   -3.6682   21.8007 C.ar    1  UNL1        0.0961
      3 N           6.7268   -4.7856   22.1325 N.ar    1  UNL1       -0.1681
      4 N           6.9109   -4.8103   23.6209 N.ar    1  UNL1       -0.2287
      5 C           6.0806   -3.7081   24.2091 C.ar    1  UNL1        0.0990
      6 C           5.3834   -3.0023   23.0841 C.ar    1  UNL1        0.0337
      7 C           4.4393   -1.8849   22.7524 C.3     1  UNL1        0.1235
      8 N           4.2551   -1.8601   21.2638 N.pl3   1  UNL1       -0.2703
      9 C           7.7738   -5.7688   24.3868 C.ar    1  UNL1        0.0841
     10 C           8.6058   -6.7791   23.6540 C.ar    1  UNL1        0.0192
     11 C           9.4687   -7.7377   24.4200 C.ar    1  UNL1        0.0029
     12 C           9.4996   -7.6859   25.9187 C.ar    1  UNL1        0.0184
     13 C           8.6676   -6.6756   26.6516 C.ar    1  UNL1        0.1072
     14 C           7.8047   -5.7171   25.8856 C.ar    1  UNL1        0.0375
     15 S           8.6985   -6.6238   28.1504 S.O2    1  UNL1        0.0105
     16 C           8.7294   -6.5719   29.6491 C.3     1  UNL1        0.1816
     17 O           8.5570   -8.1161   28.2050 O.2     1  UNL1       -0.1686
     18 O           8.8400   -5.1314   28.0958 O.2     1  UNL1       -0.1686
     19 C           3.3923   -0.9016   20.4980 C.ar    1  UNL1        0.2206
     20 N           1.9042   -1.0887   20.4715 N.ar    1  UNL1       -0.2121
     21 C           1.0413   -0.1302   19.7056 C.ar    1  UNL1        0.1033
     22 C           1.6665    1.0155   18.9662 C.ar    1  UNL1        0.0439
     23 C           3.1545    1.2026   18.9927 C.ar    1  UNL1        0.1570
     24 N           4.0174    0.2440   19.7586 N.ar    1  UNL1       -0.2096
     25 C           3.7796    2.3483   18.2534 C.3     1  UNL1        0.4350
     26 F           4.4048    3.4939   17.5140 F       1  UNL1       -0.1644
     27 F           2.4667    3.0736   18.2672 F       1  UNL1       -0.1644
     28 F           5.0925    1.6229   18.2396 F       1  UNL1       -0.1644
     29 C           4.5318   -4.5302   18.6795 C.3     1  UNL1        0.0021
     30 C           5.1986   -3.2994   19.2185 C.3     1  UNL1        0.0241
     31 C           5.9785   -2.4057   18.3003 C.3     1  UNL1        0.0021
@<TRIPOS>BOND
     1    29    30    1
     2    30    31    1
     3     1    30    1
     4     1     2    1
     5     2     3   ar
     6     3     4   ar
     7     4     9    1
     8     9    10   ar
     9    10    11   ar
    10    11    12   ar
    11    12    13   ar
    12    13    15    1
    13    15    16    1
    14    15    17    2
    15    15    18    2
    16    13    14   ar
    17     4     5   ar
    18     5     6   ar
    19     6     7    1
    20     7     8    1
    21     8    19    1
    22    19    20   ar
    23    20    21   ar
    24    21    22   ar
    25    22    23   ar
    26    23    25    1
    27    25    26    1
    28    25    27    1
    29    25    28    1
    30    23    24   ar
    31     8     1    1
    32    24    19   ar
    33     6     2   ar
    34    14     9   ar
@<TRIPOS>MOLECULE
*****
 31 34 0 0 0
SMALL
GASTEIGER

@<TRIPOS>ATOM
      1 C           7.3234   -4.9506   25.7598 C.3     1  UNL1        0.1174
      2 C           6.7146   -4.3718   24.5171 C.ar    1  UNL1        0.0961
      3 N           6.4554   -4.6249   23.0615 N.ar    1  UNL1       -0.1681
      4 N           5.7296   -3.4354   22.5063 N.ar    1  UNL1       -0.2287
      5 C           5.5403   -2.4471   23.6187 C.ar    1  UNL1        0.0990
      6 C           6.1491   -3.0259   24.8615 C.ar    1  UNL1        0.0337
      7 C           6.4083   -2.7728   26.3170 C.3     1  UNL1        0.1235
      8 N           7.1342   -3.9623   26.8723 N.pl3   1  UNL1       -0.2703
      9 C           5.2732   -3.2642   21.0877 C.ar    1  UNL1        0.0841
     10 C           4.2207   -4.1719   20.5237 C.ar    1  UNL1        0.0192
     11 C           3.7643   -4.0006   19.1051 C.ar    1  UNL1        0.0029
     12 C           4.3605   -2.9216   18.2505 C.ar    1  UNL1        0.0184
     13 C           5.4131   -2.0139   18.8145 C.ar    1  UNL1        0.1072
     14 C           5.8694   -2.1852   20.2331 C.ar    1  UNL1        0.0375
     15 S           6.0093   -0.9349   17.9599 S.O2    1  UNL1        0.0105
     16 C           6.6056    0.1440   17.1054 C.3     1  UNL1        0.1816
     17 O           5.1261    0.0793   18.6242 O.2     1  UNL1       -0.1686
     18 O           6.8926   -1.9492   17.2957 O.2     1  UNL1       -0.1686
     19 C           7.5905   -4.1335   28.2908 C.ar    1  UNL1        0.2206
     20 N           8.9578   -4.6794   28.5782 N.ar    1  UNL1       -0.2121
     21 C           9.4142   -4.8506   29.9967 C.ar    1  UNL1        0.1033
     22 C           8.5032   -4.4759   31.1281 C.ar    1  UNL1        0.0439
     23 C           7.1359   -3.9301   30.8408 C.ar    1  UNL1        0.1570
     24 N           6.6796   -3.7589   29.4221 N.ar    1  UNL1       -0.2096
     25 C           6.2250   -3.5554   31.9721 C.3     1  UNL1        0.4350
     26 F           5.3142   -3.1809   33.1035 F       1  UNL1       -0.1644
     27 F           5.9973   -2.2124   31.3441 F       1  UNL1       -0.1644
     28 F           6.4528   -4.8985   32.6001 F       1  UNL1       -0.1644
     29 C           7.2465   -7.4689   26.3936 C.3     1  UNL1        0.0021
     30 C           8.0024   -6.2835   25.8707 C.3     1  UNL1        0.0241
     31 C           9.4371   -6.4310   25.4586 C.3     1  UNL1        0.0021
@<TRIPOS>BOND
     1    29    30    1
     2    30    31    1
     3     1    30    1
     4     1     2    1
     5     2     3   ar
     6     3     4   ar
     7     4     9    1
     8     9    10   ar
     9    10    11   ar
    10    11    12   ar
    11    12    13   ar
    12    13    15    1
    13    15    16    1
    14    15    17    2
    15    15    18    2
    16    13    14   ar
    17     4     5   ar
    18     5     6   ar
    19     6     7    1
    20     7     8    1
    21     8    19    1
    22    19    20   ar
    23    20    21   ar
    24    21    22   ar
    25    22    23   ar
    26    23    25    1
    27    25    26    1
    28    25    27    1
    29    25    28    1
    30    23    24   ar
    31     8     1    1
    32    24    19   ar
    33     6     2   ar
    34    14     9   ar
@<TRIPOS>MOLECULE
*****
 31 34 0 0 0
SMALL
GASTEIGER

@<TRIPOS>ATOM
      1 C           4.7163   -2.8777   20.8484 C.3     1  UNL1        0.1174
      2 C           5.3742   -3.4435   22.0719 C.ar    1  UNL1        0.0961
      3 N           6.1401   -4.6181   22.6046 N.ar    1  UNL1       -0.1681
      4 N           6.4388   -4.3590   24.0516 N.ar    1  UNL1       -0.2287
      5 C           5.8575   -3.0243   24.4131 C.ar    1  UNL1        0.0990
      6 C           5.1996   -2.4585   23.1896 C.ar    1  UNL1        0.0337
      7 C           4.4337   -1.2839   22.6569 C.3     1  UNL1        0.1235
      8 N           4.1350   -1.5429   21.2099 N.pl3   1  UNL1       -0.2703
      9 C           7.1873   -5.2739   24.9749 C.ar    1  UNL1        0.0841
     10 C           8.1467   -6.2826   24.4161 C.ar    1  UNL1        0.0192
     11 C           8.8952   -7.1975   25.3395 C.ar    1  UNL1        0.0029
     12 C           8.6844   -7.1038   26.8217 C.ar    1  UNL1        0.0184
     13 C           7.7250   -6.0952   27.3805 C.ar    1  UNL1        0.1072
     14 C           6.9765   -5.1802   26.4570 C.ar    1  UNL1        0.0375
     15 S           7.5141   -6.0014   28.8626 S.O2    1  UNL1        0.0105
     16 C           7.3032   -5.9076   30.3447 C.3     1  UNL1        0.1816
     17 O           8.7634   -6.7997   29.0909 O.2     1  UNL1       -0.1686
     18 O           6.2648   -5.2032   28.6342 O.2     1  UNL1       -0.1686
     19 C           3.3865   -0.6280   20.2866 C.ar    1  UNL1        0.2206
     20 N           3.8922   -0.3892   18.8947 N.ar    1  UNL1       -0.2121
     21 C           3.1437    0.5257   17.9714 C.ar    1  UNL1        0.1033
     22 C           1.8894    1.2020   18.4400 C.ar    1  UNL1        0.0439
     23 C           1.3837    0.9632   19.8318 C.ar    1  UNL1        0.1570
     24 N           2.1323    0.0482   20.7551 N.ar    1  UNL1       -0.2096
     25 C           0.1294    1.6395   20.3003 C.3     1  UNL1        0.4350
     26 F          -1.1248    2.3158   20.7687 F       1  UNL1       -0.1644
     27 F          -0.1022    0.5296   21.2824 F       1  UNL1       -0.1644
     28 F           0.3611    2.7494   19.3181 F       1  UNL1       -0.1644
     29 C           5.6870   -3.2157   18.4623 C.3     1  UNL1        0.0021
     30 C           4.6511   -3.5317   19.5001 C.3     1  UNL1        0.0241
     31 C           3.5499   -4.5018   19.1895 C.3     1  UNL1        0.0021
@<TRIPOS>BOND
     1    29    30    1
     2    30    31    1
     3     1    30    1
     4     1     2    1
     5     2     3   ar
     6     3     4   ar
     7     4     9    1
     8     9    10   ar
     9    10    11   ar
    10    11    12   ar
    11    12    13   ar
    12    13    15    1
    13    15    16    1
    14    15    17    2
    15    15    18    2
    16    13    14   ar
    17     4     5   ar
    18     5     6   ar
    19     6     7    1
    20     7     8    1
    21     8    19    1
    22    19    20   ar
    23    20    21   ar
    24    21    22   ar
    25    22    23   ar
    26    23    25    1
    27    25    26    1
    28    25    27    1
    29    25    28    1
    30    23    24   ar
    31     8     1    1
    32    24    19   ar
    33     6     2   ar
    34    14     9   ar
@<TRIPOS>MOLECULE
*****
 31 34 0 0 0
SMALL
GASTEIGER

@<TRIPOS>ATOM
      1 C         -13.5381   -2.9958   18.3489 C.3     1  UNL1        0.1174
      2 C         -14.7301   -2.2615   18.8875 C.ar    1  UNL1        0.0961
      3 N         -15.2518   -0.9070   19.2658 N.ar    1  UNL1       -0.1681
      4 N         -16.6586   -1.0734   19.7590 N.ar    1  UNL1       -0.2287
      5 C         -17.0063   -2.5307   19.6854 C.ar    1  UNL1        0.0990
      6 C         -15.8144   -3.2650   19.1468 C.ar    1  UNL1        0.0337
      7 C         -15.2926   -4.6195   18.7685 C.3     1  UNL1        0.1235
      8 N         -13.8858   -4.4531   18.2753 N.pl3   1  UNL1       -0.2703
      9 C         -17.5596    0.0247   20.2410 C.ar    1  UNL1        0.0841
     10 C         -18.9421    0.1630   19.6758 C.ar    1  UNL1        0.0192
     11 C         -19.8430    1.2612   20.1580 C.ar    1  UNL1        0.0029
     12 C         -19.3615    2.2210   21.2053 C.ar    1  UNL1        0.0184
     13 C         -17.9789    2.0827   21.7705 C.ar    1  UNL1        0.1072
     14 C         -17.0780    0.9846   21.2883 C.ar    1  UNL1        0.0375
     15 S         -17.4973    3.0425   22.8177 S.O2    1  UNL1        0.0105
     16 C         -17.0157    4.0022   23.8651 C.3     1  UNL1        0.1816
     17 O         -17.1706    4.0439   21.7498 O.2     1  UNL1       -0.1686
     18 O         -17.8240    2.0410   23.8857 O.2     1  UNL1       -0.1686
     19 C         -12.9849   -5.5512   17.7933 C.ar    1  UNL1        0.2206
     20 N         -13.3102   -6.2869   16.5271 N.ar    1  UNL1       -0.2121
     21 C         -12.4093   -7.3849   16.0451 C.ar    1  UNL1        0.1033
     22 C         -11.1829   -7.7475   16.8291 C.ar    1  UNL1        0.0439
     23 C         -10.8575   -7.0119   18.0952 C.ar    1  UNL1        0.1570
     24 N         -11.7585   -5.9138   18.5773 N.ar    1  UNL1       -0.2096
     25 C          -9.6312   -7.3745   18.8793 C.3     1  UNL1        0.4350
     26 F          -8.4049   -7.7369   19.6633 F       1  UNL1       -0.1644
     27 F          -9.6691   -8.7572   18.2991 F       1  UNL1       -0.1644
     28 F          -9.5935   -5.9917   19.4594 F       1  UNL1       -0.1644
     29 C         -11.7796   -2.4277   16.5228 C.3     1  UNL1        0.0021
     30 C         -12.2284   -2.3808   17.9533 C.3     1  UNL1        0.0241
     31 C         -11.3676   -1.7190   18.9881 C.3     1  UNL1        0.0021
@<TRIPOS>BOND
     1    29    30    1
     2    30    31    1
     3     1    30    1
     4     1     2    1
     5     2     3   ar
     6     3     4   ar
     7     4     9    1
     8     9    10   ar
     9    10    11   ar
    10    11    12   ar
    11    12    13   ar
    12    13    15    1
    13    15    16    1
    14    15    17    2
    15    15    18    2
    16    13    14   ar
    17     4     5   ar
    18     5     6   ar
    19     6     7    1
    20     7     8    1
    21     8    19    1
    22    19    20   ar
    23    20    21   ar
    24    21    22   ar
    25    22    23   ar
    26    23    25    1
    27    25    26    1
    28    25    27    1
    29    25    28    1
    30    23    24   ar
    31     8     1    1
    32    24    19   ar
    33     6     2   ar
    34    14     9   ar
@<TRIPOS>MOLECULE
*****
 31 34 0 0 0
SMALL
GASTEIGER

@<TRIPOS>ATOM
      1 C           2.1265    0.6741   21.3316 C.3     1  UNL1        0.1174
      2 C           0.9052    1.5355   21.4598 C.ar    1  UNL1        0.0961
      3 N           0.1137    2.3852   22.4094 N.ar    1  UNL1       -0.1681
      4 N          -1.0709    2.9293   21.6673 N.ar    1  UNL1       -0.2287
      5 C          -1.0115    2.4159   20.2591 C.ar    1  UNL1        0.0990
      6 C           0.2098    1.5545   20.1309 C.ar    1  UNL1        0.0337
      7 C           1.0012    0.7048   19.1814 C.3     1  UNL1        0.1235
      8 N           2.1859    0.1606   19.9234 N.pl3   1  UNL1       -0.2703
      9 C          -2.1291    3.8288   22.2338 C.ar    1  UNL1        0.0841
     10 C          -2.7773    4.8648   21.3640 C.ar    1  UNL1        0.0192
     11 C          -3.8355    5.7643   21.9307 C.ar    1  UNL1        0.0029
     12 C          -4.2455    5.6280   23.3671 C.ar    1  UNL1        0.0184
     13 C          -3.5972    4.5920   24.2369 C.ar    1  UNL1        0.1072
     14 C          -2.5390    3.6925   23.6702 C.ar    1  UNL1        0.0375
     15 S          -4.0071    4.4556   25.6733 S.O2    1  UNL1        0.0105
     16 C          -4.4171    4.3191   27.1097 C.3     1  UNL1        0.1816
     17 O          -2.9287    5.4186   26.0726 O.2     1  UNL1       -0.1686
     18 O          -5.0857    3.4925   25.2740 O.2     1  UNL1       -0.1686
     19 C           3.2440   -0.7389   19.3569 C.ar    1  UNL1        0.2206
     20 N           4.3974   -0.1541   18.5967 N.ar    1  UNL1       -0.2121
     21 C           5.4555   -1.0536   18.0302 C.ar    1  UNL1        0.1033
     22 C           5.3604   -2.5381   18.2237 C.ar    1  UNL1        0.0439
     23 C           4.2070   -3.1229   18.9838 C.ar    1  UNL1        0.1570
     24 N           3.1489   -2.2233   19.5504 N.ar    1  UNL1       -0.2096
     25 C           4.1119   -4.6073   19.1773 C.3     1  UNL1        0.4350
     26 F           4.0167   -6.0917   19.3708 F       1  UNL1       -0.1644
     27 F           5.5721   -4.6566   19.5171 F       1  UNL1       -0.1644
     28 F           2.6517   -4.5579   18.8374 F       1  UNL1       -0.1644
     29 C           3.0945   -0.9538   23.1100 C.3     1  UNL1        0.0021
     30 C           3.1149    0.3781   22.4204 C.3     1  UNL1        0.0241
     31 C           4.1237    1.4140   22.8195 C.3     1  UNL1        0.0021
@<TRIPOS>BOND
     1    29    30    1
     2    30    31    1
     3     1    30    1
     4     1     2    1
     5     2     3   ar
     6     3     4   ar
     7     4     9    1
     8     9    10   ar
     9    10    11   ar
    10    11    12   ar
    11    12    13   ar
    12    13    15    1
    13    15    16    1
    14    15    17    2
    15    15    18    2
    16    13    14   ar
    17     4     5   ar
    18     5     6   ar
    19     6     7    1
    20     7     8    1
    21     8    19    1
    22    19    20   ar
    23    20    21   ar
    24    21    22   ar
    25    22    23   ar
    26    23    25    1
    27    25    26    1
    28    25    27    1
    29    25    28    1
    30    23    24   ar
    31     8     1    1
    32    24    19   ar
    33     6     2   ar
    34    14     9   ar
@<TRIPOS>MOLECULE
*****
 31 34 0 0 0
SMALL
GASTEIGER

@<TRIPOS>ATOM
      1 C         -14.0045   -2.9269   18.8600 C.3     1  UNL1        0.1174
      2 C         -14.9575   -1.8143   19.1823 C.ar    1  UNL1        0.0961
      3 N         -16.3168   -1.5026   19.7347 N.ar    1  UNL1       -0.1681
      4 N         -16.4994   -0.0141   19.7039 N.ar    1  UNL1       -0.2287
      5 C         -15.2530    0.5942   19.1325 C.ar    1  UNL1        0.0990
      6 C         -14.3000   -0.5184   18.8101 C.ar    1  UNL1        0.0337
      7 C         -12.9407   -0.8301   18.2577 C.3     1  UNL1        0.1235
      8 N         -12.7580   -2.3187   18.2885 N.pl3   1  UNL1       -0.2703
      9 C         -17.7150    0.7348   20.1638 C.ar    1  UNL1        0.0841
     10 C         -18.9721    0.6986   19.3462 C.ar    1  UNL1        0.0192
     11 C         -20.1877    1.4474   19.8062 C.ar    1  UNL1        0.0029
     12 C         -20.1463    2.2325   21.0837 C.ar    1  UNL1        0.0184
     13 C         -18.8892    2.2687   21.9013 C.ar    1  UNL1        0.1072
     14 C         -17.6736    1.5199   21.4413 C.ar    1  UNL1        0.0375
     15 S         -18.8477    3.0538   23.1787 S.O2    1  UNL1        0.0105
     16 C         -18.8061    3.8387   24.4562 C.3     1  UNL1        0.1816
     17 O         -19.5644    4.1867   22.5059 O.2     1  UNL1       -0.1686
     18 O         -18.1309    1.9207   23.8516 O.2     1  UNL1       -0.1686
     19 C         -11.5425   -3.0675   17.8286 C.ar    1  UNL1        0.2206
     20 N         -10.6737   -2.4957   16.7477 N.ar    1  UNL1       -0.2121
     21 C          -9.4581   -3.2445   16.2878 C.ar    1  UNL1        0.1033
     22 C          -9.1112   -4.5651   16.9089 C.ar    1  UNL1        0.0439
     23 C          -9.9799   -5.1369   17.9898 C.ar    1  UNL1        0.1570
     24 N         -11.1955   -4.3880   18.4496 N.ar    1  UNL1       -0.2096
     25 C          -9.6329   -6.4575   18.6108 C.3     1  UNL1        0.4350
     26 F          -9.2859   -7.7780   19.2318 F       1  UNL1       -0.1644
     27 F         -10.2587   -7.1688   17.4478 F       1  UNL1       -0.1644
     28 F          -9.0072   -5.7461   19.7737 F       1  UNL1       -0.1644
     29 C         -14.0658   -4.9944   20.4320 C.3     1  UNL1        0.0021
     30 C         -14.2541   -4.3907   19.0718 C.3     1  UNL1        0.0241
     31 C         -14.6919   -5.2508   17.9235 C.3     1  UNL1        0.0021
@<TRIPOS>BOND
     1    29    30    1
     2    30    31    1
     3     1    30    1
     4     1     2    1
     5     2     3   ar
     6     3     4   ar
     7     4     9    1
     8     9    10   ar
     9    10    11   ar
    10    11    12   ar
    11    12    13   ar
    12    13    15    1
    13    15    16    1
    14    15    17    2
    15    15    18    2
    16    13    14   ar
    17     4     5   ar
    18     5     6   ar
    19     6     7    1
    20     7     8    1
    21     8    19    1
    22    19    20   ar
    23    20    21   ar
    24    21    22   ar
    25    22    23   ar
    26    23    25    1
    27    25    26    1
    28    25    27    1
    29    25    28    1
    30    23    24   ar
    31     8     1    1
    32    24    19   ar
    33     6     2   ar
    34    14     9   ar
@<TRIPOS>MOLECULE
*****
 31 34 0 0 0
SMALL
GASTEIGER

@<TRIPOS>ATOM
      1 C           6.1190   -2.3932   26.5650 C.3     1  UNL1        0.1174
      2 C           5.9741   -2.7179   25.1077 C.ar    1  UNL1        0.0961
      3 N           5.3114   -2.2949   23.8303 N.ar    1  UNL1       -0.1681
      4 N           5.7396   -3.2432   22.7499 N.ar    1  UNL1       -0.2287
      5 C           6.6669   -4.2524   23.3596 C.ar    1  UNL1        0.0990
      6 C           6.8118   -3.9277   24.8169 C.ar    1  UNL1        0.0337
      7 C           7.4745   -4.3507   26.0943 C.3     1  UNL1        0.1235
      8 N           7.0463   -3.4023   27.1748 N.pl3   1  UNL1       -0.2703
      9 C           5.3150   -3.1916   21.3122 C.ar    1  UNL1        0.0841
     10 C           4.3263   -4.1892   20.7858 C.ar    1  UNL1        0.0192
     11 C           3.9017   -4.1375   19.3480 C.ar    1  UNL1        0.0029
     12 C           4.4659   -3.0882   18.4367 C.ar    1  UNL1        0.0184
     13 C           5.4547   -2.0906   18.9630 C.ar    1  UNL1        0.1072
     14 C           5.8792   -2.1423   20.4008 C.ar    1  UNL1        0.0375
     15 S           6.0189   -1.0412   18.0517 S.O2    1  UNL1        0.0105
     16 C           6.5832    0.0080   17.1404 C.3     1  UNL1        0.1816
     17 O           5.1653   -0.0033   18.7181 O.2     1  UNL1       -0.1686
     18 O           6.8726   -2.0792   17.3852 O.2     1  UNL1       -0.1686
     19 C           7.4709   -3.4540   28.6124 C.ar    1  UNL1        0.2206
     20 N           8.9154   -3.6592   28.9610 N.ar    1  UNL1       -0.2121
     21 C           9.3400   -3.7108   30.3987 C.ar    1  UNL1        0.1033
     22 C           8.3201   -3.5573   31.4879 C.ar    1  UNL1        0.0439
     23 C           6.8756   -3.3521   31.1394 C.ar    1  UNL1        0.1570
     24 N           6.4511   -3.3005   29.7017 N.ar    1  UNL1       -0.2096
     25 C           5.8558   -3.1986   32.2286 C.3     1  UNL1        0.4350
     26 F           4.8360   -3.0450   33.3178 F       1  UNL1       -0.1644
     27 F           6.2412   -4.5399   32.7785 F       1  UNL1       -0.1644
     28 F           5.4704   -1.8573   31.6786 F       1  UNL1       -0.1644
     29 C           3.9910   -1.3316   27.6111 C.3     1  UNL1        0.0021
     30 C           5.4535   -1.2586   27.2860 C.3     1  UNL1        0.0241
     31 C           6.2504   -0.0510   27.6817 C.3     1  UNL1        0.0021
@<TRIPOS>BOND
     1    29    30    1
     2    30    31    1
     3     1    30    1
     4     1     2    1
     5     2     3   ar
     6     3     4   ar
     7     4     9    1
     8     9    10   ar
     9    10    11   ar
    10    11    12   ar
    11    12    13   ar
    12    13    15    1
    13    15    16    1
    14    15    17    2
    15    15    18    2
    16    13    14   ar
    17     4     5   ar
    18     5     6   ar
    19     6     7    1
    20     7     8    1
    21     8    19    1
    22    19    20   ar
    23    20    21   ar
    24    21    22   ar
    25    22    23   ar
    26    23    25    1
    27    25    26    1
    28    25    27    1
    29    25    28    1
    30    23    24   ar
    31     8     1    1
    32    24    19   ar
    33     6     2   ar
    34    14     9   ar
@<TRIPOS>MOLECULE
*****
 31 34 0 0 0
SMALL
GASTEIGER

@<TRIPOS>ATOM
      1 C           4.7616   -1.0344   27.9603 C.3     1  UNL1        0.1174
      2 C           4.6651   -1.3812   26.5042 C.ar    1  UNL1        0.0961
      3 N           3.8681   -1.1565   25.2534 N.ar    1  UNL1       -0.1681
      4 N           4.5089   -1.9424   24.1481 N.ar    1  UNL1       -0.2287
      5 C           5.7020   -2.6527   24.7156 C.ar    1  UNL1        0.0990
      6 C           5.7985   -2.3058   26.1718 C.ar    1  UNL1        0.0337
      7 C           6.5955   -2.5305   27.4225 C.3     1  UNL1        0.1235
      8 N           5.9547   -1.7447   28.5280 N.pl3   1  UNL1       -0.2703
      9 C           4.0392   -2.0066   22.7250 C.ar    1  UNL1        0.0841
     10 C           3.1695   -0.9166   22.1723 C.ar    1  UNL1        0.0192
     11 C           2.6998   -0.9809   20.7491 C.ar    1  UNL1        0.0029
     12 C           3.0997   -2.1352   19.8787 C.ar    1  UNL1        0.0184
     13 C           3.9694   -3.2252   20.4314 C.ar    1  UNL1        0.1072
     14 C           4.4391   -3.1609   21.8546 C.ar    1  UNL1        0.0375
     15 S           4.3694   -4.3796   19.5611 S.O2    1  UNL1        0.0105
     16 C           4.7695   -5.5339   18.6908 C.3     1  UNL1        0.1816
     17 O           3.0049   -4.3829   18.9382 O.2     1  UNL1       -0.1686
     18 O           5.7340   -4.3763   20.1840 O.2     1  UNL1       -0.1686
     19 C           6.4244   -1.6804   29.9510 C.ar    1  UNL1        0.2206
     20 N           7.8815   -1.4897   30.2520 N.ar    1  UNL1       -0.2121
     21 C           8.3513   -1.4255   31.6750 C.ar    1  UNL1        0.1033
     22 C           7.3639   -1.5519   32.7972 C.ar    1  UNL1        0.0439
     23 C           5.9068   -1.7427   32.4963 C.ar    1  UNL1        0.1570
     24 N           5.4371   -1.8069   31.0731 N.ar    1  UNL1       -0.2096
     25 C           4.9196   -1.8691   33.6184 C.3     1  UNL1        0.4350
     26 F           3.9322   -1.9957   34.7405 F       1  UNL1       -0.1644
     27 F           5.7944   -1.0122   34.4847 F       1  UNL1       -0.1644
     28 F           4.0448   -2.7261   32.7521 F       1  UNL1       -0.1644
     29 C           2.4682   -0.6275   29.1112 C.3     1  UNL1        0.0021
     30 C           3.8289   -0.1351   28.7162 C.3     1  UNL1        0.0241
     31 C           4.2569    1.2565   29.0771 C.3     1  UNL1        0.0021
@<TRIPOS>BOND
     1    29    30    1
     2    30    31    1
     3     1    30    1
     4     1     2    1
     5     2     3   ar
     6     3     4   ar
     7     4     9    1
     8     9    10   ar
     9    10    11   ar
    10    11    12   ar
    11    12    13   ar
    12    13    15    1
    13    15    16    1
    14    15    17    2
    15    15    18    2
    16    13    14   ar
    17     4     5   ar
    18     5     6   ar
    19     6     7    1
    20     7     8    1
    21     8    19    1
    22    19    20   ar
    23    20    21   ar
    24    21    22   ar
    25    22    23   ar
    26    23    25    1
    27    25    26    1
    28    25    27    1
    29    25    28    1
    30    23    24   ar
    31     8     1    1
    32    24    19   ar
    33     6     2   ar
    34    14     9   ar
@<TRIPOS>MOLECULE
*****
 31 34 0 0 0
SMALL
GASTEIGER

@<TRIPOS>ATOM
      1 C           6.4660   -2.8122   30.1143 C.3     1  UNL1        0.1174
      2 C           5.6872   -1.9616   31.0735 C.ar    1  UNL1        0.0961
      3 N           4.9834   -0.6467   31.2338 N.ar    1  UNL1       -0.1681
      4 N           4.4271   -0.5855   32.6255 N.ar    1  UNL1       -0.2287
      5 C           4.7871   -1.8625   33.3253 C.ar    1  UNL1        0.0990
      6 C           5.5659   -2.7130   32.3660 C.ar    1  UNL1        0.0337
      7 C           6.2697   -4.0279   32.2057 C.3     1  UNL1        0.1235
      8 N           6.8260   -4.0892   30.8140 N.pl3   1  UNL1       -0.2703
      9 C           3.6477    0.5530   33.2141 C.ar    1  UNL1        0.0841
     10 C           2.6655    1.3066   32.3672 C.ar    1  UNL1        0.0192
     11 C           1.8860    2.4450   32.9559 C.ar    1  UNL1        0.0029
     12 C           2.0888    2.8298   34.3914 C.ar    1  UNL1        0.0184
     13 C           3.0711    2.0762   35.2383 C.ar    1  UNL1        0.1072
     14 C           3.8505    0.9378   34.6496 C.ar    1  UNL1        0.0375
     15 S           3.2739    2.4610   36.6739 S.O2    1  UNL1        0.0105
     16 C           3.4767    2.8458   38.1094 C.3     1  UNL1        0.1816
     17 O           4.6378    1.8372   36.6484 O.2     1  UNL1       -0.1686
     18 O           1.9100    3.0848   36.6993 O.2     1  UNL1       -0.1686
     19 C           7.6054   -5.2276   30.2254 C.ar    1  UNL1        0.2206
     20 N           8.7564   -5.8198   30.9835 N.ar    1  UNL1       -0.2121
     21 C           9.5358   -6.9582   30.3950 C.ar    1  UNL1        0.1033
     22 C           9.1643   -7.5045   29.0482 C.ar    1  UNL1        0.0439
     23 C           8.0134   -6.9124   28.2901 C.ar    1  UNL1        0.1570
     24 N           7.2340   -5.7739   28.8787 N.ar    1  UNL1       -0.2096
     25 C           7.6419   -7.4586   26.9434 C.3     1  UNL1        0.4350
     26 F           7.2704   -8.0049   25.5967 F       1  UNL1       -0.1644
     27 F           8.8055   -8.4032   27.0056 F       1  UNL1       -0.1644
     28 F           6.4783   -6.5140   26.8813 F       1  UNL1       -0.1644
     29 C           5.8159   -2.6297   27.6055 C.3     1  UNL1        0.0021
     30 C           6.8223   -2.4494   28.7031 C.3     1  UNL1        0.0241
     31 C           8.1849   -1.9063   28.3895 C.3     1  UNL1        0.0021
@<TRIPOS>BOND
     1    29    30    1
     2    30    31    1
     3     1    30    1
     4     1     2    1
     5     2     3   ar
     6     3     4   ar
     7     4     9    1
     8     9    10   ar
     9    10    11   ar
    10    11    12   ar
    11    12    13   ar
    12    13    15    1
    13    15    16    1
    14    15    17    2
    15    15    18    2
    16    13    14   ar
    17     4     5   ar
    18     5     6   ar
    19     6     7    1
    20     7     8    1
    21     8    19    1
    22    19    20   ar
    23    20    21   ar
    24    21    22   ar
    25    22    23   ar
    26    23    25    1
    27    25    26    1
    28    25    27    1
    29    25    28    1
    30    23    24   ar
    31     8     1    1
    32    24    19   ar
    33     6     2   ar
    34    14     9   ar
