@<TRIPOS>MOLECULE
*****
 28 32 0 0 0
SMALL
GASTEIGER

@<TRIPOS>ATOM
      1 N          -5.4938  -17.3347   22.6818 N.ar    1  UNL1       -0.2954
      2 C          -6.4708  -18.4568   22.4908 C.ar    1  UNL1        0.2014
      3 N          -5.7206  -19.6375   21.9495 N.ar    1  UNL1       -0.2136
      4 C          -4.2799  -19.2452   21.8059 C.ar    1  UNL1        0.0999
      5 C          -3.0776  -20.0000   21.3214 C.ar    1  UNL1        0.0207
      6 C          -1.7352  -19.3316   21.2896 C.ar    1  UNL1        0.0016
      7 C          -1.5950  -17.9084   21.7422 C.ar    1  UNL1        0.0016
      8 C          -2.7973  -17.1536   22.2266 C.ar    1  UNL1        0.0188
      9 C          -4.1397  -17.8220   22.2584 C.ar    1  UNL1        0.0801
     10 N          -7.9400  -18.4069   22.7889 N.pl3   1  UNL1       -0.2794
     11 C          -8.8387  -17.5156   21.9840 C.3     1  UNL1        0.0955
     12 C         -10.3080  -17.4657   22.2821 C.3     1  UNL1        0.0441
     13 C         -10.8785  -18.3070   23.3851 C.3     1  UNL1        0.0890
     14 C          -9.9798  -19.1983   24.1900 C.3     1  UNL1        0.0441
     15 C          -8.5105  -19.2482   23.8919 C.3     1  UNL1        0.0955
     16 N         -12.3477  -18.2571   23.6831 N.ar    1  UNL1       -0.3267
     17 C         -12.9941  -18.6024   24.9920 C.ar    1  UNL1        0.0759
     18 C         -14.4744  -18.4118   24.8425 C.ar    1  UNL1        0.0202
     19 C         -14.7430  -17.9488   23.4412 C.ar    1  UNL1        0.0202
     20 C         -13.4286  -17.8532   22.7247 C.ar    1  UNL1        0.0759
     21 C          -5.8145  -15.9657   23.2043 C.3     1  UNL1        0.1354
     22 F          -8.8654  -15.3510   28.3340 F       1  UNL1       -0.2042
     23 C          -8.1027  -15.5047   27.0515 C.ar    1  UNL1        0.1401
     24 C          -6.6211  -15.7372   27.0834 C.ar    1  UNL1        0.0294
     25 C          -5.8584  -15.8909   25.8009 C.ar    1  UNL1       -0.0001
     26 C          -6.5772  -15.8120   24.4866 C.ar    1  UNL1        0.0006
     27 C          -8.0587  -15.5795   24.4549 C.ar    1  UNL1       -0.0001
     28 C          -8.8214  -15.4258   25.7373 C.ar    1  UNL1        0.0294
@<TRIPOS>BOND
     1    22    23    1
     2    23    24   ar
     3    24    25   ar
     4    25    26   ar
     5    26    21    1
     6    21     1    1
     7     1     2   ar
     8     2    10    1
     9    10    11    1
    10    11    12    1
    11    12    13    1
    12    13    16    1
    13    16    17   ar
    14    17    18   ar
    15    18    19   ar
    16    19    20   ar
    17    13    14    1
    18    14    15    1
    19     2     3   ar
    20     3     4   ar
    21     4     5   ar
    22     5     6   ar
    23     6     7   ar
    24     7     8   ar
    25     8     9   ar
    26    26    27   ar
    27    27    28   ar
    28    28    23   ar
    29     9     1   ar
    30    15    10    1
    31     9     4   ar
    32    20    16   ar
@<TRIPOS>MOLECULE
*****
 28 32 0 0 0
SMALL
GASTEIGER

@<TRIPOS>ATOM
      1 N          -8.3792  -17.3623   22.3962 N.ar    1  UNL1       -0.2954
      2 C          -7.5524  -18.4614   21.7975 C.ar    1  UNL1        0.2014
      3 N          -8.4452  -19.6469   21.5799 N.ar    1  UNL1       -0.2136
      4 C          -9.8238  -19.2805   22.0441 C.ar    1  UNL1        0.0999
      5 C         -11.1109  -20.0502   22.0725 C.ar    1  UNL1        0.0207
      6 C         -12.3572  -19.4079   22.6055 C.ar    1  UNL1        0.0016
      7 C         -12.3163  -17.9959   23.1100 C.ar    1  UNL1        0.0016
      8 C         -11.0292  -17.2262   23.0816 C.ar    1  UNL1        0.0188
      9 C          -9.7829  -17.8685   22.5486 C.ar    1  UNL1        0.0801
     10 N          -6.0897  -18.3879   21.4734 N.pl3   1  UNL1       -0.2794
     11 C          -5.1023  -18.0218   22.5415 C.3     1  UNL1        0.0955
     12 C          -3.6396  -17.9483   22.2174 C.3     1  UNL1        0.0441
     13 C          -3.1643  -18.2408   20.8251 C.3     1  UNL1        0.0890
     14 C          -4.1517  -18.6069   19.7570 C.3     1  UNL1        0.0441
     15 C          -5.6144  -18.6804   20.0811 C.3     1  UNL1        0.0955
     16 N          -1.7016  -18.1673   20.5010 N.ar    1  UNL1       -0.3267
     17 C          -0.8763  -16.9168   20.4286 C.ar    1  UNL1        0.0759
     18 C           0.5280  -17.3080   20.0752 C.ar    1  UNL1        0.0202
     19 C           0.5707  -18.8003   19.9292 C.ar    1  UNL1        0.0202
     20 C          -0.8073  -19.3313   20.1923 C.ar    1  UNL1        0.0759
     21 C          -7.8883  -15.9967   22.7759 C.3     1  UNL1        0.1354
     22 F          -6.4771  -14.7949   28.4824 F       1  UNL1       -0.2042
     23 C          -6.8299  -15.0954   27.0558 C.ar    1  UNL1        0.1401
     24 C          -5.7615  -15.0951   26.0029 C.ar    1  UNL1        0.0294
     25 C          -6.1143  -15.3955   24.5763 C.ar    1  UNL1       -0.0001
     26 C          -7.5356  -15.6963   24.2025 C.ar    1  UNL1        0.0006
     27 C          -8.6039  -15.6965   25.2554 C.ar    1  UNL1       -0.0001
     28 C          -8.2511  -15.3961   26.6820 C.ar    1  UNL1        0.0294
@<TRIPOS>BOND
     1    22    23    1
     2    23    24   ar
     3    24    25   ar
     4    25    26   ar
     5    26    21    1
     6    21     1    1
     7     1     2   ar
     8     2    10    1
     9    10    11    1
    10    11    12    1
    11    12    13    1
    12    13    16    1
    13    16    17   ar
    14    17    18   ar
    15    18    19   ar
    16    19    20   ar
    17    13    14    1
    18    14    15    1
    19     2     3   ar
    20     3     4   ar
    21     4     5   ar
    22     5     6   ar
    23     6     7   ar
    24     7     8   ar
    25     8     9   ar
    26    26    27   ar
    27    27    28   ar
    28    28    23   ar
    29     9     1   ar
    30    15    10    1
    31     9     4   ar
    32    20    16   ar
@<TRIPOS>MOLECULE
*****
 28 32 0 0 0
SMALL
GASTEIGER

@<TRIPOS>ATOM
      1 N           1.3456    4.9045   35.9209 N.ar    1  UNL1       -0.2954
      2 C           1.6184    4.3268   34.5638 C.ar    1  UNL1        0.2014
      3 N           0.6524    4.9422   33.5953 N.ar    1  UNL1       -0.2136
      4 C          -0.2175    5.9003   34.3538 C.ar    1  UNL1        0.0999
      5 C          -1.3443    6.7909   33.9214 C.ar    1  UNL1        0.0207
      6 C          -2.0427    7.6582   34.9263 C.ar    1  UNL1        0.0016
      7 C          -1.6143    7.6350   36.3637 C.ar    1  UNL1        0.0016
      8 C          -0.4875    6.7444   36.7961 C.ar    1  UNL1        0.0188
      9 C           0.2109    5.8770   35.7912 C.ar    1  UNL1        0.0801
     10 N           2.6723    3.3118   34.2333 N.pl3   1  UNL1       -0.2794
     11 C           4.1217    3.6446   34.4290 C.3     1  UNL1        0.0955
     12 C           5.1755    2.6296   34.0984 C.3     1  UNL1        0.0441
     13 C           4.7799    1.2818   33.5722 C.3     1  UNL1        0.0890
     14 C           3.3305    0.9490   33.3765 C.3     1  UNL1        0.0441
     15 C           2.2767    1.9640   33.7071 C.3     1  UNL1        0.0955
     16 N           5.8338    0.2668   33.2417 N.ar    1  UNL1       -0.3267
     17 C           5.6217   -1.2117   33.1046 C.ar    1  UNL1        0.0759
     18 C           6.9416   -1.8402   32.7684 C.ar    1  UNL1        0.0202
     19 C           7.9694   -0.7500   32.6976 C.ar    1  UNL1        0.0202
     20 C           7.2847    0.5522   32.9902 C.ar    1  UNL1        0.0759
     21 C           2.0786    4.5687   37.1858 C.3     1  UNL1        0.1354
     22 F           1.1296   -0.6998   39.8953 F       1  UNL1       -0.2042
     23 C           1.3669    0.6173   39.2179 C.ar    1  UNL1        0.1401
     24 C           0.4043    1.7496   39.4217 C.ar    1  UNL1        0.0294
     25 C           0.6416    3.0667   38.7443 C.ar    1  UNL1       -0.0001
     26 C           1.8414    3.2517   37.8631 C.ar    1  UNL1        0.0006
     27 C           2.8039    2.1193   37.6594 C.ar    1  UNL1       -0.0001
     28 C           2.5666    0.8022   38.3368 C.ar    1  UNL1        0.0294
@<TRIPOS>BOND
     1    22    23    1
     2    23    24   ar
     3    24    25   ar
     4    25    26   ar
     5    26    21    1
     6    21     1    1
     7     1     2   ar
     8     2    10    1
     9    10    11    1
    10    11    12    1
    11    12    13    1
    12    13    16    1
    13    16    17   ar
    14    17    18   ar
    15    18    19   ar
    16    19    20   ar
    17    13    14    1
    18    14    15    1
    19     2     3   ar
    20     3     4   ar
    21     4     5   ar
    22     5     6   ar
    23     6     7   ar
    24     7     8   ar
    25     8     9   ar
    26    26    27   ar
    27    27    28   ar
    28    28    23   ar
    29     9     1   ar
    30    15    10    1
    31     9     4   ar
    32    20    16   ar
@<TRIPOS>MOLECULE
*****
 28 32 0 0 0
SMALL
GASTEIGER

@<TRIPOS>ATOM
      1 N          -5.5975  -19.6676   21.6209 N.ar    1  UNL1       -0.2954
      2 C          -6.2758  -18.5379   22.3377 C.ar    1  UNL1        0.2014
      3 N          -5.2564  -17.4648   22.5809 N.ar    1  UNL1       -0.2136
      4 C          -3.9481  -17.9312   22.0144 C.ar    1  UNL1        0.0999
      5 C          -2.5921  -17.2921   21.9622 C.ar    1  UNL1        0.0207
      6 C          -1.4469  -18.0145   21.3166 C.ar    1  UNL1        0.0016
      7 C          -1.6578  -19.3759   20.7233 C.ar    1  UNL1        0.0016
      8 C          -3.0138  -20.0150   20.7755 C.ar    1  UNL1        0.0188
      9 C          -4.1590  -19.2926   21.4210 C.ar    1  UNL1        0.0801
     10 N          -7.7199  -18.4898   22.7406 N.pl3   1  UNL1       -0.2794
     11 C          -8.4266  -19.7480   23.1498 C.3     1  UNL1        0.0955
     12 C          -9.8707  -19.6999   23.5526 C.3     1  UNL1        0.0441
     13 C         -10.6080  -18.3937   23.5463 C.3     1  UNL1        0.0890
     14 C          -9.9013  -17.1355   23.1371 C.3     1  UNL1        0.0441
     15 C          -8.4572  -17.1836   22.7342 C.3     1  UNL1        0.0955
     16 N         -12.0521  -18.3456   23.9492 N.ar    1  UNL1       -0.3267
     17 C         -12.6136  -18.7782   25.2712 C.ar    1  UNL1        0.0759
     18 C         -14.0968  -18.5564   25.2398 C.ar    1  UNL1        0.0202
     19 C         -14.4520  -17.9868   23.8984 C.ar    1  UNL1        0.0202
     20 C         -13.1884  -17.8565   23.1008 C.ar    1  UNL1        0.0759
     21 C          -6.2443  -20.9475   21.1810 C.3     1  UNL1        0.1354
     22 F          -9.8676  -20.9896   16.3988 F       1  UNL1       -0.2042
     23 C          -8.9618  -20.9790   17.5944 C.ar    1  UNL1        0.1401
     24 C          -8.1134  -22.1770   17.9031 C.ar    1  UNL1        0.0294
     25 C          -7.2076  -22.1664   19.0986 C.ar    1  UNL1       -0.0001
     26 C          -7.1501  -20.9580   19.9855 C.ar    1  UNL1        0.0006
     27 C          -7.9985  -19.7601   19.6767 C.ar    1  UNL1       -0.0001
     28 C          -8.9043  -19.7707   18.4812 C.ar    1  UNL1        0.0294
@<TRIPOS>BOND
     1    22    23    1
     2    23    24   ar
     3    24    25   ar
     4    25    26   ar
     5    26    21    1
     6    21     1    1
     7     1     2   ar
     8     2    10    1
     9    10    11    1
    10    11    12    1
    11    12    13    1
    12    13    16    1
    13    16    17   ar
    14    17    18   ar
    15    18    19   ar
    16    19    20   ar
    17    13    14    1
    18    14    15    1
    19     2     3   ar
    20     3     4   ar
    21     4     5   ar
    22     5     6   ar
    23     6     7   ar
    24     7     8   ar
    25     8     9   ar
    26    26    27   ar
    27    27    28   ar
    28    28    23   ar
    29     9     1   ar
    30    15    10    1
    31     9     4   ar
    32    20    16   ar
@<TRIPOS>MOLECULE
*****
 28 32 0 0 0
SMALL
GASTEIGER

@<TRIPOS>ATOM
      1 N           6.4840   -1.1271   18.7790 N.ar    1  UNL1       -0.2954
      2 C           7.5616   -1.3321   19.8021 C.ar    1  UNL1        0.2014
      3 N           8.6479   -0.3321   19.5378 N.ar    1  UNL1       -0.2136
      4 C           8.2418    0.4909   18.3514 C.ar    1  UNL1        0.0999
      5 C           8.9170    1.6242   17.6375 C.ar    1  UNL1        0.0207
      6 C           8.2548    2.2662   16.4546 C.ar    1  UNL1        0.0016
      7 C           6.9174    1.7749   15.9856 C.ar    1  UNL1        0.0016
      8 C           6.2422    0.6416   16.6994 C.ar    1  UNL1        0.0188
      9 C           6.9044   -0.0004   17.8823 C.ar    1  UNL1        0.0801
     10 N           7.5541   -2.3571   20.8972 N.pl3   1  UNL1       -0.2794
     11 C           6.8761   -2.0567   22.2011 C.3     1  UNL1        0.0955
     12 C           6.8686   -3.0817   23.2962 C.3     1  UNL1        0.0441
     13 C           7.5391   -4.4071   23.0875 C.3     1  UNL1        0.0890
     14 C           8.2171   -4.7075   21.7837 C.3     1  UNL1        0.0441
     15 C           8.2246   -3.6825   20.6885 C.3     1  UNL1        0.0955
     16 N           7.5316   -5.4321   24.1826 N.ar    1  UNL1       -0.3267
     17 C           8.1166   -6.8111   24.1036 C.ar    1  UNL1        0.0759
     18 C           7.8843   -7.4893   25.4212 C.ar    1  UNL1        0.0202
     19 C           7.1559   -6.5295   26.3146 C.ar    1  UNL1        0.0202
     20 C           6.9379   -5.2581   25.5491 C.ar    1  UNL1        0.0759
     21 C           5.2098   -1.9111   18.6713 C.3     1  UNL1        0.1354
     22 F          -0.0289    0.6754   20.0372 F       1  UNL1       -0.2042
     23 C           1.2808    0.0287   19.6957 C.ar    1  UNL1        0.1401
     24 C           1.9491   -0.8797   20.6847 C.ar    1  UNL1        0.0294
     25 C           3.2588   -1.5263   20.3432 C.ar    1  UNL1       -0.0001
     26 C           3.9002   -1.2645   19.0127 C.ar    1  UNL1        0.0006
     27 C           3.2318   -0.3561   18.0237 C.ar    1  UNL1       -0.0001
     28 C           1.9221    0.2905   18.3652 C.ar    1  UNL1        0.0294
@<TRIPOS>BOND
     1    22    23    1
     2    23    24   ar
     3    24    25   ar
     4    25    26   ar
     5    26    21    1
     6    21     1    1
     7     1     2   ar
     8     2    10    1
     9    10    11    1
    10    11    12    1
    11    12    13    1
    12    13    16    1
    13    16    17   ar
    14    17    18   ar
    15    18    19   ar
    16    19    20   ar
    17    13    14    1
    18    14    15    1
    19     2     3   ar
    20     3     4   ar
    21     4     5   ar
    22     5     6   ar
    23     6     7   ar
    24     7     8   ar
    25     8     9   ar
    26    26    27   ar
    27    27    28   ar
    28    28    23   ar
    29     9     1   ar
    30    15    10    1
    31     9     4   ar
    32    20    16   ar
@<TRIPOS>MOLECULE
*****
 28 32 0 0 0
SMALL
GASTEIGER

@<TRIPOS>ATOM
      1 N          -2.0158    3.6399   22.3767 N.ar    1  UNL1       -0.2954
      2 C          -1.9238    3.0192   21.0142 C.ar    1  UNL1        0.2014
      3 N          -3.3054    2.9725   20.4319 N.ar    1  UNL1       -0.2136
      4 C          -4.2512    3.5645   21.4344 C.ar    1  UNL1        0.0999
      5 C          -5.7352    3.7812   21.4081 C.ar    1  UNL1        0.0207
      6 C          -6.4222    4.4103   22.5838 C.ar    1  UNL1        0.0016
      7 C          -5.6252    4.8228   23.7857 C.ar    1  UNL1        0.0016
      8 C          -4.1412    4.6061   23.8120 C.ar    1  UNL1        0.0188
      9 C          -3.4542    3.9769   22.6364 C.ar    1  UNL1        0.0801
     10 N          -0.6704    2.5308   20.3507 N.pl3   1  UNL1       -0.2794
     11 C          -0.1121    3.2662   19.1686 C.3     1  UNL1        0.0955
     12 C           1.1414    2.7779   18.5050 C.3     1  UNL1        0.0441
     13 C           1.8366    1.5540   19.0235 C.3     1  UNL1        0.0890
     14 C           1.2783    0.8186   20.2056 C.3     1  UNL1        0.0441
     15 C           0.0248    1.3069   20.8692 C.3     1  UNL1        0.0955
     16 N           3.0900    1.0657   18.3599 N.ar    1  UNL1       -0.3267
     17 C           3.2453   -0.2235   17.6090 C.ar    1  UNL1        0.0759
     18 C           4.6595   -0.3052   17.1157 C.ar    1  UNL1        0.0202
     19 C           5.3783    0.9335   17.5618 C.ar    1  UNL1        0.0202
     20 C           4.4083    1.7807   18.3307 C.ar    1  UNL1        0.0759
     21 C          -0.8705    3.8813   23.3147 C.3     1  UNL1        0.1354
     22 F          -0.1667    0.3981   28.1492 F       1  UNL1       -0.2042
     23 C          -0.3426    1.2689   26.9406 C.ar    1  UNL1        0.1401
     24 C          -1.2597    2.4545   26.9975 C.ar    1  UNL1        0.0294
     25 C          -1.4356    3.3253   25.7889 C.ar    1  UNL1       -0.0001
     26 C          -0.6945    3.0105   24.5233 C.ar    1  UNL1        0.0006
     27 C           0.2225    1.8248   24.4664 C.ar    1  UNL1       -0.0001
     28 C           0.3984    0.9540   25.6750 C.ar    1  UNL1        0.0294
@<TRIPOS>BOND
     1    22    23    1
     2    23    24   ar
     3    24    25   ar
     4    25    26   ar
     5    26    21    1
     6    21     1    1
     7     1     2   ar
     8     2    10    1
     9    10    11    1
    10    11    12    1
    11    12    13    1
    12    13    16    1
    13    16    17   ar
    14    17    18   ar
    15    18    19   ar
    16    19    20   ar
    17    13    14    1
    18    14    15    1
    19     2     3   ar
    20     3     4   ar
    21     4     5   ar
    22     5     6   ar
    23     6     7   ar
    24     7     8   ar
    25     8     9   ar
    26    26    27   ar
    27    27    28   ar
    28    28    23   ar
    29     9     1   ar
    30    15    10    1
    31     9     4   ar
    32    20    16   ar
@<TRIPOS>MOLECULE
*****
 28 32 0 0 0
SMALL
GASTEIGER

@<TRIPOS>ATOM
      1 N           6.1814   -2.2110   30.2756 N.ar    1  UNL1       -0.2954
      2 C           6.3042   -2.6755   31.6965 C.ar    1  UNL1        0.2014
      3 N           6.7151   -4.1180   31.6787 N.ar    1  UNL1       -0.2136
      4 C           6.8462   -4.5450   30.2467 C.ar    1  UNL1        0.0999
      5 C           7.2233   -5.8548   29.6204 C.ar    1  UNL1        0.0207
      6 C           7.2706   -5.9859   28.1269 C.ar    1  UNL1        0.0016
      7 C           6.9407   -4.8072   27.2598 C.ar    1  UNL1        0.0016
      8 C           6.5636   -3.4975   27.8861 C.ar    1  UNL1        0.0188
      9 C           6.5163   -3.3664   29.3795 C.ar    1  UNL1        0.0801
     10 N           6.0592   -1.8436   32.9204 N.pl3   1  UNL1       -0.2794
     11 C           4.7330   -1.9085   33.6182 C.3     1  UNL1        0.0955
     12 C           4.4880   -1.0766   34.8421 C.3     1  UNL1        0.0441
     13 C           5.5692   -0.1799   35.3682 C.3     1  UNL1        0.0890
     14 C           6.8954   -0.1150   34.6705 C.3     1  UNL1        0.0441
     15 C           7.1404   -0.9469   33.4466 C.3     1  UNL1        0.0955
     16 N           5.3242    0.6520   36.5921 N.ar    1  UNL1       -0.3267
     17 C           6.3145    1.5674   37.2488 C.ar    1  UNL1        0.0759
     18 C           5.6482    2.1957   38.4368 C.ar    1  UNL1        0.0202
     19 C           4.2460    1.6687   38.5143 C.ar    1  UNL1        0.0202
     20 C           4.0458    0.7147   37.3742 C.ar    1  UNL1        0.0759
     21 C           5.7919   -0.8330   29.8290 C.3     1  UNL1        0.1354
     22 F           0.0069    0.7523   29.6877 F       1  UNL1       -0.2042
     23 C           1.4532    0.3560   29.7230 C.ar    1  UNL1        0.1401
     24 C           2.3087    0.7438   30.8925 C.ar    1  UNL1        0.0294
     25 C           3.7550    0.3475   30.9278 C.ar    1  UNL1       -0.0001
     26 C           4.3458   -0.4367   29.7937 C.ar    1  UNL1        0.0006
     27 C           3.4901   -0.8245   28.6243 C.ar    1  UNL1       -0.0001
     28 C           2.0439   -0.4282   28.5890 C.ar    1  UNL1        0.0294
@<TRIPOS>BOND
     1    22    23    1
     2    23    24   ar
     3    24    25   ar
     4    25    26   ar
     5    26    21    1
     6    21     1    1
     7     1     2   ar
     8     2    10    1
     9    10    11    1
    10    11    12    1
    11    12    13    1
    12    13    16    1
    13    16    17   ar
    14    17    18   ar
    15    18    19   ar
    16    19    20   ar
    17    13    14    1
    18    14    15    1
    19     2     3   ar
    20     3     4   ar
    21     4     5   ar
    22     5     6   ar
    23     6     7   ar
    24     7     8   ar
    25     8     9   ar
    26    26    27   ar
    27    27    28   ar
    28    28    23   ar
    29     9     1   ar
    30    15    10    1
    31     9     4   ar
    32    20    16   ar
@<TRIPOS>MOLECULE
*****
 28 32 0 0 0
SMALL
GASTEIGER

@<TRIPOS>ATOM
      1 N           7.7273   -4.0673   24.9362 N.ar    1  UNL1       -0.2954
      2 C           7.2848   -4.6051   23.6077 C.ar    1  UNL1        0.2014
      3 N           7.6416   -6.0611   23.5550 N.ar    1  UNL1       -0.2136
      4 C           8.3047   -6.4231   24.8508 C.ar    1  UNL1        0.0999
      5 C           8.8671   -7.7155   25.3638 C.ar    1  UNL1        0.0207
      6 C           9.4825   -7.7758   26.7304 C.ar    1  UNL1        0.0016
      7 C           9.5354   -6.5435   27.5840 C.ar    1  UNL1        0.0016
      8 C           8.9730   -5.2510   27.0711 C.ar    1  UNL1        0.0188
      9 C           8.3577   -5.1908   25.7045 C.ar    1  UNL1        0.0801
     10 N           6.6048   -3.8241   22.5225 N.pl3   1  UNL1       -0.2794
     11 C           7.4132   -2.9583   21.6023 C.3     1  UNL1        0.0955
     12 C           6.7332   -2.1773   20.5171 C.3     1  UNL1        0.0441
     13 C           5.2448   -2.2621   20.3521 C.3     1  UNL1        0.0890
     14 C           4.4363   -3.1279   21.2723 C.3     1  UNL1        0.0441
     15 C           5.1163   -3.9089   22.3575 C.3     1  UNL1        0.0955
     16 N           4.5648   -1.4811   19.2669 N.ar    1  UNL1       -0.3267
     17 C           3.5085   -0.4343   19.4634 C.ar    1  UNL1        0.0759
     18 C           3.1126    0.0840   18.1126 C.ar    1  UNL1        0.0202
     19 C           3.9241   -0.6425   17.0813 C.ar    1  UNL1        0.0202
     20 C           4.8216   -1.6097   17.7947 C.ar    1  UNL1        0.0759
     21 C           7.5676   -2.6540   25.4127 C.3     1  UNL1        0.1354
     22 F           2.4325   -0.9173   27.9848 F       1  UNL1       -0.2042
     23 C           3.7163   -1.3515   27.3417 C.ar    1  UNL1        0.1401
     24 C           4.8503   -1.8458   28.1901 C.ar    1  UNL1        0.0294
     25 C           6.1341   -2.2800   27.5470 C.ar    1  UNL1       -0.0001
     26 C           6.2838   -2.2198   26.0557 C.ar    1  UNL1        0.0006
     27 C           5.1498   -1.7255   25.2074 C.ar    1  UNL1       -0.0001
     28 C           3.8660   -1.2913   25.8505 C.ar    1  UNL1        0.0294
@<TRIPOS>BOND
     1    22    23    1
     2    23    24   ar
     3    24    25   ar
     4    25    26   ar
     5    26    21    1
     6    21     1    1
     7     1     2   ar
     8     2    10    1
     9    10    11    1
    10    11    12    1
    11    12    13    1
    12    13    16    1
    13    16    17   ar
    14    17    18   ar
    15    18    19   ar
    16    19    20   ar
    17    13    14    1
    18    14    15    1
    19     2     3   ar
    20     3     4   ar
    21     4     5   ar
    22     5     6   ar
    23     6     7   ar
    24     7     8   ar
    25     8     9   ar
    26    26    27   ar
    27    27    28   ar
    28    28    23   ar
    29     9     1   ar
    30    15    10    1
    31     9     4   ar
    32    20    16   ar
@<TRIPOS>MOLECULE
*****
 28 32 0 0 0
SMALL
GASTEIGER

@<TRIPOS>ATOM
      1 N           4.0191    1.4757   34.8296 N.ar    1  UNL1       -0.2954
      2 C           4.6091    0.1430   35.1842 C.ar    1  UNL1        0.2014
      3 N           4.3317   -0.1153   36.6355 N.ar    1  UNL1       -0.2136
      4 C           3.5702    1.0578   37.1778 C.ar    1  UNL1        0.0999
      5 C           3.0278    1.3576   38.5438 C.ar    1  UNL1        0.0207
      6 C           2.2922    2.6407   38.7936 C.ar    1  UNL1        0.0016
      7 C           2.0990    3.6240   37.6774 C.ar    1  UNL1        0.0016
      8 C           2.6414    3.3242   36.3115 C.ar    1  UNL1        0.0188
      9 C           3.3770    2.0411   36.0617 C.ar    1  UNL1        0.0801
     10 N           5.3471   -0.7709   34.2513 N.pl3   1  UNL1       -0.2794
     11 C           4.6455   -1.9504   33.6459 C.3     1  UNL1        0.0955
     12 C           5.3834   -2.8643   32.7131 C.3     1  UNL1        0.0441
     13 C           6.8229   -2.5988   32.3856 C.3     1  UNL1        0.0890
     14 C           7.5245   -1.4193   32.9910 C.3     1  UNL1        0.0441
     15 C           6.7866   -0.5054   33.9239 C.3     1  UNL1        0.0955
     16 N           7.5608   -3.5127   31.4527 N.ar    1  UNL1       -0.3267
     17 C           6.9817   -4.2037   30.2539 C.ar    1  UNL1        0.0759
     18 C           8.0703   -5.0141   29.6152 C.ar    1  UNL1        0.0202
     19 C           9.3223   -4.8240   30.4192 C.ar    1  UNL1        0.0202
     20 C           9.0073   -3.8961   31.5549 C.ar    1  UNL1        0.0759
     21 C           4.0634    2.1285   33.4798 C.3     1  UNL1        0.1354
     22 F          -0.3082    1.0948   29.5023 F       1  UNL1       -0.2042
     23 C           0.7846    1.3532   30.4967 C.ar    1  UNL1        0.1401
     24 C           2.0481    0.5460   30.4492 C.ar    1  UNL1        0.0294
     25 C           3.1409    0.8045   31.4436 C.ar    1  UNL1       -0.0001
     26 C           2.9705    1.8701   32.4855 C.ar    1  UNL1        0.0006
     27 C           1.7070    2.6772   32.5329 C.ar    1  UNL1       -0.0001
     28 C           0.6142    2.4188   31.5385 C.ar    1  UNL1        0.0294
@<TRIPOS>BOND
     1    22    23    1
     2    23    24   ar
     3    24    25   ar
     4    25    26   ar
     5    26    21    1
     6    21     1    1
     7     1     2   ar
     8     2    10    1
     9    10    11    1
    10    11    12    1
    11    12    13    1
    12    13    16    1
    13    16    17   ar
    14    17    18   ar
    15    18    19   ar
    16    19    20   ar
    17    13    14    1
    18    14    15    1
    19     2     3   ar
    20     3     4   ar
    21     4     5   ar
    22     5     6   ar
    23     6     7   ar
    24     7     8   ar
    25     8     9   ar
    26    26    27   ar
    27    27    28   ar
    28    28    23   ar
    29     9     1   ar
    30    15    10    1
    31     9     4   ar
    32    20    16   ar
