@<TRIPOS>MOLECULE
*****
 34 38 0 0 0
SMALL
GASTEIGER

@<TRIPOS>ATOM
      1 N          -8.3545  -17.8445   22.9726 N.3     1  UNL1       -0.2641
      2 C          -9.8449  -17.9232   23.1224 C.3     1  UNL1        0.0981
      3 C         -10.4439  -18.6297   24.3022 C.3     1  UNL1        0.0224
      4 C         -11.9343  -18.7083   24.4520 C.3     1  UNL1        0.0065
      5 C         -12.8258  -18.0804   23.4219 C.3     1  UNL1        0.0277
      6 C         -12.2268  -17.3739   22.2421 C.ar    1  UNL1       -0.0073
      7 C         -13.1183  -16.7459   21.2120 C.ar    1  UNL1       -0.0015
      8 C         -12.5193  -16.0394   20.0322 C.ar    1  UNL1        0.0203
      9 C         -11.0289  -15.9608   19.8824 C.ar    1  UNL1        0.0985
     10 N         -10.1374  -16.5887   20.9124 N.ar    1  UNL1       -0.2471
     11 C         -10.7364  -17.2953   22.0923 C.ar    1  UNL1        0.0695
     12 C          -7.6489  -16.5356   23.1697 C.3     1  UNL1        0.0992
     13 C          -5.9233  -15.6155   24.8801 C.ar    1  UNL1       -0.0093
     14 C          -5.5917  -15.1432   26.2647 C.ar    1  UNL1       -0.0032
     15 C          -6.6542  -15.1187   27.3233 C.ar    1  UNL1       -0.0003
     16 C          -8.0482  -15.5665   26.9974 C.ar    1  UNL1       -0.0003
     17 C          -8.3797  -16.0388   25.6128 C.ar    1  UNL1       -0.0032
     18 C          -7.3174  -16.0633   24.5542 C.ar    1  UNL1       -0.0088
     19 N          -4.7338  -14.4958   22.8600 N.3     1  UNL1       -0.3175
     20 C          -4.8609  -15.6400   23.8215 C.3     1  UNL1        0.0919
     21 H          -3.9656  -14.6781   22.2143 H       1  UNL1        0.1192
     22 H          -4.5469  -13.6365   23.3768 H       1  UNL1        0.1192
     23 C          -7.5696  -19.0748   22.6257 C.3     1  UNL1        0.0888
     24 C          -6.3443  -18.9656   21.7673 C.3     1  UNL1        0.0748
     25 C          -4.9929  -18.8277   22.4033 C.3     1  UNL1        0.0432
     26 C          -3.7676  -18.7184   21.5449 C.ar    1  UNL1       -0.0234
     27 C          -2.4162  -18.5805   22.1809 C.ar    1  UNL1       -0.0045
     28 C          -1.1910  -18.4713   21.3225 C.ar    1  UNL1       -0.0003
     29 C          -1.3172  -18.5000   19.8281 C.ar    1  UNL1       -0.0003
     30 C          -2.6687  -18.6379   19.1921 C.ar    1  UNL1       -0.0032
     31 C          -3.8938  -18.7471   20.0505 C.ar    1  UNL1       -0.0103
     32 C          -5.2454  -18.8850   19.4145 C.3     1  UNL1        0.0953
     33 N          -6.4706  -18.9942   20.2729 N.3     1  UNL1       -0.2934
     34 H          -6.9209  -19.8772   20.0323 H       1  UNL1        0.1236
@<TRIPOS>BOND
     1    19    20    1
     2    20    13    1
     3    13    14   ar
     4    14    15   ar
     5    15    16   ar
     6    16    17   ar
     7    17    18   ar
     8    18    12    1
     9    12     1    1
    10     1    23    1
    11    24    23    1
    12    24    25    1
    13    25    26    1
    14    26    27   ar
    15    27    28   ar
    16    28    29   ar
    17    29    30   ar
    18    30    31   ar
    19    31    32    1
    20    32    33    1
    21     2     1    1
    22     2     3    1
    23     3     4    1
    24     4     5    1
    25     5     6    1
    26     6     7   ar
    27     7     8   ar
    28     8     9   ar
    29     9    10   ar
    30    10    11   ar
    31    18    13   ar
    32    33    24    1
    33    11     2    1
    34    31    26   ar
    35    11     6   ar
    36    19    21    1
    37    19    22    1
    38    33    34    1
@<TRIPOS>MOLECULE
*****
 34 38 0 0 0
SMALL
GASTEIGER

@<TRIPOS>ATOM
      1 N          -8.5766  -17.0899   22.4310 N.3     1  UNL1       -0.2641
      2 C         -10.0216  -16.9496   22.0539 C.3     1  UNL1        0.0981
      3 C         -10.4013  -16.2338   20.7917 C.3     1  UNL1        0.0224
      4 C         -11.8463  -16.0935   20.4147 C.3     1  UNL1        0.0065
      5 C         -12.9117  -16.6690   21.2999 C.3     1  UNL1        0.0277
      6 C         -12.5320  -17.3848   22.5622 C.ar    1  UNL1       -0.0073
      7 C         -13.5974  -17.9603   23.4476 C.ar    1  UNL1       -0.0015
      8 C         -13.2177  -18.6761   24.7099 C.ar    1  UNL1        0.0203
      9 C         -11.7727  -18.8164   25.0869 C.ar    1  UNL1        0.0985
     10 N         -10.7073  -18.2410   24.2016 N.ar    1  UNL1       -0.2471
     11 C         -11.0870  -17.5251   22.9392 C.ar    1  UNL1        0.0695
     12 C          -7.8039  -15.8925   22.8992 C.3     1  UNL1        0.0992
     13 C          -6.0843  -15.5652   24.8190 C.ar    1  UNL1       -0.0093
     14 C          -5.7840  -15.3900   26.2782 C.ar    1  UNL1       -0.0032
     15 C          -6.9032  -15.3670   27.2767 C.ar    1  UNL1       -0.0003
     16 C          -8.3225  -15.5192   26.8161 C.ar    1  UNL1       -0.0003
     17 C          -8.6228  -15.6944   25.3569 C.ar    1  UNL1       -0.0032
     18 C          -7.5037  -15.7174   24.3584 C.ar    1  UNL1       -0.0088
     19 N          -4.7991  -14.4532   22.8540 N.3     1  UNL1       -0.3175
     20 C          -4.9652  -15.5881   23.8205 C.3     1  UNL1        0.0919
     21 H          -3.9944  -14.6330   22.2535 H       1  UNL1        0.1192
     22 H          -4.6510  -13.5859   23.3701 H       1  UNL1        0.1192
     23 C          -7.9041  -18.4276   22.3397 C.3     1  UNL1        0.0888
     24 C          -6.6074  -18.5662   21.5985 C.3     1  UNL1        0.0748
     25 C          -5.3089  -18.5491   22.3491 C.3     1  UNL1        0.0432
     26 C          -4.0121  -18.6877   21.6079 C.ar    1  UNL1       -0.0234
     27 C          -2.7136  -18.6706   22.3585 C.ar    1  UNL1       -0.0045
     28 C          -1.4170  -18.8092   21.6173 C.ar    1  UNL1       -0.0003
     29 C          -1.4189  -18.9649   20.1254 C.ar    1  UNL1       -0.0003
     30 C          -2.7174  -18.9820   19.3748 C.ar    1  UNL1       -0.0032
     31 C          -4.0140  -18.8434   20.1160 C.ar    1  UNL1       -0.0103
     32 C          -5.3126  -18.8605   19.3653 C.3     1  UNL1        0.0953
     33 N          -6.6092  -18.7219   20.1066 N.3     1  UNL1       -0.2934
     34 H          -7.1581  -19.5561   19.8983 H       1  UNL1        0.1236
@<TRIPOS>BOND
     1    19    20    1
     2    20    13    1
     3    13    14   ar
     4    14    15   ar
     5    15    16   ar
     6    16    17   ar
     7    17    18   ar
     8    18    12    1
     9    12     1    1
    10     1    23    1
    11    24    23    1
    12    24    25    1
    13    25    26    1
    14    26    27   ar
    15    27    28   ar
    16    28    29   ar
    17    29    30   ar
    18    30    31   ar
    19    31    32    1
    20    32    33    1
    21     2     1    1
    22     2     3    1
    23     3     4    1
    24     4     5    1
    25     5     6    1
    26     6     7   ar
    27     7     8   ar
    28     8     9   ar
    29     9    10   ar
    30    10    11   ar
    31    18    13   ar
    32    33    24    1
    33    11     2    1
    34    31    26   ar
    35    11     6   ar
    36    19    21    1
    37    19    22    1
    38    33    34    1
