@<TRIPOS>MOLECULE
*****
 24 27 0 0 0
SMALL
GASTEIGER

@<TRIPOS>ATOM
      1 C         -10.8166  -18.4342   22.5120 C.3     1  UNL1        0.0385
      2 C         -11.9212  -18.1344   23.4815 C.3     1  UNL1        0.0228
      3 C         -13.1162  -17.6808   22.6967 C.3     1  UNL1        0.0689
      4 N         -12.7503  -17.7003   21.2422 N.3     1  UNL1       -0.2972
      5 C         -11.3290  -18.1660   21.1280 C.3     1  UNL1        0.0729
      6 H         -12.8400  -16.7630   20.8501 H       1  UNL1        0.1233
      7 C          -4.7115  -19.6887   21.1296 C.2     1  UNL1        0.1488
      8 C          -5.5539  -19.2590   22.2939 C.2     1  UNL1        0.0308
      9 C          -6.9776  -19.1738   21.8296 C.2     1  UNL1        0.0158
     10 C          -8.2447  -18.8016   22.5409 C.2     1  UNL1       -0.0033
     11 C          -9.5494  -18.8065   21.8008 C.2     1  UNL1       -0.0250
     12 C          -9.5870  -19.1836   20.3494 C.2     1  UNL1       -0.0240
     13 C          -8.3199  -19.5558   19.6382 C.3     1  UNL1        0.0714
     14 C          -7.0152  -19.5509   20.3783 C.2     1  UNL1        0.0641
     15 N          -5.6147  -19.8691   19.9457 N.2     1  UNL1       -0.2390
     16 N          -1.7418  -20.1129   21.1629 N.1     1  UNL1       -0.1893
     17 C          -3.2266  -19.9008   21.1463 C.1     1  UNL1        0.1197
     18 C         -10.0392  -18.7803   23.7473 C.3     1  UNL1        0.0317
     19 C          -9.5292  -17.6902   24.6425 C.ar    1  UNL1       -0.0218
     20 C          -9.2440  -17.9776   26.0869 C.ar    1  UNL1       -0.0043
     21 C          -8.7341  -16.8875   26.9821 C.ar    1  UNL1       -0.0003
     22 C          -8.5093  -15.5098   26.4330 C.ar    1  UNL1       -0.0000
     23 C          -8.7944  -15.2223   24.9887 C.ar    1  UNL1       -0.0003
     24 C          -9.3044  -16.3125   24.0934 C.ar    1  UNL1       -0.0043
@<TRIPOS>BOND
     1    16    17    3
     2    17     7    1
     3     7     8    2
     4     8     9    1
     5     9    10    2
     6    10    11    1
     7    11     1    1
     8     1    18    1
     9    18    19    1
    10    19    20   ar
    11    20    21   ar
    12    21    22   ar
    13    22    23   ar
    14    23    24   ar
    15     1     2    1
    16     2     3    1
    17     3     4    1
    18     4     5    1
    19    11    12    2
    20    12    13    1
    21    13    14    1
    22    14    15    2
    23    15     7    1
    24    14     9    1
    25     5     1    1
    26    24    19   ar
    27     4     6    1
@<TRIPOS>MOLECULE
*****
 24 27 0 0 0
SMALL
GASTEIGER

@<TRIPOS>ATOM
      1 C          -6.8714  -17.7458   22.6124 C.3     1  UNL1        0.0385
      2 C          -5.3747  -17.6852   22.6911 C.3     1  UNL1        0.0228
      3 C          -4.8371  -19.0422   22.3453 C.3     1  UNL1        0.0689
      4 N          -6.0015  -19.9414   22.0529 N.3     1  UNL1       -0.2972
      5 C          -7.2588  -19.1402   22.2180 C.3     1  UNL1        0.0729
      6 H          -6.0039  -20.7272   22.7033 H       1  UNL1        0.1233
      7 C         -13.1267  -18.0734   23.8458 C.2     1  UNL1        0.1488
      8 C         -11.8457  -18.7385   24.2541 C.2     1  UNL1        0.0308
      9 C         -10.7245  -18.0882   23.4990 C.2     1  UNL1        0.0158
     10 C          -9.2442  -18.3297   23.4951 C.2     1  UNL1       -0.0033
     11 C          -8.3519  -17.5042   22.6163 C.2     1  UNL1       -0.0250
     12 C          -8.9400  -16.4372   21.7414 C.2     1  UNL1       -0.0240
     13 C         -10.4204  -16.1956   21.7453 C.3     1  UNL1        0.0714
     14 C         -11.3126  -17.0211   22.6241 C.2     1  UNL1        0.0641
     15 N         -12.7972  -17.0120   22.8385 N.2     1  UNL1       -0.2390
     16 N         -15.8665  -18.7477   24.8651 N.1     1  UNL1       -0.1893
     17 C         -14.4966  -18.4105   24.3555 C.1     1  UNL1        0.1197
     18 C          -6.7935  -16.3009   23.0076 C.3     1  UNL1        0.0317
     19 C          -6.7362  -15.9221   24.4578 C.ar    1  UNL1       -0.0218
     20 C          -5.4222  -15.5682   25.0892 C.ar    1  UNL1       -0.0043
     21 C          -5.3649  -15.1894   26.5394 C.ar    1  UNL1       -0.0003
     22 C          -6.6213  -15.1645   27.3584 C.ar    1  UNL1       -0.0000
     23 C          -7.9352  -15.5184   26.7271 C.ar    1  UNL1       -0.0003
     24 C          -7.9926  -15.8972   25.2768 C.ar    1  UNL1       -0.0043
@<TRIPOS>BOND
     1    16    17    3
     2    17     7    1
     3     7     8    2
     4     8     9    1
     5     9    10    2
     6    10    11    1
     7    11     1    1
     8     1    18    1
     9    18    19    1
    10    19    20   ar
    11    20    21   ar
    12    21    22   ar
    13    22    23   ar
    14    23    24   ar
    15     1     2    1
    16     2     3    1
    17     3     4    1
    18     4     5    1
    19    11    12    2
    20    12    13    1
    21    13    14    1
    22    14    15    2
    23    15     7    1
    24    14     9    1
    25     5     1    1
    26    24    19   ar
    27     4     6    1
@<TRIPOS>MOLECULE
*****
 24 27 0 0 0
SMALL
GASTEIGER

@<TRIPOS>ATOM
      1 C          -7.9690  -16.9324   23.8954 C.3     1  UNL1        0.0385
      2 C          -9.1793  -16.4616   24.6460 C.3     1  UNL1        0.0228
      3 C          -8.7896  -15.2509   25.4412 C.3     1  UNL1        0.0689
      4 N          -7.3384  -14.9735   25.1821 N.3     1  UNL1       -0.2972
      5 C          -6.8313  -16.0127   24.2267 C.3     1  UNL1        0.0729
      6 H          -6.8152  -15.0222   26.0563 H       1  UNL1        0.1233
      7 C          -2.5693  -18.5663   20.9068 C.2     1  UNL1        0.1488
      8 C          -3.0762  -17.5278   21.8632 C.2     1  UNL1        0.0308
      9 C          -4.5279  -17.8037   22.1206 C.2     1  UNL1        0.0158
     10 C          -5.5448  -17.1103   22.9780 C.2     1  UNL1       -0.0033
     11 C          -6.9521  -17.6259   23.0380 C.2     1  UNL1       -0.0250
     12 C          -7.3425  -18.8349   22.2406 C.2     1  UNL1       -0.0240
     13 C          -6.3257  -19.5284   21.3833 C.3     1  UNL1        0.0714
     14 C          -4.9184  -19.0128   21.3233 C.2     1  UNL1        0.0641
     15 N          -3.7079  -19.4840   20.5731 N.2     1  UNL1       -0.2390
     16 N           0.2299  -18.7717   19.8475 N.1     1  UNL1       -0.1893
     17 C          -1.1697  -18.6690   20.3772 C.1     1  UNL1        0.1197
     18 C          -8.8941  -17.9971   23.3849 C.3     1  UNL1        0.0317
     19 C         -10.1885  -17.6151   22.7302 C.ar    1  UNL1       -0.0218
     20 C         -10.1851  -16.7154   21.5299 C.ar    1  UNL1       -0.0043
     21 C         -11.4794  -16.3334   20.8752 C.ar    1  UNL1       -0.0003
     22 C         -12.7773  -16.8510   21.4209 C.ar    1  UNL1       -0.0000
     23 C         -12.7808  -17.7506   22.6211 C.ar    1  UNL1       -0.0003
     24 C         -11.4863  -18.1327   23.2758 C.ar    1  UNL1       -0.0043
@<TRIPOS>BOND
     1    16    17    3
     2    17     7    1
     3     7     8    2
     4     8     9    1
     5     9    10    2
     6    10    11    1
     7    11     1    1
     8     1    18    1
     9    18    19    1
    10    19    20   ar
    11    20    21   ar
    12    21    22   ar
    13    22    23   ar
    14    23    24   ar
    15     1     2    1
    16     2     3    1
    17     3     4    1
    18     4     5    1
    19    11    12    2
    20    12    13    1
    21    13    14    1
    22    14    15    2
    23    15     7    1
    24    14     9    1
    25     5     1    1
    26    24    19   ar
    27     4     6    1
@<TRIPOS>MOLECULE
*****
 24 27 0 0 0
SMALL
GASTEIGER

@<TRIPOS>ATOM
      1 C          -9.9629  -18.6940   21.8651 C.3     1  UNL1        0.0385
      2 C         -11.3738  -18.3044   22.1933 C.3     1  UNL1        0.0228
      3 C         -12.0542  -17.9084   20.9165 C.3     1  UNL1        0.0689
      4 N         -11.0640  -18.0532   19.7992 N.3     1  UNL1       -0.2972
      5 C          -9.7714  -18.5387   20.3855 C.3     1  UNL1        0.0729
      6 H         -10.9208  -17.1514   19.3446 H       1  UNL1        0.1233
      7 C          -3.7161  -19.1634   20.6346 C.2     1  UNL1        0.1488
      8 C          -4.8923  -18.3096   20.2636 C.2     1  UNL1        0.0308
      9 C          -6.0952  -18.8377   20.9875 C.2     1  UNL1        0.0158
     10 C          -7.5287  -18.3964   21.0072 C.2     1  UNL1       -0.0033
     11 C          -8.5294  -19.1353   21.8454 C.2     1  UNL1       -0.0250
     12 C          -8.0967  -20.3155   22.6638 C.2     1  UNL1       -0.0240
     13 C          -6.6633  -20.7568   22.6441 C.3     1  UNL1        0.0714
     14 C          -5.6625  -20.0179   21.8060 C.2     1  UNL1        0.0641
     15 N          -4.1922  -20.2192   21.5879 N.2     1  UNL1       -0.2390
     16 N          -0.9053  -18.8198   19.6441 N.1     1  UNL1       -0.1893
     17 C          -2.3107  -18.9916   20.1394 C.1     1  UNL1        0.1197
     18 C          -9.8547  -18.9415   23.3405 C.3     1  UNL1        0.0317
     19 C          -9.3812  -17.8481   24.2517 C.ar    1  UNL1       -0.0218
     20 C          -8.9119  -16.5441   23.6777 C.ar    1  UNL1       -0.0043
     21 C          -8.4383  -15.4507   24.5888 C.ar    1  UNL1       -0.0003
     22 C          -8.4341  -15.6612   26.0740 C.ar    1  UNL1       -0.0000
     23 C          -8.9034  -16.9651   26.6480 C.ar    1  UNL1       -0.0003
     24 C          -9.3770  -18.0586   25.7368 C.ar    1  UNL1       -0.0043
@<TRIPOS>BOND
     1    16    17    3
     2    17     7    1
     3     7     8    2
     4     8     9    1
     5     9    10    2
     6    10    11    1
     7    11     1    1
     8     1    18    1
     9    18    19    1
    10    19    20   ar
    11    20    21   ar
    12    21    22   ar
    13    22    23   ar
    14    23    24   ar
    15     1     2    1
    16     2     3    1
    17     3     4    1
    18     4     5    1
    19    11    12    2
    20    12    13    1
    21    13    14    1
    22    14    15    2
    23    15     7    1
    24    14     9    1
    25     5     1    1
    26    24    19   ar
    27     4     6    1
@<TRIPOS>MOLECULE
*****
 24 27 0 0 0
SMALL
GASTEIGER

@<TRIPOS>ATOM
      1 C         -10.7634  -16.4201   21.6771 C.3     1  UNL1        0.0385
      2 C         -12.2550  -16.2822   21.5992 C.3     1  UNL1        0.0228
      3 C         -12.6085  -15.8504   20.2069 C.3     1  UNL1        0.0689
      4 N         -11.3354  -15.7215   19.4243 N.3     1  UNL1       -0.2972
      5 C         -10.1951  -16.0735   20.3330 C.3     1  UNL1        0.0729
      6 H         -11.2295  -14.7632   19.0911 H       1  UNL1        0.1233
      7 C          -4.8085  -18.6919   22.0449 C.2     1  UNL1        0.1488
      8 C          -6.0882  -18.9557   21.3080 C.2     1  UNL1        0.0308
      9 C          -7.1069  -17.9595   21.7767 C.2     1  UNL1        0.0158
     10 C          -8.5424  -17.7395   21.4013 C.2     1  UNL1       -0.0033
     11 C          -9.3278  -16.6400   22.0525 C.2     1  UNL1       -0.0250
     12 C          -8.6778  -15.7605   23.0791 C.2     1  UNL1       -0.0240
     13 C          -7.2423  -15.9804   23.4544 C.3     1  UNL1        0.0714
     14 C          -6.4568  -17.0799   22.8032 C.2     1  UNL1        0.0641
     15 N          -5.0364  -17.5326   22.9690 N.2     1  UNL1       -0.2390
     16 N          -2.2439  -20.2155   21.7264 N.1     1  UNL1       -0.1893
     17 C          -3.5262  -19.4537   21.8856 C.1     1  UNL1        0.1197
     18 C         -11.0316  -16.8126   23.0998 C.3     1  UNL1        0.0317
     19 C         -10.7469  -18.2122   23.5580 C.ar    1  UNL1       -0.0218
     20 C         -11.0533  -19.3729   22.6585 C.ar    1  UNL1       -0.0043
     21 C         -10.7686  -20.7725   23.1167 C.ar    1  UNL1       -0.0003
     22 C         -10.1775  -21.0115   24.4745 C.ar    1  UNL1       -0.0000
     23 C          -9.8711  -19.8510   25.3740 C.ar    1  UNL1       -0.0003
     24 C         -10.1558  -18.4512   24.9158 C.ar    1  UNL1       -0.0043
@<TRIPOS>BOND
     1    16    17    3
     2    17     7    1
     3     7     8    2
     4     8     9    1
     5     9    10    2
     6    10    11    1
     7    11     1    1
     8     1    18    1
     9    18    19    1
    10    19    20   ar
    11    20    21   ar
    12    21    22   ar
    13    22    23   ar
    14    23    24   ar
    15     1     2    1
    16     2     3    1
    17     3     4    1
    18     4     5    1
    19    11    12    2
    20    12    13    1
    21    13    14    1
    22    14    15    2
    23    15     7    1
    24    14     9    1
    25     5     1    1
    26    24    19   ar
    27     4     6    1
@<TRIPOS>MOLECULE
*****
 24 27 0 0 0
SMALL
GASTEIGER

@<TRIPOS>ATOM
      1 C           5.0124    1.8709   37.0212 C.3     1  UNL1        0.0385
      2 C           5.0645    2.8248   38.1776 C.3     1  UNL1        0.0228
      3 C           6.4275    2.7291   38.7965 C.3     1  UNL1        0.0689
      4 N           7.2178    1.7160   38.0226 N.3     1  UNL1       -0.2972
      5 C           6.3433    1.1856   36.9254 C.3     1  UNL1        0.0729
      6 H           7.5010    0.9539   38.6385 H       1  UNL1        0.1233
      7 C           2.8749   -0.1539   31.3566 C.2     1  UNL1        0.1488
      8 C           2.9444    1.1064   32.1671 C.2     1  UNL1        0.0308
      9 C           3.6251    0.7860   33.4648 C.2     1  UNL1        0.0158
     10 C           3.9704    1.6337   34.6531 C.2     1  UNL1       -0.0033
     11 C           4.6670    1.0232   35.8329 C.2     1  UNL1       -0.0250
     12 C           5.0182   -0.4351   35.8244 C.2     1  UNL1       -0.0240
     13 C           4.6728   -1.2829   34.6361 C.3     1  UNL1        0.0714
     14 C           3.9762   -0.6723   33.4563 C.2     1  UNL1        0.0641
     15 N           3.5126   -1.2531   32.1534 N.2     1  UNL1       -0.2390
     16 N           1.6717   -0.4277   28.6221 N.1     1  UNL1       -0.1893
     17 C           2.2733   -0.2908   29.9893 C.1     1  UNL1        0.1197
     18 C           3.6094    2.3789   36.8686 C.3     1  UNL1        0.0317
     19 C           2.5622    2.0034   37.8748 C.ar    1  UNL1       -0.0218
     20 C           1.5015    2.9923   38.2582 C.ar    1  UNL1       -0.0043
     21 C           0.4543    2.6168   39.2643 C.ar    1  UNL1       -0.0003
     22 C           0.4677    1.2522   39.8871 C.ar    1  UNL1       -0.0000
     23 C           1.5284    0.2632   39.5037 C.ar    1  UNL1       -0.0003
     24 C           2.5756    0.6388   38.4976 C.ar    1  UNL1       -0.0043
@<TRIPOS>BOND
     1    16    17    3
     2    17     7    1
     3     7     8    2
     4     8     9    1
     5     9    10    2
     6    10    11    1
     7    11     1    1
     8     1    18    1
     9    18    19    1
    10    19    20   ar
    11    20    21   ar
    12    21    22   ar
    13    22    23   ar
    14    23    24   ar
    15     1     2    1
    16     2     3    1
    17     3     4    1
    18     4     5    1
    19    11    12    2
    20    12    13    1
    21    13    14    1
    22    14    15    2
    23    15     7    1
    24    14     9    1
    25     5     1    1
    26    24    19   ar
    27     4     6    1
@<TRIPOS>MOLECULE
*****
 24 27 0 0 0
SMALL
GASTEIGER

@<TRIPOS>ATOM
      1 C           1.9547   -0.2691   19.5205 C.3     1  UNL1        0.0385
      2 C           1.2509    0.7248   18.6447 C.3     1  UNL1        0.0228
      3 C           0.1585    1.3617   19.4516 C.3     1  UNL1        0.0689
      4 N           0.1871    0.7615   20.8259 N.3     1  UNL1       -0.2972
      5 C           1.2972   -0.2465   20.8685 C.3     1  UNL1        0.0729
      6 H          -0.7032    0.3043   21.0226 H       1  UNL1        0.1233
      7 C           5.6330   -3.5584   23.5711 C.2     1  UNL1        0.1488
      8 C           4.8587   -2.2748   23.5164 C.2     1  UNL1        0.0308
      9 C           4.2164   -2.1782   22.1643 C.2     1  UNL1        0.0158
     10 C           3.3368   -1.1339   21.5434 C.2     1  UNL1       -0.0033
     11 C           2.8344   -1.3134   20.1415 C.2     1  UNL1       -0.0250
     12 C           3.2116   -2.5373   19.3606 C.2     1  UNL1       -0.0240
     13 C           4.0913   -3.5816   19.9815 C.3     1  UNL1        0.0714
     14 C           4.5937   -3.4020   21.3834 C.2     1  UNL1        0.0641
     15 N           5.4691   -4.2550   22.2529 N.2     1  UNL1       -0.2390
     16 N           7.2289   -4.5569   25.9070 N.1     1  UNL1       -0.1893
     17 C           6.4309   -4.0576   24.7391 C.1     1  UNL1        0.1197
     18 C           2.7960   -0.5101   18.3023 C.3     1  UNL1        0.0317
     19 C           3.9943    0.3520   18.0358 C.ar    1  UNL1       -0.0218
     20 C           4.1472    1.6641   18.7466 C.ar    1  UNL1       -0.0043
     21 C           5.3454    2.5262   18.4802 C.ar    1  UNL1       -0.0003
     22 C           6.3908    2.0763   17.5030 C.ar    1  UNL1       -0.0000
     23 C           6.2379    0.7642   16.7923 C.ar    1  UNL1       -0.0003
     24 C           5.0396   -0.0979   17.0587 C.ar    1  UNL1       -0.0043
@<TRIPOS>BOND
     1    16    17    3
     2    17     7    1
     3     7     8    2
     4     8     9    1
     5     9    10    2
     6    10    11    1
     7    11     1    1
     8     1    18    1
     9    18    19    1
    10    19    20   ar
    11    20    21   ar
    12    21    22   ar
    13    22    23   ar
    14    23    24   ar
    15     1     2    1
    16     2     3    1
    17     3     4    1
    18     4     5    1
    19    11    12    2
    20    12    13    1
    21    13    14    1
    22    14    15    2
    23    15     7    1
    24    14     9    1
    25     5     1    1
    26    24    19   ar
    27     4     6    1
@<TRIPOS>MOLECULE
*****
 24 27 0 0 0
SMALL
GASTEIGER

@<TRIPOS>ATOM
      1 C           3.5672   -1.6046   19.0560 C.3     1  UNL1        0.0385
      2 C           3.6110   -3.0448   19.4728 C.3     1  UNL1        0.0228
      3 C           4.6354   -3.7412   18.6269 C.3     1  UNL1        0.0689
      4 N           5.2247   -2.7314   17.6873 N.3     1  UNL1       -0.2972
      5 C           4.5645   -1.4109   17.9524 C.3     1  UNL1        0.0729
      6 H           5.0549   -3.0158   16.7226 H       1  UNL1        0.1233
      7 C           0.7269    4.0308   18.0905 C.2     1  UNL1        0.1488
      8 C           0.3716    2.5784   18.2105 C.2     1  UNL1        0.0308
      9 C           1.6377    1.8094   18.4464 C.2     1  UNL1        0.0158
     10 C           1.9016    0.3457   18.6410 C.2     1  UNL1       -0.0033
     11 C           3.3032   -0.1408   18.8613 C.2     1  UNL1       -0.0250
     12 C           4.4410    0.8363   18.8870 C.2     1  UNL1       -0.0240
     13 C           4.1772    2.3000   18.6924 C.3     1  UNL1        0.0714
     14 C           2.7755    2.7866   18.4721 C.2     1  UNL1        0.0641
     15 N           2.2126    4.1594   18.2521 N.2     1  UNL1       -0.2390
     16 N          -1.1964    6.2828   17.6113 N.1     1  UNL1       -0.1893
     17 C          -0.2348    5.1568   17.8509 C.1     1  UNL1        0.1197
     18 C           2.5147   -1.4923   20.1188 C.3     1  UNL1        0.0317
     19 C           2.9102   -1.2230   21.5404 C.ar    1  UNL1       -0.0218
     20 C           2.2894   -0.0802   22.2880 C.ar    1  UNL1       -0.0043
     21 C           2.6849    0.1892   23.7096 C.ar    1  UNL1       -0.0003
     22 C           3.7011   -0.6842   24.3837 C.ar    1  UNL1       -0.0000
     23 C           4.3219   -1.8270   23.6362 C.ar    1  UNL1       -0.0003
     24 C           3.9264   -2.0964   22.2145 C.ar    1  UNL1       -0.0043
@<TRIPOS>BOND
     1    16    17    3
     2    17     7    1
     3     7     8    2
     4     8     9    1
     5     9    10    2
     6    10    11    1
     7    11     1    1
     8     1    18    1
     9    18    19    1
    10    19    20   ar
    11    20    21   ar
    12    21    22   ar
    13    22    23   ar
    14    23    24   ar
    15     1     2    1
    16     2     3    1
    17     3     4    1
    18     4     5    1
    19    11    12    2
    20    12    13    1
    21    13    14    1
    22    14    15    2
    23    15     7    1
    24    14     9    1
    25     5     1    1
    26    24    19   ar
    27     4     6    1
@<TRIPOS>MOLECULE
*****
 24 27 0 0 0
SMALL
GASTEIGER

@<TRIPOS>ATOM
      1 C           3.6286   -1.7517   19.3942 C.3     1  UNL1        0.0385
      2 C           4.5228   -2.9348   19.6197 C.3     1  UNL1        0.0228
      3 C           5.2657   -3.2040   18.3448 C.3     1  UNL1        0.0689
      4 N           4.8307   -2.1875   17.3312 N.3     1  UNL1       -0.2972
      5 C           3.8189   -1.2899   17.9798 C.3     1  UNL1        0.0729
      6 H           4.4126   -2.6567   16.5278 H       1  UNL1        0.1233
      7 C           0.7997    3.9403   18.7987 C.2     1  UNL1        0.1488
      8 C           2.0837    3.2588   18.4290 C.2     1  UNL1        0.0308
      9 C           2.0213    1.8474   18.9330 C.2     1  UNL1        0.0158
     10 C           2.9980    0.7113   18.8596 C.2     1  UNL1       -0.0033
     11 C           2.6520   -0.6155   19.4675 C.2     1  UNL1       -0.0250
     12 C           1.3293   -0.8064   20.1488 C.2     1  UNL1       -0.0240
     13 C           0.3526    0.3297   20.2222 C.3     1  UNL1        0.0714
     14 C           0.6987    1.6566   19.6143 C.2     1  UNL1        0.0641
     15 N          -0.0563    2.9501   19.5313 N.2     1  UNL1       -0.2390
     16 N           0.0715    6.7844   18.1815 N.1     1  UNL1       -0.1893
     17 C           0.4356    5.3624   18.4901 C.1     1  UNL1        0.1197
     18 C           3.2341   -1.9760   20.8239 C.3     1  UNL1        0.0317
     19 C           4.2407   -1.7820   21.9189 C.ar    1  UNL1       -0.0218
     20 C           5.0535   -0.5225   21.9760 C.ar    1  UNL1       -0.0043
     21 C           6.0601   -0.3285   23.0710 C.ar    1  UNL1       -0.0003
     22 C           6.2540   -1.3940   24.1090 C.ar    1  UNL1       -0.0000
     23 C           5.4413   -2.6534   24.0519 C.ar    1  UNL1       -0.0003
     24 C           4.4346   -2.8475   22.9568 C.ar    1  UNL1       -0.0043
@<TRIPOS>BOND
     1    16    17    3
     2    17     7    1
     3     7     8    2
     4     8     9    1
     5     9    10    2
     6    10    11    1
     7    11     1    1
     8     1    18    1
     9    18    19    1
    10    19    20   ar
    11    20    21   ar
    12    21    22   ar
    13    22    23   ar
    14    23    24   ar
    15     1     2    1
    16     2     3    1
    17     3     4    1
    18     4     5    1
    19    11    12    2
    20    12    13    1
    21    13    14    1
    22    14    15    2
    23    15     7    1
    24    14     9    1
    25     5     1    1
    26    24    19   ar
    27     4     6    1
