@<TRIPOS>MOLECULE
*****
 28 30 0 0 0
SMALL
GASTEIGER

@<TRIPOS>ATOM
      1 C          -9.3664  -18.0917   23.9780 C.3     1  UNL1        0.0975
      2 C          -8.7172  -17.1870   24.9831 C.ar    1  UNL1       -0.0080
      3 C          -9.0927  -17.2837   26.4321 C.ar    1  UNL1       -0.0007
      4 C          -8.4435  -16.3790   27.4370 C.ar    1  UNL1        0.0293
      5 C          -7.4188  -15.3776   26.9930 C.ar    1  UNL1        0.1398
      6 F          -6.7696  -14.4728   27.9980 F       1  UNL1       -0.2042
      7 C          -7.0433  -15.2809   25.5440 C.ar    1  UNL1        0.0252
      8 C          -7.6925  -16.1856   24.5391 C.ar    1  UNL1       -0.0206
      9 C          -7.3170  -16.0889   23.0900 C.3     1  UNL1        0.0477
     10 C          -7.9662  -16.9937   22.0850 C.3     1  UNL1        0.0983
     11 N          -8.9909  -17.9951   22.5290 N.am    1  UNL1       -0.2760
     12 C          -9.6401  -18.8998   21.5240 C.2     1  UNL1        0.2420
     13 O         -10.6648  -19.9012   21.9680 O.2     1  UNL1       -0.2734
     14 C         -11.8381  -18.7043   24.4933 C.3     1  UNL1        0.0021
     15 C         -10.3911  -19.0931   24.4220 C.3     1  UNL1        0.0224
     16 C          -9.9688  -20.4834   24.7948 C.3     1  UNL1        0.0021
     17 C          -9.2646  -18.8031   20.0750 C.3     1  UNL1        0.1552
     18 N          -7.8645  -19.1204   19.6404 N.3     1  UNL1       -0.2879
     19 H          -7.3283  -18.2564   19.7206 H       1  UNL1        0.1238
     20 C          -7.0811  -20.1838   20.3515 C.3     1  UNL1        0.0961
     21 C          -5.8542  -19.8160   21.1321 C.3     1  UNL1        0.1027
     22 O          -6.6988  -20.3913   22.2302 O.3     1  UNL1       -0.3854
     23 C          -5.4358  -19.3684   19.7630 C.3     1  UNL1        0.0283
     24 C          -4.0838  -18.7528   19.5558 C.3     1  UNL1        0.0024
     25 C          -3.1501  -18.5847   20.7178 C.3     1  UNL1        0.0002
     26 C          -3.5685  -19.0323   22.0869 C.3     1  UNL1        0.0024
     27 C          -4.9206  -19.6479   22.2941 C.3     1  UNL1        0.0283
     28 H          -7.5496  -20.6812   21.8656 H       1  UNL1        0.2103
@<TRIPOS>BOND
     1    14    15    1
     2    15    16    1
     3    15     1    1
     4     1     2    1
     5     2     3   ar
     6     3     4   ar
     7     4     5   ar
     8     5     6    1
     9     5     7   ar
    10     7     8   ar
    11     8     9    1
    12     9    10    1
    13    10    11    1
    14    11    12   am
    15    12    13    2
    16    12    17    1
    17    17    18    1
    18    18    20    1
    19    20    21    1
    20    21    22    1
    21    21    23    1
    22    23    24    1
    23    24    25    1
    24    25    26    1
    25    26    27    1
    26    11     1    1
    27    27    21    1
    28     8     2   ar
    29    18    19    1
    30    22    28    1
@<TRIPOS>MOLECULE
*****
 28 30 0 0 0
SMALL
GASTEIGER

@<TRIPOS>ATOM
      1 C         -10.5316  -18.5937   21.8493 C.3     1  UNL1        0.0975
      2 C         -11.6032  -18.5458   22.8978 C.ar    1  UNL1       -0.0080
      3 C         -12.9686  -18.0303   22.5517 C.ar    1  UNL1       -0.0007
      4 C         -14.0402  -17.9824   23.6002 C.ar    1  UNL1        0.0293
      5 C         -13.7463  -18.4500   24.9948 C.ar    1  UNL1        0.1398
      6 F         -14.8179  -18.4021   26.0434 F       1  UNL1       -0.2042
      7 C         -12.3809  -18.9656   25.3409 C.ar    1  UNL1        0.0252
      8 C         -11.3093  -19.0134   24.2924 C.ar    1  UNL1       -0.0206
      9 C          -9.9438  -19.5290   24.6385 C.3     1  UNL1        0.0477
     10 C          -8.8723  -19.5769   23.5900 C.3     1  UNL1        0.0983
     11 N          -9.1662  -19.1092   22.1953 N.am    1  UNL1       -0.2760
     12 C          -8.0945  -19.1571   21.1468 C.2     1  UNL1        0.2420
     13 O          -8.3884  -18.6895   19.7522 O.2     1  UNL1       -0.2734
     14 C         -11.1090  -19.1254   19.3726 C.3     1  UNL1        0.0021
     15 C         -10.8254  -18.1260   20.4546 C.3     1  UNL1        0.0224
     16 C         -10.8357  -16.6589   20.1421 C.3     1  UNL1        0.0021
     17 C          -6.7291  -19.6727   21.4929 C.3     1  UNL1        0.1552
     18 N          -5.6906  -18.7379   22.0385 N.3     1  UNL1       -0.2879
     19 H          -5.9884  -18.4845   22.9806 H       1  UNL1        0.1238
     20 C          -4.2614  -19.1819   22.1409 C.3     1  UNL1        0.0961
     21 C          -3.1565  -18.2533   21.7325 C.3     1  UNL1        0.1027
     22 O          -3.3485  -17.8197   23.1556 O.3     1  UNL1       -0.3854
     23 C          -3.3483  -19.0095   20.4513 C.3     1  UNL1        0.0283
     24 C          -2.5018  -18.6864   19.2559 C.3     1  UNL1        0.0024
     25 C          -1.4635  -17.6072   19.3417 C.3     1  UNL1        0.0002
     26 C          -1.2717  -16.8511   20.6229 C.3     1  UNL1        0.0024
     27 C          -2.1182  -17.1741   21.8183 C.3     1  UNL1        0.0283
     28 H          -4.0533  -18.3477   23.5622 H       1  UNL1        0.2103
@<TRIPOS>BOND
     1    14    15    1
     2    15    16    1
     3    15     1    1
     4     1     2    1
     5     2     3   ar
     6     3     4   ar
     7     4     5   ar
     8     5     6    1
     9     5     7   ar
    10     7     8   ar
    11     8     9    1
    12     9    10    1
    13    10    11    1
    14    11    12   am
    15    12    13    2
    16    12    17    1
    17    17    18    1
    18    18    20    1
    19    20    21    1
    20    21    22    1
    21    21    23    1
    22    23    24    1
    23    24    25    1
    24    25    26    1
    25    26    27    1
    26    11     1    1
    27    27    21    1
    28     8     2   ar
    29    18    19    1
    30    22    28    1
@<TRIPOS>MOLECULE
*****
 28 30 0 0 0
SMALL
GASTEIGER

@<TRIPOS>ATOM
      1 C          -8.3860  -17.2135   23.8621 C.3     1  UNL1        0.0975
      2 C          -7.8918  -16.3796   25.0069 C.ar    1  UNL1       -0.0080
      3 C          -8.8366  -15.9655   26.0959 C.ar    1  UNL1       -0.0007
      4 C          -8.3423  -15.1317   27.2406 C.ar    1  UNL1        0.0293
      5 C          -6.9033  -14.7119   27.2963 C.ar    1  UNL1        0.1398
      6 F          -6.4091  -13.8781   28.4411 F       1  UNL1       -0.2042
      7 C          -5.9586  -15.1261   26.2073 C.ar    1  UNL1        0.0252
      8 C          -6.4528  -15.9599   25.0626 C.ar    1  UNL1       -0.0206
      9 C          -5.5080  -16.3741   23.9736 C.3     1  UNL1        0.0477
     10 C          -6.0023  -17.2079   22.8289 C.3     1  UNL1        0.0983
     11 N          -7.4413  -17.6276   22.7732 N.am    1  UNL1       -0.2760
     12 C          -7.9355  -18.4615   21.6284 C.2     1  UNL1        0.2420
     13 O          -9.3745  -18.8812   21.5726 O.2     1  UNL1       -0.2734
     14 C         -10.2586  -18.9136   24.4565 C.3     1  UNL1        0.0021
     15 C          -9.8250  -17.6332   23.8064 C.3     1  UNL1        0.0224
     16 C         -10.8305  -16.7725   23.1005 C.3     1  UNL1        0.0021
     17 C          -6.9907  -18.8756   20.5394 C.3     1  UNL1        0.1552
     18 N          -6.0864  -20.0554   20.7397 N.3     1  UNL1       -0.2879
     19 H          -6.5709  -20.8665   20.3552 H       1  UNL1        0.1238
     20 C          -4.7083  -20.0532   20.1472 C.3     1  UNL1        0.0961
     21 C          -3.6169  -19.2495   20.7897 C.3     1  UNL1        0.1027
     22 O          -4.1647  -19.9551   21.9948 O.3     1  UNL1       -0.3854
     23 C          -3.4482  -18.8231   19.3616 C.3     1  UNL1        0.0283
     24 C          -2.3783  -17.8379   18.9945 C.3     1  UNL1        0.0024
     25 C          -1.4771  -17.2792   20.0555 C.3     1  UNL1        0.0002
     26 C          -1.6458  -17.7057   21.4837 C.3     1  UNL1        0.0024
     27 C          -2.7157  -18.6908   21.8508 C.3     1  UNL1        0.0283
     28 H          -4.8996  -20.5289   21.7272 H       1  UNL1        0.2103
@<TRIPOS>BOND
     1    14    15    1
     2    15    16    1
     3    15     1    1
     4     1     2    1
     5     2     3   ar
     6     3     4   ar
     7     4     5   ar
     8     5     6    1
     9     5     7   ar
    10     7     8   ar
    11     8     9    1
    12     9    10    1
    13    10    11    1
    14    11    12   am
    15    12    13    2
    16    12    17    1
    17    17    18    1
    18    18    20    1
    19    20    21    1
    20    21    22    1
    21    21    23    1
    22    23    24    1
    23    24    25    1
    24    25    26    1
    25    26    27    1
    26    11     1    1
    27    27    21    1
    28     8     2   ar
    29    18    19    1
    30    22    28    1
@<TRIPOS>MOLECULE
*****
 28 30 0 0 0
SMALL
GASTEIGER

@<TRIPOS>ATOM
      1 C          -5.9636  -17.0409   23.4791 C.3     1  UNL1        0.0975
      2 C          -4.9624  -17.9270   22.7990 C.ar    1  UNL1       -0.0080
      3 C          -3.4951  -17.6536   22.9487 C.ar    1  UNL1       -0.0007
      4 C          -2.4940  -18.5397   22.2686 C.ar    1  UNL1        0.0293
      5 C          -2.9600  -19.6991   21.4389 C.ar    1  UNL1        0.1398
      6 F          -1.9588  -20.5852   20.7588 F       1  UNL1       -0.2042
      7 C          -4.4273  -19.9725   21.2892 C.ar    1  UNL1        0.0252
      8 C          -5.4284  -19.0864   21.9692 C.ar    1  UNL1       -0.0206
      9 C          -6.8958  -19.3598   21.8196 C.3     1  UNL1        0.0477
     10 C          -7.8969  -18.4737   22.4996 C.3     1  UNL1        0.0983
     11 N          -7.4308  -17.3143   23.3294 N.am    1  UNL1       -0.2760
     12 C          -8.4321  -16.4282   24.0094 C.2     1  UNL1        0.2420
     13 O          -7.9660  -15.2687   24.8392 O.2     1  UNL1       -0.2734
     14 C          -5.3722  -16.0262   25.7965 C.3     1  UNL1        0.0021
     15 C          -5.4975  -15.8815   24.3088 C.3     1  UNL1        0.0224
     16 C          -5.1568  -14.5772   23.6507 C.3     1  UNL1        0.0021
     17 C          -9.8993  -16.7016   23.8598 C.3     1  UNL1        0.1552
     18 N         -10.7670  -15.7430   23.0994 N.3     1  UNL1       -0.2879
     19 H         -10.1458  -15.0467   22.6874 H       1  UNL1        0.1238
     20 C         -11.6490  -16.2443   21.9944 C.3     1  UNL1        0.0961
     21 C         -11.1359  -17.2771   21.0352 C.3     1  UNL1        0.1027
     22 O         -10.8471  -16.0297   20.2538 O.3     1  UNL1       -0.3854
     23 C         -11.6029  -18.1657   22.1497 C.3     1  UNL1        0.0283
     24 C         -11.4566  -19.6541   22.0337 C.3     1  UNL1        0.0024
     25 C         -10.8432  -20.2537   20.8031 C.3     1  UNL1        0.0002
     26 C         -10.3761  -19.3650   19.6887 C.3     1  UNL1        0.0024
     27 C         -10.5225  -17.8767   19.8047 C.3     1  UNL1        0.0283
     28 H         -11.1335  -15.2554   20.7632 H       1  UNL1        0.2103
@<TRIPOS>BOND
     1    14    15    1
     2    15    16    1
     3    15     1    1
     4     1     2    1
     5     2     3   ar
     6     3     4   ar
     7     4     5   ar
     8     5     6    1
     9     5     7   ar
    10     7     8   ar
    11     8     9    1
    12     9    10    1
    13    10    11    1
    14    11    12   am
    15    12    13    2
    16    12    17    1
    17    17    18    1
    18    18    20    1
    19    20    21    1
    20    21    22    1
    21    21    23    1
    22    23    24    1
    23    24    25    1
    24    25    26    1
    25    26    27    1
    26    11     1    1
    27    27    21    1
    28     8     2   ar
    29    18    19    1
    30    22    28    1
@<TRIPOS>MOLECULE
*****
 28 30 0 0 0
SMALL
GASTEIGER

@<TRIPOS>ATOM
      1 C          -8.6312  -17.2877   22.6057 C.3     1  UNL1        0.0975
      2 C         -10.0961  -17.4431   22.3227 C.ar    1  UNL1       -0.0080
      3 C         -11.0785  -16.4652   22.8958 C.ar    1  UNL1       -0.0007
      4 C         -12.5433  -16.6206   22.6128 C.ar    1  UNL1        0.0293
      5 C         -13.0257  -17.7539   21.7567 C.ar    1  UNL1        0.1398
      6 F         -14.4906  -17.9093   21.4737 F       1  UNL1       -0.2042
      7 C         -12.0433  -18.7318   21.1836 C.ar    1  UNL1        0.0252
      8 C         -10.5785  -18.5764   21.4666 C.ar    1  UNL1       -0.0206
      9 C          -9.5959  -19.5543   20.8935 C.3     1  UNL1        0.0477
     10 C          -8.1311  -19.3989   21.1765 C.3     1  UNL1        0.0983
     11 N          -7.6488  -18.2656   22.0326 N.am    1  UNL1       -0.2760
     12 C          -6.1839  -18.1103   22.3156 C.2     1  UNL1        0.2420
     13 O          -5.7015  -16.9770   23.1718 O.2     1  UNL1       -0.2734
     14 C          -8.1494  -16.2900   24.9557 C.3     1  UNL1        0.0021
     15 C          -8.1488  -16.1544   23.4619 C.3     1  UNL1        0.0224
     16 C          -7.6658  -14.8855   22.8241 C.3     1  UNL1        0.0021
     17 C          -5.2014  -19.0881   21.7425 C.3     1  UNL1        0.1552
     18 N          -4.1979  -19.7542   22.6365 N.3     1  UNL1       -0.2879
     19 H          -4.0503  -20.6928   22.2655 H       1  UNL1        0.1238
     20 C          -2.8403  -19.1446   22.8251 C.3     1  UNL1        0.0961
     21 C          -1.9994  -18.8023   21.6311 C.3     1  UNL1        0.1027
     22 O          -2.0408  -20.2961   21.5008 O.3     1  UNL1       -0.3854
     23 C          -2.2501  -17.4275   22.1760 C.3     1  UNL1        0.0283
     24 C          -1.6742  -16.2290   21.4817 C.3     1  UNL1        0.0024
     25 C          -0.8477  -16.4054   20.2424 C.3     1  UNL1        0.0002
     26 C          -0.5971  -17.7802   19.6975 C.3     1  UNL1        0.0024
     27 C          -1.1729  -18.9787   20.3918 C.3     1  UNL1        0.0283
     28 H          -2.5659  -20.6695   22.2259 H       1  UNL1        0.2103
@<TRIPOS>BOND
     1    14    15    1
     2    15    16    1
     3    15     1    1
     4     1     2    1
     5     2     3   ar
     6     3     4   ar
     7     4     5   ar
     8     5     6    1
     9     5     7   ar
    10     7     8   ar
    11     8     9    1
    12     9    10    1
    13    10    11    1
    14    11    12   am
    15    12    13    2
    16    12    17    1
    17    17    18    1
    18    18    20    1
    19    20    21    1
    20    21    22    1
    21    21    23    1
    22    23    24    1
    23    24    25    1
    24    25    26    1
    25    26    27    1
    26    11     1    1
    27    27    21    1
    28     8     2   ar
    29    18    19    1
    30    22    28    1
@<TRIPOS>MOLECULE
*****
 28 30 0 0 0
SMALL
GASTEIGER

@<TRIPOS>ATOM
      1 C          -8.7213  -17.8861   21.6149 C.3     1  UNL1        0.0975
      2 C          -8.8359  -18.8785   20.4958 C.ar    1  UNL1       -0.0080
      3 C         -10.1504  -19.0770   19.8011 C.ar    1  UNL1       -0.0007
      4 C         -10.2650  -20.0694   18.6822 C.ar    1  UNL1        0.0293
      5 C          -9.0650  -20.8632   18.2580 C.ar    1  UNL1        0.1398
      6 F          -9.1797  -21.8556   17.1390 F       1  UNL1       -0.2042
      7 C          -7.7505  -20.6647   18.9527 C.ar    1  UNL1        0.0252
      8 C          -7.6360  -19.6724   20.0716 C.ar    1  UNL1       -0.0206
      9 C          -6.3214  -19.4739   20.7664 C.3     1  UNL1        0.0477
     10 C          -6.2069  -18.4815   21.8853 C.3     1  UNL1        0.0983
     11 N          -7.4068  -17.6877   22.3096 N.am    1  UNL1       -0.2760
     12 C          -7.2922  -16.6953   23.4286 C.2     1  UNL1        0.2420
     13 O          -8.4921  -15.9014   23.8528 O.2     1  UNL1       -0.2734
     14 C         -10.7861  -17.5827   23.1621 C.3     1  UNL1        0.0021
     15 C          -9.9212  -17.0923   22.0391 C.3     1  UNL1        0.0224
     16 C         -10.2561  -15.8079   21.3402 C.3     1  UNL1        0.0021
     17 C          -5.9777  -16.4968   24.1233 C.3     1  UNL1        0.1552
     18 N          -4.7965  -15.9764   23.3590 N.3     1  UNL1       -0.2879
     19 H          -4.5902  -15.0494   23.7311 H       1  UNL1        0.1238
     20 C          -3.5059  -16.7409   23.3610 C.3     1  UNL1        0.0961
     21 C          -2.7778  -16.9867   22.0729 C.3     1  UNL1        0.1027
     22 O          -2.8492  -15.4885   22.0499 O.3     1  UNL1       -0.3854
     23 C          -2.9593  -18.3994   22.5432 C.3     1  UNL1        0.0283
     24 C          -2.4374  -19.5377   21.7173 C.3     1  UNL1        0.0024
     25 C          -1.7341  -19.2632   20.4212 C.3     1  UNL1        0.0002
     26 C          -1.5526  -17.8504   19.9509 C.3     1  UNL1        0.0024
     27 C          -2.0745  -16.7122   20.7767 C.3     1  UNL1        0.0283
     28 H          -3.3077  -15.1745   22.8450 H       1  UNL1        0.2103
@<TRIPOS>BOND
     1    14    15    1
     2    15    16    1
     3    15     1    1
     4     1     2    1
     5     2     3   ar
     6     3     4   ar
     7     4     5   ar
     8     5     6    1
     9     5     7   ar
    10     7     8   ar
    11     8     9    1
    12     9    10    1
    13    10    11    1
    14    11    12   am
    15    12    13    2
    16    12    17    1
    17    17    18    1
    18    18    20    1
    19    20    21    1
    20    21    22    1
    21    21    23    1
    22    23    24    1
    23    24    25    1
    24    25    26    1
    25    26    27    1
    26    11     1    1
    27    27    21    1
    28     8     2   ar
    29    18    19    1
    30    22    28    1
@<TRIPOS>MOLECULE
*****
 28 30 0 0 0
SMALL
GASTEIGER

@<TRIPOS>ATOM
      1 C          -6.1154  -17.0873   23.6074 C.3     1  UNL1        0.0975
      2 C          -6.7294  -16.3772   24.7774 C.ar    1  UNL1       -0.0080
      3 C          -5.8681  -15.5633   25.6970 C.ar    1  UNL1       -0.0007
      4 C          -6.4822  -14.8532   26.8669 C.ar    1  UNL1        0.0293
      5 C          -7.9575  -14.9569   27.1171 C.ar    1  UNL1        0.1398
      6 F          -8.5715  -14.2468   28.2871 F       1  UNL1       -0.2042
      7 C          -8.8188  -15.7708   26.1975 C.ar    1  UNL1        0.0252
      8 C          -8.2048  -16.4809   25.0276 C.ar    1  UNL1       -0.0206
      9 C          -9.0661  -17.2948   24.1079 C.3     1  UNL1        0.0477
     10 C          -8.4520  -18.0049   22.9380 C.3     1  UNL1        0.0983
     11 N          -6.9767  -17.9012   22.6878 N.am    1  UNL1       -0.2760
     12 C          -6.3627  -18.6113   21.5178 C.2     1  UNL1        0.2420
     13 O          -4.8873  -18.5076   21.2676 O.2     1  UNL1       -0.2734
     14 C          -3.7260  -18.0906   23.7916 C.3     1  UNL1        0.0021
     15 C          -4.6401  -16.9836   23.3572 C.3     1  UNL1        0.0224
     16 C          -4.0788  -15.7727   22.6724 C.3     1  UNL1        0.0021
     17 C          -7.2240  -19.4252   20.5982 C.3     1  UNL1        0.1552
     18 N          -8.3424  -18.7704   19.8430 N.3     1  UNL1       -0.2879
     19 H          -8.0244  -18.6637   18.8798 H       1  UNL1        0.1238
     20 C          -9.6911  -19.4243   19.7839 C.3     1  UNL1        0.0961
     21 C         -10.8116  -18.9110   20.6389 C.3     1  UNL1        0.1027
     22 O         -10.6409  -20.2801   21.2275 O.3     1  UNL1       -0.3854
     23 C         -10.5931  -17.7202   19.7533 C.3     1  UNL1        0.0283
     24 C         -11.4359  -16.4916   19.9272 C.3     1  UNL1        0.0024
     25 C         -12.4971  -16.4538   20.9866 C.3     1  UNL1        0.0002
     26 C         -12.7156  -17.6446   21.8722 C.3     1  UNL1        0.0024
     27 C         -11.8728  -18.8732   21.6983 C.3     1  UNL1        0.0283
     28 H          -9.9288  -20.7458   20.7618 H       1  UNL1        0.2103
@<TRIPOS>BOND
     1    14    15    1
     2    15    16    1
     3    15     1    1
     4     1     2    1
     5     2     3   ar
     6     3     4   ar
     7     4     5   ar
     8     5     6    1
     9     5     7   ar
    10     7     8   ar
    11     8     9    1
    12     9    10    1
    13    10    11    1
    14    11    12   am
    15    12    13    2
    16    12    17    1
    17    17    18    1
    18    18    20    1
    19    20    21    1
    20    21    22    1
    21    21    23    1
    22    23    24    1
    23    24    25    1
    24    25    26    1
    25    26    27    1
    26    11     1    1
    27    27    21    1
    28     8     2   ar
    29    18    19    1
    30    22    28    1
@<TRIPOS>MOLECULE
*****
 28 30 0 0 0
SMALL
GASTEIGER

@<TRIPOS>ATOM
      1 C          -7.4336  -16.8365   23.6087 C.3     1  UNL1        0.0975
      2 C          -8.5214  -17.7439   23.1153 C.ar    1  UNL1       -0.0080
      3 C          -9.9553  -17.4356   23.4295 C.ar    1  UNL1       -0.0007
      4 C         -11.0430  -18.3431   22.9361 C.ar    1  UNL1        0.0293
      5 C         -10.6967  -19.5588   22.1286 C.ar    1  UNL1        0.1398
      6 F         -11.7845  -20.4663   21.6352 F       1  UNL1       -0.2042
      7 C          -9.2628  -19.8671   21.8144 C.ar    1  UNL1        0.0252
      8 C          -8.1751  -18.9597   22.3078 C.ar    1  UNL1       -0.0206
      9 C          -6.7411  -19.2679   21.9937 C.3     1  UNL1        0.0477
     10 C          -5.6534  -18.3605   22.4871 C.3     1  UNL1        0.0983
     11 N          -5.9997  -17.1448   23.2946 N.am    1  UNL1       -0.2760
     12 C          -4.9119  -16.2373   23.7880 C.2     1  UNL1        0.2420
     13 O          -5.2582  -15.0216   24.5955 O.2     1  UNL1       -0.2734
     14 C          -7.9464  -14.2928   23.7389 C.3     1  UNL1        0.0021
     15 C          -7.7799  -15.6207   24.4163 C.3     1  UNL1        0.0224
     16 C          -7.9597  -15.7330   25.9013 C.3     1  UNL1        0.0021
     17 C          -3.4780  -16.5456   23.4739 C.3     1  UNL1        0.1552
     18 N          -2.8547  -16.0146   22.2171 N.3     1  UNL1       -0.2879
     19 H          -2.3242  -15.1839   22.4798 H       1  UNL1        0.1238
     20 C          -1.9314  -16.8817   21.4135 C.3     1  UNL1        0.0961
     21 C          -2.2678  -18.3256   21.1851 C.3     1  UNL1        0.1027
     22 O          -1.3103  -18.4594   22.3320 O.3     1  UNL1       -0.3854
     23 C          -3.1084  -17.6903   20.1176 C.3     1  UNL1        0.0283
     24 C          -3.9529  -18.5453   19.2199 C.3     1  UNL1        0.0024
     25 C          -3.9567  -20.0356   19.3899 C.3     1  UNL1        0.0002
     26 C          -3.1161  -20.6709   20.4574 C.3     1  UNL1        0.0024
     27 C          -2.2716  -19.8159   21.3550 C.3     1  UNL1        0.0283
     28 H          -0.9986  -17.5800   22.5973 H       1  UNL1        0.2103
@<TRIPOS>BOND
     1    14    15    1
     2    15    16    1
     3    15     1    1
     4     1     2    1
     5     2     3   ar
     6     3     4   ar
     7     4     5   ar
     8     5     6    1
     9     5     7   ar
    10     7     8   ar
    11     8     9    1
    12     9    10    1
    13    10    11    1
    14    11    12   am
    15    12    13    2
    16    12    17    1
    17    17    18    1
    18    18    20    1
    19    20    21    1
    20    21    22    1
    21    21    23    1
    22    23    24    1
    23    24    25    1
    24    25    26    1
    25    26    27    1
    26    11     1    1
    27    27    21    1
    28     8     2   ar
    29    18    19    1
    30    22    28    1
@<TRIPOS>MOLECULE
*****
 28 30 0 0 0
SMALL
GASTEIGER

@<TRIPOS>ATOM
      1 C          -5.7861  -17.8774   22.4668 C.3     1  UNL1        0.0975
      2 C          -5.9141  -17.0004   23.6771 C.ar    1  UNL1       -0.0080
      3 C          -4.7270  -16.7687   24.5642 C.ar    1  UNL1       -0.0007
      4 C          -4.8550  -15.8918   25.7744 C.ar    1  UNL1        0.0293
      5 C          -6.1701  -15.2467   26.0975 C.ar    1  UNL1        0.1398
      6 F          -6.2980  -14.3697   27.3077 F       1  UNL1       -0.2042
      7 C          -7.3572  -15.4784   25.2103 C.ar    1  UNL1        0.0252
      8 C          -7.2292  -16.3553   24.0001 C.ar    1  UNL1       -0.0206
      9 C          -8.4163  -16.5871   23.1129 C.3     1  UNL1        0.0477
     10 C          -8.2883  -17.4640   21.9027 C.3     1  UNL1        0.0983
     11 N          -6.9732  -18.1091   21.5796 N.am    1  UNL1       -0.2760
     12 C          -6.8452  -18.9861   20.3693 C.2     1  UNL1        0.2420
     13 O          -5.5301  -19.6312   20.0463 O.2     1  UNL1       -0.2734
     14 C          -4.2007  -19.9327   22.5777 C.3     1  UNL1        0.0021
     15 C          -4.4710  -18.5225   22.1437 C.3     1  UNL1        0.0224
     16 C          -3.4262  -17.7574   21.3867 C.3     1  UNL1        0.0021
     17 C          -8.0323  -19.2178   19.4822 C.3     1  UNL1        0.1552
     18 N          -9.2546  -19.8956   20.0268 N.3     1  UNL1       -0.2879
     19 H          -9.1599  -19.9019   21.0424 H       1  UNL1        0.1238
     20 C         -10.6162  -19.3446   19.7223 C.3     1  UNL1        0.0961
     21 C         -11.3415  -18.5273   20.7497 C.3     1  UNL1        0.1027
     22 O         -11.5801  -17.6854   19.5314 O.3     1  UNL1       -0.3854
     23 C         -10.8511  -19.6530   21.6112 C.3     1  UNL1        0.0283
     24 C         -11.1689  -19.6691   23.0770 C.3     1  UNL1        0.0024
     25 C         -11.9771  -18.5593   23.6814 C.3     1  UNL1        0.0002
     26 C         -12.4675  -17.4336   22.8200 C.3     1  UNL1        0.0024
     27 C         -12.1498  -17.4175   21.3541 C.3     1  UNL1        0.0283
     28 H         -11.1568  -18.1004   18.7636 H       1  UNL1        0.2103
@<TRIPOS>BOND
     1    14    15    1
     2    15    16    1
     3    15     1    1
     4     1     2    1
     5     2     3   ar
     6     3     4   ar
     7     4     5   ar
     8     5     6    1
     9     5     7   ar
    10     7     8   ar
    11     8     9    1
    12     9    10    1
    13    10    11    1
    14    11    12   am
    15    12    13    2
    16    12    17    1
    17    17    18    1
    18    18    20    1
    19    20    21    1
    20    21    22    1
    21    21    23    1
    22    23    24    1
    23    24    25    1
    24    25    26    1
    25    26    27    1
    26    11     1    1
    27    27    21    1
    28     8     2   ar
    29    18    19    1
    30    22    28    1
