@<TRIPOS>MOLECULE
*****
 34 37 0 0 0
SMALL
GASTEIGER

@<TRIPOS>ATOM
      1 C         -14.6135   -6.2614   19.4231 C.3     1  UNL1        0.1329
      2 C         -15.3907   -7.5201   19.1749 C.3     1  UNL1        0.0785
      3 C         -16.7125   -7.7312   19.8519 C.3     1  UNL1        0.0179
      4 C         -17.4896   -8.9900   19.6036 C.3     1  UNL1        0.0029
      5 C         -16.9449  -10.0376   18.6785 C.3     1  UNL1        0.0171
      6 C         -15.6231   -9.8265   18.0016 C.3     1  UNL1        0.0686
      7 N         -14.8460   -8.5677   18.2498 N.3     1  UNL1       -0.2969
      8 H         -14.7136   -8.1198   17.3430 H       1  UNL1        0.1233
      9 C          -9.6623   -7.7963   18.4183 C.3     1  UNL1        0.0524
     10 C         -10.8553   -6.9434   18.7336 C.ar    1  UNL1        0.0640
     11 N         -12.2685   -7.4241   18.8812 N.ar    1  UNL1       -0.2456
     12 C         -13.1311   -6.2379   19.1955 C.ar    1  UNL1        0.1067
     13 S         -12.2510   -5.0242   19.2421 S.2     1  UNL1       -0.0714
     14 C         -10.8445   -5.4602   18.9567 C.ar    1  UNL1        0.0512
     15 C          -9.6388   -4.5693   18.9036 C.3     1  UNL1        0.1713
     16 O          -9.7860   -3.0938   19.1297 O.3     1  UNL1       -0.3767
     17 H         -10.3059   -2.7064   18.4083 H       1  UNL1        0.2109
     18 N         -15.3188   -5.0260   19.8990 N.am    1  UNL1       -0.2946
     19 C         -15.8092   -4.0132   18.9071 C.2     1  UNL1        0.2618
     20 O         -15.5944   -4.2358   17.4394 O.2     1  UNL1       -0.2686
     21 H         -15.4599   -4.8800   20.8623 H       1  UNL1        0.1501
     22 C         -16.5145   -2.7779   19.3830 C.ar    1  UNL1        0.1107
     23 C         -17.9766   -2.6636   19.6986 C.ar    1  UNL1        0.0231
     24 C         -18.2472   -1.2550   20.1375 C.ar    1  UNL1        0.0186
     25 C         -16.9526   -0.4988   20.0932 C.ar    1  UNL1        0.0567
     26 N         -15.8817   -1.4400   19.6269 N.ar    1  UNL1       -0.3496
     27 H         -14.9305   -1.2185   19.5027 H       1  UNL1        0.1661
     28 C         -16.7622    0.9452   20.4522 C.ar    1  UNL1        0.0156
     29 C         -17.4142    1.5046   21.6817 C.ar    1  UNL1        0.0023
     30 C         -17.2237    2.9485   22.0406 C.ar    1  UNL1        0.0114
     31 C         -16.3813    3.8330   21.1700 C.ar    1  UNL1        0.0577
     32 CL        -16.1909    5.2769   21.5290 Cl      1  UNL1       -0.0822
     33 C         -15.7293    3.2735   19.9404 C.ar    1  UNL1        0.0114
     34 C         -15.9197    1.8296   19.5815 C.ar    1  UNL1        0.0023
@<TRIPOS>BOND
     1     9    10    1
     2    10    11   ar
     3    11    12   ar
     4    12     1    1
     5     1    18    1
     6    18    19   am
     7    19    20    2
     8    19    22    1
     9    22    23   ar
    10    23    24   ar
    11    24    25   ar
    12    25    28    1
    13    28    29   ar
    14    29    30   ar
    15    30    31   ar
    16    31    32    1
    17    31    33   ar
    18    33    34   ar
    19    25    26   ar
    20     1     2    1
    21     2     3    1
    22     3     4    1
    23     4     5    1
    24     5     6    1
    25     6     7    1
    26    12    13   ar
    27    13    14   ar
    28    14    15    1
    29    15    16    1
    30    14    10   ar
    31    26    22   ar
    32     7     2    1
    33    34    28   ar
    34    18    21    1
    35    26    27    1
    36     7     8    1
    37    16    17    1
@<TRIPOS>MOLECULE
*****
 34 37 0 0 0
SMALL
GASTEIGER

@<TRIPOS>ATOM
      1 C         -15.3017   -6.3630   19.1572 C.3     1  UNL1        0.1329
      2 C         -16.2247   -7.5182   18.9051 C.3     1  UNL1        0.0785
      3 C         -16.3349   -8.6238   19.9128 C.3     1  UNL1        0.0179
      4 C         -17.2578   -9.7791   19.6607 C.3     1  UNL1        0.0029
      5 C         -18.0705   -9.8287   18.4008 C.3     1  UNL1        0.0171
      6 C         -17.9603   -8.7231   17.3931 C.3     1  UNL1        0.0686
      7 N         -17.0373   -7.5679   17.6453 N.3     1  UNL1       -0.2969
      8 H         -17.6107   -6.7244   17.6313 H       1  UNL1        0.1233
      9 C         -10.0894   -5.5205   19.1093 C.3     1  UNL1        0.0524
     10 C         -11.4427   -6.1044   18.8309 C.ar    1  UNL1        0.0640
     11 N         -12.7451   -5.6203   19.3961 N.ar    1  UNL1       -0.2456
     12 C         -13.8386   -6.4916   18.8529 C.ar    1  UNL1        0.1067
     13 S         -13.2120   -7.5143   17.9520 S.2     1  UNL1       -0.0714
     14 C         -11.7313   -7.2750   17.9384 C.ar    1  UNL1        0.0512
     15 C         -10.7172   -8.0671   17.1676 C.3     1  UNL1        0.1713
     16 O          -9.6994   -8.8936   17.8964 O.3     1  UNL1       -0.3767
     17 H          -9.1054   -8.3101   18.3941 H       1  UNL1        0.2109
     18 N         -15.8419   -5.0790   19.7136 N.am    1  UNL1       -0.2946
     19 C         -16.4989   -4.0845   18.8029 C.2     1  UNL1        0.2618
     20 O         -16.6157   -4.3740   17.3357 O.2     1  UNL1       -0.2686
     21 H         -15.7653   -4.8890   20.6766 H       1  UNL1        0.1501
     22 C         -17.0391   -2.8006   19.3593 C.ar    1  UNL1        0.1107
     23 C         -18.4408   -2.5689   19.8407 C.ar    1  UNL1        0.0231
     24 C         -18.5405   -1.1480   20.3109 C.ar    1  UNL1        0.0186
     25 C         -17.2004   -0.5015   20.1203 C.ar    1  UNL1        0.0567
     26 N         -16.2726   -1.5229   19.5321 N.ar    1  UNL1       -0.3496
     27 H         -15.3265   -1.3798   19.3003 H       1  UNL1        0.1661
     28 C         -16.8498    0.9172   20.4584 C.ar    1  UNL1        0.0156
     29 C         -15.9426    1.7008   19.5568 C.ar    1  UNL1        0.0023
     30 C         -15.5920    3.1195   19.8949 C.ar    1  UNL1        0.0114
     31 C         -16.1486    3.7546   21.1346 C.ar    1  UNL1        0.0577
     32 CL        -15.7979    5.1733   21.4727 Cl      1  UNL1       -0.0822
     33 C         -17.0557    2.9710   22.0362 C.ar    1  UNL1        0.0114
     34 C         -17.4064    1.5523   21.6981 C.ar    1  UNL1        0.0023
@<TRIPOS>BOND
     1     9    10    1
     2    10    11   ar
     3    11    12   ar
     4    12     1    1
     5     1    18    1
     6    18    19   am
     7    19    20    2
     8    19    22    1
     9    22    23   ar
    10    23    24   ar
    11    24    25   ar
    12    25    28    1
    13    28    29   ar
    14    29    30   ar
    15    30    31   ar
    16    31    32    1
    17    31    33   ar
    18    33    34   ar
    19    25    26   ar
    20     1     2    1
    21     2     3    1
    22     3     4    1
    23     4     5    1
    24     5     6    1
    25     6     7    1
    26    12    13   ar
    27    13    14   ar
    28    14    15    1
    29    15    16    1
    30    14    10   ar
    31    26    22   ar
    32     7     2    1
    33    34    28   ar
    34    18    21    1
    35    26    27    1
    36     7     8    1
    37    16    17    1
@<TRIPOS>MOLECULE
*****
 34 37 0 0 0
SMALL
GASTEIGER

@<TRIPOS>ATOM
      1 C           4.8213   -1.2034   32.7560 C.3     1  UNL1        0.1329
      2 C           5.5017   -0.7792   34.0238 C.3     1  UNL1        0.0785
      3 C           6.9823   -0.5394   34.0362 C.3     1  UNL1        0.0179
      4 C           7.6627   -0.1152   35.3039 C.3     1  UNL1        0.0029
      5 C           6.8623    0.0691   36.5592 C.3     1  UNL1        0.0171
      6 C           5.3817   -0.1707   36.5467 C.3     1  UNL1        0.0686
      7 N           4.7014   -0.5949   35.2790 N.3     1  UNL1       -0.2969
      8 H           3.9924    0.1095   35.0753 H       1  UNL1        0.1233
      9 C           1.1810    2.5721   32.1442 C.3     1  UNL1        0.0524
     10 C           2.0337    1.3609   31.9080 C.ar    1  UNL1        0.0640
     11 N           3.1191    0.8568   32.8123 N.ar    1  UNL1       -0.2456
     12 C           3.7070   -0.3745   32.1892 C.ar    1  UNL1        0.1067
     13 S           2.9850   -0.6313   30.8997 S.2     1  UNL1       -0.0714
     14 C           1.9509    0.4412   30.7259 C.ar    1  UNL1        0.0512
     15 C           1.0007    0.5712   29.5725 C.3     1  UNL1        0.1713
     16 O          -0.0432   -0.4802   29.3385 O.3     1  UNL1       -0.3767
     17 H           0.3876   -1.3162   29.1006 H       1  UNL1        0.2109
     18 N           5.2552   -2.4566   32.0550 N.am    1  UNL1       -0.2946
     19 C           6.2328   -2.3808   30.9199 C.2     1  UNL1        0.2618
     20 O           6.7765   -1.0520   30.4857 O.2     1  UNL1       -0.2686
     21 H           4.8984   -3.3287   32.3400 H       1  UNL1        0.1501
     22 C           6.6667   -3.6339   30.2189 C.ar    1  UNL1        0.1107
     23 C           6.9329   -4.9600   30.8676 C.ar    1  UNL1        0.0231
     24 C           7.3414   -5.9267   29.7957 C.ar    1  UNL1        0.0186
     25 C           7.3276   -5.1981   28.4847 C.ar    1  UNL1        0.0567
     26 N           6.9106   -3.7811   28.7462 N.ar    1  UNL1       -0.3496
     27 H           6.8140   -3.0721   28.0700 H       1  UNL1        0.1661
     28 C           7.6705   -5.7836   27.1469 C.ar    1  UNL1        0.0156
     29 C           8.1215   -7.2106   27.0461 C.ar    1  UNL1        0.0023
     30 C           8.4644   -7.7961   25.7084 C.ar    1  UNL1        0.0114
     31 C           8.3564   -6.9545   24.4714 C.ar    1  UNL1        0.0577
     32 CL          8.6994   -7.5401   23.1336 Cl      1  UNL1       -0.0822
     33 C           7.9054   -5.5275   24.5722 C.ar    1  UNL1        0.0114
     34 C           7.5625   -4.9420   25.9099 C.ar    1  UNL1        0.0023
@<TRIPOS>BOND
     1     9    10    1
     2    10    11   ar
     3    11    12   ar
     4    12     1    1
     5     1    18    1
     6    18    19   am
     7    19    20    2
     8    19    22    1
     9    22    23   ar
    10    23    24   ar
    11    24    25   ar
    12    25    28    1
    13    28    29   ar
    14    29    30   ar
    15    30    31   ar
    16    31    32    1
    17    31    33   ar
    18    33    34   ar
    19    25    26   ar
    20     1     2    1
    21     2     3    1
    22     3     4    1
    23     4     5    1
    24     5     6    1
    25     6     7    1
    26    12    13   ar
    27    13    14   ar
    28    14    15    1
    29    15    16    1
    30    14    10   ar
    31    26    22   ar
    32     7     2    1
    33    34    28   ar
    34    18    21    1
    35    26    27    1
    36     7     8    1
    37    16    17    1
@<TRIPOS>MOLECULE
*****
 34 37 0 0 0
SMALL
GASTEIGER

@<TRIPOS>ATOM
      1 C          -3.4695    3.6241   20.4483 C.3     1  UNL1        0.1329
      2 C          -3.8547    4.4578   19.2624 C.3     1  UNL1        0.0785
      3 C          -4.6194    3.8412   18.1288 C.3     1  UNL1        0.0179
      4 C          -5.0047    4.6749   16.9428 C.3     1  UNL1        0.0029
      5 C          -4.6252    6.1253   16.8905 C.3     1  UNL1        0.0171
      6 C          -3.8606    6.7418   18.0241 C.3     1  UNL1        0.0686
      7 N          -3.4753    5.9081   19.2101 N.3     1  UNL1       -0.2969
      8 H          -3.8916    6.3511   20.0291 H       1  UNL1        0.1233
      9 C          -4.5552    3.8407   25.6112 C.3     1  UNL1        0.0524
     10 C          -4.7044    3.8802   24.1191 C.ar    1  UNL1        0.0640
     11 N          -3.6131    3.6439   23.1174 N.ar    1  UNL1       -0.2456
     12 C          -4.2053    3.7806   21.7460 C.ar    1  UNL1        0.1067
     13 S          -5.6625    4.1014   21.9002 S.2     1  UNL1       -0.0714
     14 C          -5.9709    4.1629   23.3669 C.ar    1  UNL1        0.0512
     15 C          -7.3107    4.4558   23.9746 C.3     1  UNL1        0.1713
     16 O          -8.5406    3.7867   23.4366 O.3     1  UNL1       -0.3767
     17 H          -8.7037    4.0906   22.5300 H       1  UNL1        0.2109
     18 N          -2.3485    2.6338   20.3366 N.am    1  UNL1       -0.2946
     19 C          -1.0018    3.0774   19.8468 C.2     1  UNL1        0.2618
     20 O          -0.7763    4.5114   19.4689 O.2     1  UNL1       -0.2686
     21 H          -2.4965    1.6926   20.5846 H       1  UNL1        0.1501
     22 C           0.1192    2.0871   19.7351 C.ar    1  UNL1        0.1107
     23 C           0.8725    1.7456   18.4837 C.ar    1  UNL1        0.0231
     24 C           1.9027    0.7118   18.8303 C.ar    1  UNL1        0.0186
     25 C           1.7860    0.4144   20.2958 C.ar    1  UNL1        0.0567
     26 N           0.6838    1.2644   20.8550 N.ar    1  UNL1       -0.3496
     27 H           0.3836    1.2795   21.7925 H       1  UNL1        0.1661
     28 C           2.6245   -0.5616   21.0669 C.ar    1  UNL1        0.0156
     29 C           3.2640   -1.7213   20.3626 C.ar    1  UNL1        0.0023
     30 C           4.1023   -2.6973   21.1337 C.ar    1  UNL1        0.0114
     31 C           4.3012   -2.5136   22.6091 C.ar    1  UNL1        0.0577
     32 CL          5.1396   -3.4896   23.3802 Cl      1  UNL1       -0.0822
     33 C           3.6616   -1.3539   23.3134 C.ar    1  UNL1        0.0114
     34 C           2.8233   -0.3779   22.5423 C.ar    1  UNL1        0.0023
@<TRIPOS>BOND
     1     9    10    1
     2    10    11   ar
     3    11    12   ar
     4    12     1    1
     5     1    18    1
     6    18    19   am
     7    19    20    2
     8    19    22    1
     9    22    23   ar
    10    23    24   ar
    11    24    25   ar
    12    25    28    1
    13    28    29   ar
    14    29    30   ar
    15    30    31   ar
    16    31    32    1
    17    31    33   ar
    18    33    34   ar
    19    25    26   ar
    20     1     2    1
    21     2     3    1
    22     3     4    1
    23     4     5    1
    24     5     6    1
    25     6     7    1
    26    12    13   ar
    27    13    14   ar
    28    14    15    1
    29    15    16    1
    30    14    10   ar
    31    26    22   ar
    32     7     2    1
    33    34    28   ar
    34    18    21    1
    35    26    27    1
    36     7     8    1
    37    16    17    1
@<TRIPOS>MOLECULE
*****
 34 37 0 0 0
SMALL
GASTEIGER

@<TRIPOS>ATOM
      1 C          -3.8147    3.7492   20.8823 C.3     1  UNL1        0.1329
      2 C          -4.0302    4.4236   19.5598 C.3     1  UNL1        0.0785
      3 C          -4.8223    3.7358   18.4876 C.3     1  UNL1        0.0179
      4 C          -5.0377    4.4102   17.1652 C.3     1  UNL1        0.0029
      5 C          -4.4611    5.7722   16.9150 C.3     1  UNL1        0.0171
      6 C          -3.6690    6.4598   17.9872 C.3     1  UNL1        0.0686
      7 N          -3.4536    5.7855   19.3097 N.3     1  UNL1       -0.2969
      8 H          -3.8403    6.4044   20.0223 H       1  UNL1        0.1233
      9 C          -5.5488    4.9055   25.7338 C.3     1  UNL1        0.0524
     10 C          -5.5170    4.5893   24.2678 C.ar    1  UNL1        0.0640
     11 N          -4.2877    4.3308   23.4481 N.ar    1  UNL1       -0.2456
     12 C          -4.7200    4.0578   22.0379 C.ar    1  UNL1        0.1067
     13 S          -6.2164    4.1476   21.9861 S.2     1  UNL1       -0.0714
     14 C          -6.7090    4.4760   23.3643 C.ar    1  UNL1        0.0512
     15 C          -8.1420    4.6591   23.7681 C.3     1  UNL1        0.1713
     16 O          -9.0993    3.5078   23.6790 O.3     1  UNL1       -0.3767
     17 H          -9.2229    3.2614   22.7490 H       1  UNL1        0.2109
     18 N          -2.6941    2.7663   21.0492 N.am    1  UNL1       -0.2946
     19 C          -1.2910    3.2560   21.2533 C.2     1  UNL1        0.2618
     20 O          -1.0086    4.7287   21.2904 O.2     1  UNL1       -0.2686
     21 H          -2.8794    1.7997   21.0248 H       1  UNL1        0.1501
     22 C          -0.1704    2.2731   21.4202 C.ar    1  UNL1        0.1107
     23 C           0.4916    1.9019   22.7141 C.ar    1  UNL1        0.0231
     24 C           1.5562    0.8881   22.4160 C.ar    1  UNL1        0.0186
     25 C           1.5523    0.6327   20.9380 C.ar    1  UNL1        0.0567
     26 N           0.4852    1.4886   20.3225 N.ar    1  UNL1       -0.3496
     27 H           0.2554    1.5285   19.3660 H       1  UNL1        0.1661
     28 C           2.4566   -0.3127   20.2042 C.ar    1  UNL1        0.0156
     29 C           2.9622   -1.5490   20.8868 C.ar    1  UNL1        0.0023
     30 C           3.8665   -2.4943   20.1530 C.ar    1  UNL1        0.0114
     31 C           4.2652   -2.2034   18.7365 C.ar    1  UNL1        0.0577
     32 CL          5.1696   -3.1488   18.0027 Cl      1  UNL1       -0.0822
     33 C           3.7596   -0.9671   18.0539 C.ar    1  UNL1        0.0114
     34 C           2.8553   -0.0218   18.7877 C.ar    1  UNL1        0.0023
@<TRIPOS>BOND
     1     9    10    1
     2    10    11   ar
     3    11    12   ar
     4    12     1    1
     5     1    18    1
     6    18    19   am
     7    19    20    2
     8    19    22    1
     9    22    23   ar
    10    23    24   ar
    11    24    25   ar
    12    25    28    1
    13    28    29   ar
    14    29    30   ar
    15    30    31   ar
    16    31    32    1
    17    31    33   ar
    18    33    34   ar
    19    25    26   ar
    20     1     2    1
    21     2     3    1
    22     3     4    1
    23     4     5    1
    24     5     6    1
    25     6     7    1
    26    12    13   ar
    27    13    14   ar
    28    14    15    1
    29    15    16    1
    30    14    10   ar
    31    26    22   ar
    32     7     2    1
    33    34    28   ar
    34    18    21    1
    35    26    27    1
    36     7     8    1
    37    16    17    1
@<TRIPOS>MOLECULE
*****
 34 37 0 0 0
SMALL
GASTEIGER

@<TRIPOS>ATOM
      1 C           3.6909    0.6638   19.1912 C.3     1  UNL1        0.1329
      2 C           4.7027    1.2100   18.2279 C.3     1  UNL1        0.0785
      3 C           4.8730    2.6930   18.0800 C.3     1  UNL1        0.0179
      4 C           5.8848    3.2393   17.1167 C.3     1  UNL1        0.0029
      5 C           6.7262    2.3025   16.3014 C.3     1  UNL1        0.0171
      6 C           6.5559    0.8197   16.4494 C.3     1  UNL1        0.0686
      7 N           5.5441    0.2734   17.4127 N.3     1  UNL1       -0.2969
      8 H           6.0532   -0.3149   18.0723 H       1  UNL1        0.1233
      9 C           3.5787   -4.6132   19.3387 C.3     1  UNL1        0.0524
     10 C           3.7503   -3.1781   19.7403 C.ar    1  UNL1        0.0640
     11 N           3.5074   -1.9831   18.8668 N.ar    1  UNL1       -0.2456
     12 C           3.8018   -0.7526   19.6724 C.ar    1  UNL1        0.1067
     13 S           4.2267   -1.1871   21.0438 S.2     1  UNL1       -0.0714
     14 C           4.1948   -2.6862   21.0858 C.ar    1  UNL1        0.0512
     15 C           4.5458   -3.5429   22.2660 C.3     1  UNL1        0.1713
     16 O           5.8313   -4.3157   22.2758 O.3     1  UNL1       -0.3767
     17 H           5.8054   -4.9952   21.5840 H       1  UNL1        0.2109
     18 N           2.5682    1.5339   19.6733 N.am    1  UNL1       -0.2946
     19 C           1.2172    1.4411   19.0281 C.2     1  UNL1        0.2618
     20 O           0.9889    0.4782   17.9009 O.2     1  UNL1       -0.2686
     21 H           2.7180    2.1659   20.4131 H       1  UNL1        0.1501
     22 C           0.0945    2.3112   19.5102 C.ar    1  UNL1        0.1107
     23 C          -0.4453    3.5228   18.8097 C.ar    1  UNL1        0.0231
     24 C          -1.5590    4.0829   19.6440 C.ar    1  UNL1        0.0186
     25 C          -1.7075    3.2175   20.8601 C.ar    1  UNL1        0.0567
     26 N          -0.6856    2.1225   20.7774 N.ar    1  UNL1       -0.3496
     27 H          -0.5505    1.4059   21.4388 H       1  UNL1        0.1661
     28 C          -2.7031    3.4127   21.9650 C.ar    1  UNL1        0.0156
     29 C          -2.2334    3.7789   23.3417 C.ar    1  UNL1        0.0023
     30 C          -3.2290    3.9741   24.4465 C.ar    1  UNL1        0.0114
     31 C          -4.6942    3.8032   24.1746 C.ar    1  UNL1        0.0577
     32 CL         -5.6898    3.9985   25.2795 Cl      1  UNL1       -0.0822
     33 C          -5.1639    3.4371   22.7979 C.ar    1  UNL1        0.0114
     34 C          -4.1683    3.2419   21.6931 C.ar    1  UNL1        0.0023
@<TRIPOS>BOND
     1     9    10    1
     2    10    11   ar
     3    11    12   ar
     4    12     1    1
     5     1    18    1
     6    18    19   am
     7    19    20    2
     8    19    22    1
     9    22    23   ar
    10    23    24   ar
    11    24    25   ar
    12    25    28    1
    13    28    29   ar
    14    29    30   ar
    15    30    31   ar
    16    31    32    1
    17    31    33   ar
    18    33    34   ar
    19    25    26   ar
    20     1     2    1
    21     2     3    1
    22     3     4    1
    23     4     5    1
    24     5     6    1
    25     6     7    1
    26    12    13   ar
    27    13    14   ar
    28    14    15    1
    29    15    16    1
    30    14    10   ar
    31    26    22   ar
    32     7     2    1
    33    34    28   ar
    34    18    21    1
    35    26    27    1
    36     7     8    1
    37    16    17    1
@<TRIPOS>MOLECULE
*****
 34 37 0 0 0
SMALL
GASTEIGER

@<TRIPOS>ATOM
      1 C          -3.3193    3.5782   20.9875 C.3     1  UNL1        0.1329
      2 C          -4.2550    3.9846   19.8879 C.3     1  UNL1        0.0785
      3 C          -5.5996    3.3307   19.7675 C.3     1  UNL1        0.0179
      4 C          -6.5354    3.7371   18.6678 C.3     1  UNL1        0.0029
      5 C          -6.1264    4.7974   17.6886 C.3     1  UNL1        0.0171
      6 C          -4.7819    5.4512   17.8090 C.3     1  UNL1        0.0686
      7 N          -3.8461    5.0448   18.9087 N.3     1  UNL1       -0.2969
      8 H          -3.6465    5.8853   19.4510 H       1  UNL1        0.1233
      9 C          -2.7753    6.6809   25.2253 C.3     1  UNL1        0.0524
     10 C          -3.2305    5.5834   24.3097 C.ar    1  UNL1        0.0640
     11 N          -2.7692    5.3635   22.8995 N.ar    1  UNL1       -0.2456
     12 C          -3.4805    4.1573   22.3618 C.ar    1  UNL1        0.1067
     13 S          -4.3816    3.6318   23.4398 S.2     1  UNL1       -0.0714
     14 C          -4.2271    4.5131   24.6437 C.ar    1  UNL1        0.0512
     15 C          -4.9433    4.3525   25.9518 C.3     1  UNL1        0.1713
     16 O          -4.2644    3.6648   27.0991 O.3     1  UNL1       -0.3767
     17 H          -4.1204    2.7316   26.8772 H       1  UNL1        0.2109
     18 N          -2.2222    2.5928   20.7129 N.am    1  UNL1       -0.2946
     19 C          -0.9785    3.0345   20.0001 C.2     1  UNL1        0.2618
     20 O          -0.8318    4.4615   19.5619 O.2     1  UNL1       -0.2686
     21 H          -2.3185    1.6562   21.0005 H       1  UNL1        0.1501
     22 C           0.1186    2.0491   19.7255 C.ar    1  UNL1        0.1107
     23 C           0.8050    1.8381   18.4085 C.ar    1  UNL1        0.0231
     24 C           1.8325    0.7603   18.5887 C.ar    1  UNL1        0.0186
     25 C           1.7811    0.3051   20.0170 C.ar    1  UNL1        0.0567
     26 N           0.7219    1.1016   20.7196 N.ar    1  UNL1       -0.3496
     27 H           0.4674    1.0173   21.6668 H       1  UNL1        0.1661
     28 C           2.6385   -0.7598   20.6344 C.ar    1  UNL1        0.0156
     29 C           2.9714   -0.7009   22.0958 C.ar    1  UNL1        0.0023
     30 C           3.8288   -1.7657   22.7131 C.ar    1  UNL1        0.0114
     31 C           4.3532   -2.8893   21.8691 C.ar    1  UNL1        0.0577
     32 CL          5.2106   -3.9541   22.4865 Cl      1  UNL1       -0.0822
     33 C           4.0203   -2.9482   20.4077 C.ar    1  UNL1        0.0114
     34 C           3.1630   -1.8834   19.7904 C.ar    1  UNL1        0.0023
@<TRIPOS>BOND
     1     9    10    1
     2    10    11   ar
     3    11    12   ar
     4    12     1    1
     5     1    18    1
     6    18    19   am
     7    19    20    2
     8    19    22    1
     9    22    23   ar
    10    23    24   ar
    11    24    25   ar
    12    25    28    1
    13    28    29   ar
    14    29    30   ar
    15    30    31   ar
    16    31    32    1
    17    31    33   ar
    18    33    34   ar
    19    25    26   ar
    20     1     2    1
    21     2     3    1
    22     3     4    1
    23     4     5    1
    24     5     6    1
    25     6     7    1
    26    12    13   ar
    27    13    14   ar
    28    14    15    1
    29    15    16    1
    30    14    10   ar
    31    26    22   ar
    32     7     2    1
    33    34    28   ar
    34    18    21    1
    35    26    27    1
    36     7     8    1
    37    16    17    1
@<TRIPOS>MOLECULE
*****
 34 37 0 0 0
SMALL
GASTEIGER

@<TRIPOS>ATOM
      1 C           3.0414   -0.9187   21.4866 C.3     1  UNL1        0.1329
      2 C           3.8045   -1.5511   20.3607 C.3     1  UNL1        0.0785
      3 C           3.5755   -2.9930   20.0163 C.3     1  UNL1        0.0179
      4 C           4.3385   -3.6255   18.8904 C.3     1  UNL1        0.0029
      5 C           5.3306   -2.8160   18.1089 C.3     1  UNL1        0.0171
      6 C           5.5596   -1.3742   18.4532 C.3     1  UNL1        0.0686
      7 N           4.7965   -0.7417   19.5792 N.3     1  UNL1       -0.2969
      8 H           4.2856    0.0468   19.1822 H       1  UNL1        0.1233
      9 C           5.8393   -2.4319   25.7011 C.3     1  UNL1        0.0524
     10 C           4.8081   -1.7697   24.8362 C.ar    1  UNL1        0.0640
     11 N           4.6886   -1.9039   23.3470 N.ar    1  UNL1       -0.2456
     12 C           3.5221   -1.0742   22.8989 C.ar    1  UNL1        0.1067
     13 S           2.9206   -0.4272   24.1113 S.2     1  UNL1       -0.0714
     14 C           3.7154   -0.8571   25.3086 C.ar    1  UNL1        0.0512
     15 C           3.4621   -0.4464   26.7288 C.3     1  UNL1        0.1713
     16 O           2.8070   -1.4029   27.6806 O.3     1  UNL1       -0.3767
     17 H           1.8953   -1.5699   27.3948 H       1  UNL1        0.2109
     18 N           1.7976   -0.1307   21.2002 N.am    1  UNL1       -0.2946
     19 C           1.9016    1.2665   20.6644 C.2     1  UNL1        0.2618
     20 O           3.2494    1.8757   20.4150 O.2     1  UNL1       -0.2686
     21 H           0.9130   -0.5306   21.3639 H       1  UNL1        0.1501
     22 C           0.6578    2.0544   20.3780 C.ar    1  UNL1        0.1107
     23 C           0.4347    2.9513   19.1964 C.ar    1  UNL1        0.0231
     24 C          -0.9423    3.5350   19.3110 C.ar    1  UNL1        0.0186
     25 C          -1.5702    2.9990   20.5634 C.ar    1  UNL1        0.0567
     26 N          -0.5813    2.0840   21.2228 N.ar    1  UNL1       -0.3496
     27 H          -0.7210    1.5896   22.0626 H       1  UNL1        0.1661
     28 C          -2.9456    3.3214   21.0678 C.ar    1  UNL1        0.0156
     29 C          -4.0951    3.4087   20.1081 C.ar    1  UNL1        0.0023
     30 C          -5.4704    3.7311   20.6126 C.ar    1  UNL1        0.0114
     31 C          -5.6963    3.9662   22.0767 C.ar    1  UNL1        0.0577
     32 CL         -7.0717    4.2886   22.5812 Cl      1  UNL1       -0.0822
     33 C          -4.5468    3.8790   23.0364 C.ar    1  UNL1        0.0114
     34 C          -3.1715    3.5566   22.5319 C.ar    1  UNL1        0.0023
@<TRIPOS>BOND
     1     9    10    1
     2    10    11   ar
     3    11    12   ar
     4    12     1    1
     5     1    18    1
     6    18    19   am
     7    19    20    2
     8    19    22    1
     9    22    23   ar
    10    23    24   ar
    11    24    25   ar
    12    25    28    1
    13    28    29   ar
    14    29    30   ar
    15    30    31   ar
    16    31    32    1
    17    31    33   ar
    18    33    34   ar
    19    25    26   ar
    20     1     2    1
    21     2     3    1
    22     3     4    1
    23     4     5    1
    24     5     6    1
    25     6     7    1
    26    12    13   ar
    27    13    14   ar
    28    14    15    1
    29    15    16    1
    30    14    10   ar
    31    26    22   ar
    32     7     2    1
    33    34    28   ar
    34    18    21    1
    35    26    27    1
    36     7     8    1
    37    16    17    1
@<TRIPOS>MOLECULE
*****
 34 37 0 0 0
SMALL
GASTEIGER

@<TRIPOS>ATOM
      1 C           6.9040   -5.0134   27.4540 C.3     1  UNL1        0.1329
      2 C           7.7142   -6.2600   27.6532 C.3     1  UNL1        0.0785
      3 C           7.5933   -7.3962   26.6813 C.3     1  UNL1        0.0179
      4 C           8.4034   -8.6428   26.8805 C.3     1  UNL1        0.0029
      5 C           9.3345   -8.7531   28.0515 C.3     1  UNL1        0.0171
      6 C           9.4554   -7.6169   29.0232 C.3     1  UNL1        0.0686
      7 N           8.6452   -6.3703   28.8241 N.3     1  UNL1       -0.2969
      8 H           9.3071   -5.5980   28.7477 H       1  UNL1        0.1233
      9 C           6.2606   -3.1698   32.3599 C.3     1  UNL1        0.0524
     10 C           6.3538   -3.2442   30.8646 C.ar    1  UNL1        0.0640
     11 N           6.6550   -4.4738   30.0601 N.ar    1  UNL1       -0.2456
     12 C           6.6496   -4.0916   28.6096 C.ar    1  UNL1        0.1067
     13 S           6.3451   -2.6257   28.5177 S.2     1  UNL1       -0.0714
     14 C           6.1623   -2.1020   29.9114 C.ar    1  UNL1        0.0512
     15 C           5.8438   -0.6848   30.2860 C.3     1  UNL1        0.1713
     16 O           4.6311   -0.3827   31.1154 O.3     1  UNL1       -0.3767
     17 H           3.8318   -0.6008   30.6108 H       1  UNL1        0.2109
     18 N           6.3483   -4.6886   26.0991 N.am    1  UNL1       -0.2946
     19 C           7.2292   -4.0665   25.0566 C.2     1  UNL1        0.2618
     20 O           8.6659   -3.7692   25.3688 O.2     1  UNL1       -0.2686
     21 H           5.4053   -4.8837   25.8942 H       1  UNL1        0.1501
     22 C           6.6735   -3.7417   23.7017 C.ar    1  UNL1        0.1107
     23 C           7.1843   -4.2627   22.3911 C.ar    1  UNL1        0.0231
     24 C           6.3359   -3.6818   21.2990 C.ar    1  UNL1        0.0186
     25 C           5.3007   -2.8019   21.9346 C.ar    1  UNL1        0.0567
     26 N           5.5094   -2.8388   23.4195 N.ar    1  UNL1       -0.3496
     27 H           4.9759   -2.3554   24.0911 H       1  UNL1        0.1661
     28 C           4.2426   -2.0218   21.2120 C.ar    1  UNL1        0.0156
     29 C           3.1727   -1.3122   21.9878 C.ar    1  UNL1        0.0023
     30 C           2.1147   -0.5322   21.2653 C.ar    1  UNL1        0.0114
     31 C           2.1265   -0.4618   19.7670 C.ar    1  UNL1        0.0577
     32 CL          1.0683    0.3183   19.0445 Cl      1  UNL1       -0.0822
     33 C           3.1963   -1.1713   18.9912 C.ar    1  UNL1        0.0114
     34 C           4.2544   -1.9513   19.7137 C.ar    1  UNL1        0.0023
@<TRIPOS>BOND
     1     9    10    1
     2    10    11   ar
     3    11    12   ar
     4    12     1    1
     5     1    18    1
     6    18    19   am
     7    19    20    2
     8    19    22    1
     9    22    23   ar
    10    23    24   ar
    11    24    25   ar
    12    25    28    1
    13    28    29   ar
    14    29    30   ar
    15    30    31   ar
    16    31    32    1
    17    31    33   ar
    18    33    34   ar
    19    25    26   ar
    20     1     2    1
    21     2     3    1
    22     3     4    1
    23     4     5    1
    24     5     6    1
    25     6     7    1
    26    12    13   ar
    27    13    14   ar
    28    14    15    1
    29    15    16    1
    30    14    10   ar
    31    26    22   ar
    32     7     2    1
    33    34    28   ar
    34    18    21    1
    35    26    27    1
    36     7     8    1
    37    16    17    1
