@<TRIPOS>MOLECULE
*****
 36 41 0 0 0
SMALL
GASTEIGER

@<TRIPOS>ATOM
      1 C           3.8053   -0.2811   30.1256 C.ar    1  UNL1        0.0899
      2 C           3.0185    0.7344   30.9000 C.ar    1  UNL1        0.1063
      3 N           2.0606    1.6430   30.1880 N.ar    1  UNL1       -0.2291
      4 C           1.8896    1.5361   28.7016 C.ar    1  UNL1        0.1299
      5 C           2.6764    0.5207   27.9272 C.ar    1  UNL1        0.0503
      6 C           3.6342   -0.3879   28.6392 C.ar    1  UNL1        0.0895
      7 N           4.2683   -1.2850   27.6178 N.2     1  UNL1       -0.2490
      8 C           3.7024   -0.9308   26.2746 C.2     1  UNL1        0.0634
      9 C           3.9558   -1.4803   24.9021 C.3     1  UNL1        0.0721
     10 C           3.2254   -0.9137   23.7208 C.2     1  UNL1       -0.0132
     11 C           2.2415    0.2022   23.9120 C.2     1  UNL1       -0.0037
     12 C           1.9881    0.7517   25.2845 C.2     1  UNL1        0.0010
     13 C           2.7185    0.1852   26.4658 C.2     1  UNL1        0.0180
     14 C           3.4789   -1.4632   22.3482 C.ar    1  UNL1        0.0349
     15 C           2.7649   -0.8819   21.1640 C.ar    1  UNL1        0.1030
     16 N           3.0183   -1.4313   19.7915 N.ar    1  UNL1       -0.2125
     17 C           3.9857   -2.5621   19.6030 C.ar    1  UNL1        0.2137
     18 N           4.2391   -3.1115   18.2305 N.pl3   1  UNL1       -0.3274
     19 N           4.6997   -3.1434   20.7872 N.ar    1  UNL1       -0.2125
     20 C           4.4462   -2.5940   22.1598 C.ar    1  UNL1        0.1030
     21 H           3.7705   -2.7299   17.4533 H       1  UNL1        0.1452
     22 H           4.8740   -3.8536   18.1068 H       1  UNL1        0.1452
     23 N           6.0405   -1.6045   30.1698 N.am    1  UNL1       -0.3252
     24 C           4.7631   -1.1897   30.8376 C.2     1  UNL1        0.2457
     25 O           4.4435   -1.6835   32.2175 O.2     1  UNL1       -0.2703
     26 H           6.6691   -2.2009   30.6371 H       1  UNL1        0.1453
     27 H           6.2502   -1.2805   29.2641 H       1  UNL1        0.1453
     28 N           0.9317    2.4448   27.9896 N.pl3   1  UNL1       -0.3197
     29 H           1.2125    3.3531   27.7338 H       1  UNL1        0.1481
     30 C          -0.4541    1.9696   27.6673 C.3     1  UNL1        0.0702
     31 C          -1.2610    2.6696   26.6144 C.3     1  UNL1        0.0179
     32 C          -1.5207    2.9817   25.1703 C.3     1  UNL1        0.0017
     33 C          -2.3990    3.5700   26.2345 C.3     1  UNL1        0.0017
     34 C          -1.0328    0.7944   28.3980 C.3     1  UNL1        0.0179
     35 C          -1.9013    0.2427   29.4896 C.3     1  UNL1        0.0017
     36 C          -1.1669   -0.6895   28.5721 C.3     1  UNL1        0.0017
@<TRIPOS>BOND
     1    23    24   am
     2    24    25    2
     3    24     1    1
     4     1     2   ar
     5     2     3   ar
     6     3     4   ar
     7     4    28    1
     8    28    30    1
     9    30    31    1
    10    31    32    1
    11    32    33    1
    12    30    34    1
    13    34    35    1
    14    35    36    1
    15     4     5   ar
    16     5     6   ar
    17     6     7    1
    18     7     8    2
    19     8     9    1
    20     9    10    1
    21    10    14    1
    22    14    15   ar
    23    15    16   ar
    24    16    17   ar
    25    17    18    1
    26    17    19   ar
    27    19    20   ar
    28    10    11    2
    29    11    12    1
    30    12    13    2
    31     6     1   ar
    32    13     8    1
    33    33    31    1
    34    36    34    1
    35    13     5    1
    36    20    14   ar
    37    23    26    1
    38    23    27    1
    39    28    29    1
    40    18    21    1
    41    18    22    1
@<TRIPOS>MOLECULE
*****
 36 41 0 0 0
SMALL
GASTEIGER

@<TRIPOS>ATOM
      1 C           3.9128   -0.3977   30.1080 C.ar    1  UNL1        0.0899
      2 C           3.1444    0.6122   30.9077 C.ar    1  UNL1        0.1063
      3 N           2.1879    1.5418   30.2213 N.ar    1  UNL1       -0.2291
      4 C           2.0000    1.4615   28.7353 C.ar    1  UNL1        0.1299
      5 C           2.7684    0.4516   27.9356 C.ar    1  UNL1        0.0503
      6 C           3.7249   -0.4780   28.6219 C.ar    1  UNL1        0.0895
      7 N           4.3391   -1.3639   27.5789 N.2     1  UNL1       -0.2490
      8 C           3.7624   -0.9818   26.2480 C.2     1  UNL1        0.0634
      9 C           3.9957   -1.5106   24.8639 C.3     1  UNL1        0.0721
     10 C           3.2583   -0.9173   23.7002 C.2     1  UNL1       -0.0132
     11 C           2.2875    0.2047   23.9206 C.2     1  UNL1       -0.0037
     12 C           2.0542    0.7335   25.3048 C.2     1  UNL1        0.0010
     13 C           2.7916    0.1403   26.4684 C.2     1  UNL1        0.0180
     14 C           3.4916   -1.4461   22.3160 C.ar    1  UNL1        0.0349
     15 C           2.8241   -0.7940   21.1416 C.ar    1  UNL1        0.1030
     16 N           3.0574   -1.3227   19.7574 N.ar    1  UNL1       -0.2125
     17 C           3.9583   -2.5037   19.5476 C.ar    1  UNL1        0.2137
     18 N           4.1916   -3.0324   18.1634 N.pl3   1  UNL1       -0.3274
     19 N           4.6258   -3.1558   20.7219 N.ar    1  UNL1       -0.2125
     20 C           4.3924   -2.6270   22.1062 C.ar    1  UNL1        0.1030
     21 H           3.7534   -2.6044   17.3926 H       1  UNL1        0.1452
     22 H           4.7828   -3.8075   18.0257 H       1  UNL1        0.1452
     23 N           6.1572   -1.7062   30.1254 N.am    1  UNL1       -0.3252
     24 C           4.8692   -1.3274   30.7943 C.2     1  UNL1        0.2457
     25 O           4.5376   -1.8782   32.1496 O.2     1  UNL1       -0.2703
     26 H           6.7850   -2.3163   30.5759 H       1  UNL1        0.1453
     27 H           6.3749   -1.3447   29.2360 H       1  UNL1        0.1453
     28 N           1.0435    2.3912   28.0490 N.pl3   1  UNL1       -0.3197
     29 H           1.3057    3.3231   27.8700 H       1  UNL1        0.1481
     30 C          -0.3125    1.9009   27.6354 C.3     1  UNL1        0.0702
     31 C          -0.9668    0.7809   28.3887 C.3     1  UNL1        0.0179
     32 C          -1.2211   -0.6858   28.5738 C.3     1  UNL1        0.0017
     33 C          -1.8458    0.3076   29.5081 C.3     1  UNL1        0.0017
     34 C          -1.0140    2.5305   26.4687 C.3     1  UNL1        0.0179
     35 C          -2.1723    3.3049   25.9129 C.3     1  UNL1        0.0017
     36 C          -1.0709    2.8467   25.0034 C.3     1  UNL1        0.0017
@<TRIPOS>BOND
     1    23    24   am
     2    24    25    2
     3    24     1    1
     4     1     2   ar
     5     2     3   ar
     6     3     4   ar
     7     4    28    1
     8    28    30    1
     9    30    31    1
    10    31    32    1
    11    32    33    1
    12    30    34    1
    13    34    35    1
    14    35    36    1
    15     4     5   ar
    16     5     6   ar
    17     6     7    1
    18     7     8    2
    19     8     9    1
    20     9    10    1
    21    10    14    1
    22    14    15   ar
    23    15    16   ar
    24    16    17   ar
    25    17    18    1
    26    17    19   ar
    27    19    20   ar
    28    10    11    2
    29    11    12    1
    30    12    13    2
    31     6     1   ar
    32    13     8    1
    33    33    31    1
    34    36    34    1
    35    13     5    1
    36    20    14   ar
    37    23    26    1
    38    23    27    1
    39    28    29    1
    40    18    21    1
    41    18    22    1
@<TRIPOS>MOLECULE
*****
 36 41 0 0 0
SMALL
GASTEIGER

@<TRIPOS>ATOM
      1 C           6.4463   -3.6539   23.9244 C.ar    1  UNL1        0.0899
      2 C           7.3217   -4.0534   22.7738 C.ar    1  UNL1        0.1063
      3 N           7.1221   -3.4255   21.4263 N.ar    1  UNL1       -0.2291
      4 C           6.0470   -2.3981   21.2293 C.ar    1  UNL1        0.1299
      5 C           5.1716   -1.9986   22.3799 C.ar    1  UNL1        0.0503
      6 C           5.3712   -2.6265   23.7275 C.ar    1  UNL1        0.0895
      7 N           4.3618   -2.0371   24.6675 N.2     1  UNL1       -0.2490
      8 C           3.5384   -1.0449   23.9010 C.2     1  UNL1        0.0634
      9 C           2.3976   -0.1601   24.3078 C.3     1  UNL1        0.0721
     10 C           1.7572    0.7486   23.3007 C.2     1  UNL1       -0.0132
     11 C           2.2577    0.7723   21.8868 C.2     1  UNL1       -0.0037
     12 C           3.3985   -0.1125   21.4801 C.2     1  UNL1        0.0010
     13 C           4.0389   -1.0211   22.4872 C.2     1  UNL1        0.0180
     14 C           0.6163    1.6335   23.7074 C.ar    1  UNL1        0.0349
     15 C           0.0405    2.6127   22.7278 C.ar    1  UNL1        0.1030
     16 N          -1.1003    3.4976   23.1345 N.ar    1  UNL1       -0.2125
     17 C          -1.6654    3.4033   24.5208 C.ar    1  UNL1        0.2137
     18 N          -2.8062    4.2882   24.9275 N.pl3   1  UNL1       -0.3274
     19 N          -1.0896    2.4241   25.5004 N.ar    1  UNL1       -0.2125
     20 C           0.0513    1.5392   25.0937 C.ar    1  UNL1        0.1030
     21 H          -3.1841    4.9309   24.2845 H       1  UNL1        0.1452
     22 H          -3.1771    4.2264   25.8373 H       1  UNL1        0.1452
     23 N           6.1784   -3.5710   26.5072 N.am    1  UNL1       -0.3252
     24 C           6.6459   -4.2818   25.2720 C.2     1  UNL1        0.2457
     25 O           7.3130   -5.6207   25.3842 O.2     1  UNL1       -0.2703
     26 H           6.3094   -3.9831   27.3917 H       1  UNL1        0.1453
     27 H           5.7405   -2.6923   26.4336 H       1  UNL1        0.1453
     28 N           5.8475   -1.7702   19.8817 N.pl3   1  UNL1       -0.3197
     29 H           6.4390   -1.0409   19.5860 H       1  UNL1        0.1481
     30 C           4.7467   -2.2536   18.9847 C.3     1  UNL1        0.0702
     31 C           4.3281   -3.6936   19.0203 C.3     1  UNL1        0.0179
     32 C           3.2863   -4.7371   19.2953 C.3     1  UNL1        0.0017
     33 C           4.6450   -5.1441   18.8071 C.3     1  UNL1        0.0017
     34 C           4.0645   -1.2971   18.0522 C.3     1  UNL1        0.0179
     35 C           3.8311   -0.7803   16.6634 C.3     1  UNL1        0.0017
     36 C           3.1161   -0.1572   17.8256 C.3     1  UNL1        0.0017
@<TRIPOS>BOND
     1    23    24   am
     2    24    25    2
     3    24     1    1
     4     1     2   ar
     5     2     3   ar
     6     3     4   ar
     7     4    28    1
     8    28    30    1
     9    30    31    1
    10    31    32    1
    11    32    33    1
    12    30    34    1
    13    34    35    1
    14    35    36    1
    15     4     5   ar
    16     5     6   ar
    17     6     7    1
    18     7     8    2
    19     8     9    1
    20     9    10    1
    21    10    14    1
    22    14    15   ar
    23    15    16   ar
    24    16    17   ar
    25    17    18    1
    26    17    19   ar
    27    19    20   ar
    28    10    11    2
    29    11    12    1
    30    12    13    2
    31     6     1   ar
    32    13     8    1
    33    33    31    1
    34    36    34    1
    35    13     5    1
    36    20    14   ar
    37    23    26    1
    38    23    27    1
    39    28    29    1
    40    18    21    1
    41    18    22    1
@<TRIPOS>MOLECULE
*****
 36 41 0 0 0
SMALL
GASTEIGER

@<TRIPOS>ATOM
      1 C           6.9105   -3.8481   23.6780 C.ar    1  UNL1        0.0899
      2 C           7.7199   -4.2006   22.4653 C.ar    1  UNL1        0.1063
      3 N           7.4219   -3.5466   21.1487 N.ar    1  UNL1       -0.2291
      4 C           6.3146   -2.5401   21.0447 C.ar    1  UNL1        0.1299
      5 C           5.5052   -2.1876   22.2574 C.ar    1  UNL1        0.0503
      6 C           5.8031   -2.8416   23.5740 C.ar    1  UNL1        0.0895
      7 N           4.8427   -2.2975   24.5896 N.2     1  UNL1       -0.2490
      8 C           3.9511   -1.3072   23.9007 C.2     1  UNL1        0.0634
      9 C           2.8194   -0.4586   24.3997 C.3     1  UNL1        0.0721
     10 C           2.0972    0.4579   23.4572 C.2     1  UNL1       -0.0132
     11 C           2.5066    0.5258   22.0158 C.2     1  UNL1       -0.0037
     12 C           3.6383   -0.3228   21.5168 C.2     1  UNL1        0.0010
     13 C           4.3606   -1.2394   22.4593 C.2     1  UNL1        0.0180
     14 C           0.9654    1.3066   23.9562 C.ar    1  UNL1        0.0349
     15 C           0.3233    2.3111   23.0458 C.ar    1  UNL1        0.1030
     16 N          -0.8084    3.1597   23.5447 N.ar    1  UNL1       -0.2125
     17 C          -1.2981    3.0039   24.9540 C.ar    1  UNL1        0.2137
     18 N          -2.4298    3.8526   25.4529 N.pl3   1  UNL1       -0.3274
     19 N          -0.6560    1.9994   25.8643 N.ar    1  UNL1       -0.2125
     20 C           0.4758    1.1508   25.3654 C.ar    1  UNL1        0.1030
     21 H          -2.8512    4.5119   24.8554 H       1  UNL1        0.1452
     22 H          -2.7512    3.7503   26.3778 H       1  UNL1        0.1452
     23 N           6.2396   -4.3730   26.1324 N.am    1  UNL1       -0.3252
     24 C           7.2084   -4.5021   24.9946 C.2     1  UNL1        0.2457
     25 O           8.4753   -5.2852   25.1735 O.2     1  UNL1       -0.2703
     26 H           6.4352   -4.8022   26.9965 H       1  UNL1        0.1453
     27 H           5.4082   -3.8590   26.0150 H       1  UNL1        0.1453
     28 N           6.0167   -1.8861   19.7280 N.pl3   1  UNL1       -0.3197
     29 H           6.5869   -1.1526   19.4025 H       1  UNL1        0.1481
     30 C           4.8499   -2.3499   18.9073 C.3     1  UNL1        0.0702
     31 C           4.1387   -1.3869   18.0036 C.3     1  UNL1        0.0179
     32 C           3.8229   -0.8922   16.6231 C.3     1  UNL1        0.0017
     33 C           3.2228   -0.2135   17.8186 C.3     1  UNL1        0.0017
     34 C           4.3943   -3.7766   18.9902 C.3     1  UNL1        0.0179
     35 C           4.6068   -5.2284   18.6783 C.3     1  UNL1        0.0017
     36 C           3.3927   -4.7961   19.4458 C.3     1  UNL1        0.0017
@<TRIPOS>BOND
     1    23    24   am
     2    24    25    2
     3    24     1    1
     4     1     2   ar
     5     2     3   ar
     6     3     4   ar
     7     4    28    1
     8    28    30    1
     9    30    31    1
    10    31    32    1
    11    32    33    1
    12    30    34    1
    13    34    35    1
    14    35    36    1
    15     4     5   ar
    16     5     6   ar
    17     6     7    1
    18     7     8    2
    19     8     9    1
    20     9    10    1
    21    10    14    1
    22    14    15   ar
    23    15    16   ar
    24    16    17   ar
    25    17    18    1
    26    17    19   ar
    27    19    20   ar
    28    10    11    2
    29    11    12    1
    30    12    13    2
    31     6     1   ar
    32    13     8    1
    33    33    31    1
    34    36    34    1
    35    13     5    1
    36    20    14   ar
    37    23    26    1
    38    23    27    1
    39    28    29    1
    40    18    21    1
    41    18    22    1
@<TRIPOS>MOLECULE
*****
 36 41 0 0 0
SMALL
GASTEIGER

@<TRIPOS>ATOM
      1 C           7.5584   -4.5686   23.1102 C.ar    1  UNL1        0.0899
      2 C           8.1858   -4.7719   21.7630 C.ar    1  UNL1        0.1063
      3 N           7.7442   -3.9385   20.5966 N.ar    1  UNL1       -0.2291
      4 C           6.6752   -2.9018   20.7775 C.ar    1  UNL1        0.1299
      5 C           6.0478   -2.6986   22.1247 C.ar    1  UNL1        0.0503
      6 C           6.4895   -3.5320   23.2911 C.ar    1  UNL1        0.0895
      7 N           5.6944   -3.1087   24.4906 N.2     1  UNL1       -0.2490
      8 C           4.7615   -2.0137   24.0656 C.2     1  UNL1        0.0634
      9 C           3.7413   -1.2148   24.8211 C.3     1  UNL1        0.0721
     10 C           2.9396   -0.1623   24.1144 C.2     1  UNL1       -0.0132
     11 C           3.1580    0.0912   22.6522 C.2     1  UNL1       -0.0037
     12 C           4.1782   -0.7078   21.8967 C.2     1  UNL1        0.0010
     13 C           4.9799   -1.7603   22.6034 C.2     1  UNL1        0.0180
     14 C           1.9194    0.6368   24.8699 C.ar    1  UNL1        0.0349
     15 C           2.0954    0.8799   26.3395 C.ar    1  UNL1        0.1030
     16 N           1.0753    1.6789   27.0950 N.ar    1  UNL1       -0.2125
     17 C          -0.1210    2.2349   26.3809 C.ar    1  UNL1        0.2137
     18 N          -1.1411    3.0339   27.1364 N.pl3   1  UNL1       -0.3274
     19 N          -0.2971    1.9917   24.9112 N.ar    1  UNL1       -0.2125
     20 C           0.7232    1.1926   24.1557 C.ar    1  UNL1        0.1030
     21 H          -1.0256    3.1935   28.1010 H       1  UNL1        0.1452
     22 H          -1.9263    3.3987   26.6677 H       1  UNL1        0.1452
     23 N           7.1310   -5.5079   25.4945 N.am    1  UNL1       -0.3252
     24 C           8.0001   -5.4020   24.2766 C.2     1  UNL1        0.2457
     25 O           9.3108   -6.1297   24.2250 O.2     1  UNL1       -0.2703
     26 H           7.4209   -6.0548   26.2600 H       1  UNL1        0.1453
     27 H           6.2708   -5.0303   25.5284 H       1  UNL1        0.1453
     28 N           6.2336   -2.0684   19.6111 N.pl3   1  UNL1       -0.3197
     29 H           6.7702   -1.2927   19.3291 H       1  UNL1        0.1481
     30 C           4.9744   -2.4171   18.8742 C.3     1  UNL1        0.0702
     31 C           4.4268   -3.8118   18.9435 C.3     1  UNL1        0.0179
     32 C           3.3155   -4.7549   19.2979 C.3     1  UNL1        0.0017
     33 C           4.5894   -5.2844   18.7090 C.3     1  UNL1        0.0017
     34 C           4.2630   -1.3712   18.0682 C.3     1  UNL1        0.0179
     35 C           3.5179   -0.0713   17.9951 C.3     1  UNL1        0.0017
     36 C           3.7757   -0.8592   16.7451 C.3     1  UNL1        0.0017
@<TRIPOS>BOND
     1    23    24   am
     2    24    25    2
     3    24     1    1
     4     1     2   ar
     5     2     3   ar
     6     3     4   ar
     7     4    28    1
     8    28    30    1
     9    30    31    1
    10    31    32    1
    11    32    33    1
    12    30    34    1
    13    34    35    1
    14    35    36    1
    15     4     5   ar
    16     5     6   ar
    17     6     7    1
    18     7     8    2
    19     8     9    1
    20     9    10    1
    21    10    14    1
    22    14    15   ar
    23    15    16   ar
    24    16    17   ar
    25    17    18    1
    26    17    19   ar
    27    19    20   ar
    28    10    11    2
    29    11    12    1
    30    12    13    2
    31     6     1   ar
    32    13     8    1
    33    33    31    1
    34    36    34    1
    35    13     5    1
    36    20    14   ar
    37    23    26    1
    38    23    27    1
    39    28    29    1
    40    18    21    1
    41    18    22    1
@<TRIPOS>MOLECULE
*****
 36 41 0 0 0
SMALL
GASTEIGER

@<TRIPOS>ATOM
      1 C         -11.5588   -6.2874   18.8431 C.ar    1  UNL1        0.0899
      2 C         -12.4754   -7.4729   18.7779 C.ar    1  UNL1        0.1063
      3 N         -13.9287   -7.2807   18.4602 N.ar    1  UNL1       -0.2291
      4 C         -14.4654   -5.9029   18.2077 C.ar    1  UNL1        0.1299
      5 C         -13.5488   -4.7174   18.2728 C.ar    1  UNL1        0.0503
      6 C         -12.0955   -4.9096   18.5905 C.ar    1  UNL1        0.0895
      7 N         -11.4378   -3.5615   18.5858 N.2     1  UNL1       -0.2490
      8 C         -12.4846   -2.5361   18.2652 C.2     1  UNL1        0.0634
      9 C         -12.4183   -1.0442   18.1244 C.3     1  UNL1        0.0721
     10 C         -13.6567   -0.2668   17.7902 C.2     1  UNL1       -0.0132
     11 C         -14.9614   -0.9811   17.5967 C.2     1  UNL1       -0.0037
     12 C         -15.0277   -2.4730   17.7375 C.2     1  UNL1        0.0010
     13 C         -13.7893   -3.2505   18.0718 C.2     1  UNL1        0.0180
     14 C         -13.5905    1.2252   17.6494 C.ar    1  UNL1        0.0349
     15 C         -14.6945    2.0800   18.1976 C.ar    1  UNL1        0.1030
     16 N         -14.6283    3.5719   18.0568 N.ar    1  UNL1       -0.2125
     17 C         -13.4581    4.2090   17.3678 C.ar    1  UNL1        0.2137
     18 N         -13.3919    5.7009   17.2270 N.pl3   1  UNL1       -0.3274
     19 N         -12.3541    3.3543   16.8196 N.ar    1  UNL1       -0.2125
     20 C         -12.4203    1.8623   16.9604 C.ar    1  UNL1        0.1030
     21 H         -14.1165    6.2619   17.5869 H       1  UNL1        0.1452
     22 H         -12.6239    6.1191   16.7748 H       1  UNL1        0.1452
     23 N          -9.4987   -7.8498   19.0968 N.am    1  UNL1       -0.3252
     24 C         -10.1055   -6.4796   19.1608 C.2     1  UNL1        0.2457
     25 O          -9.2589   -5.3015   19.5424 O.2     1  UNL1       -0.2703
     26 H          -8.5448   -7.9760   19.3054 H       1  UNL1        0.1453
     27 H         -10.0542   -8.6230   18.8464 H       1  UNL1        0.1453
     28 N         -15.9188   -5.7107   17.8900 N.pl3   1  UNL1       -0.3197
     29 H         -16.1992   -5.5157   16.9666 H       1  UNL1        0.1481
     30 C         -16.9448   -5.8157   18.9791 C.3     1  UNL1        0.0702
     31 C         -17.6463   -4.5839   19.4697 C.3     1  UNL1        0.0179
     32 C         -17.5933   -3.2160   20.0828 C.3     1  UNL1        0.0017
     33 C         -18.9144   -3.8185   19.7063 C.3     1  UNL1        0.0017
     34 C         -17.2692   -7.1522   19.5777 C.3     1  UNL1        0.0179
     35 C         -18.2777   -8.1277   20.1083 C.3     1  UNL1        0.0017
     36 C         -16.8227   -8.4918   20.0840 C.3     1  UNL1        0.0017
@<TRIPOS>BOND
     1    23    24   am
     2    24    25    2
     3    24     1    1
     4     1     2   ar
     5     2     3   ar
     6     3     4   ar
     7     4    28    1
     8    28    30    1
     9    30    31    1
    10    31    32    1
    11    32    33    1
    12    30    34    1
    13    34    35    1
    14    35    36    1
    15     4     5   ar
    16     5     6   ar
    17     6     7    1
    18     7     8    2
    19     8     9    1
    20     9    10    1
    21    10    14    1
    22    14    15   ar
    23    15    16   ar
    24    16    17   ar
    25    17    18    1
    26    17    19   ar
    27    19    20   ar
    28    10    11    2
    29    11    12    1
    30    12    13    2
    31     6     1   ar
    32    13     8    1
    33    33    31    1
    34    36    34    1
    35    13     5    1
    36    20    14   ar
    37    23    26    1
    38    23    27    1
    39    28    29    1
    40    18    21    1
    41    18    22    1
@<TRIPOS>MOLECULE
*****
 36 41 0 0 0
SMALL
GASTEIGER

@<TRIPOS>ATOM
      1 C           6.7374   -4.2422   30.2069 C.ar    1  UNL1        0.0899
      2 C           6.8384   -4.0625   28.7211 C.ar    1  UNL1        0.1063
      3 N           6.3579   -2.7919   28.0850 N.ar    1  UNL1       -0.2291
      4 C           5.7765   -1.7009   28.9346 C.ar    1  UNL1        0.1299
      5 C           5.6755   -1.8806   30.4203 C.ar    1  UNL1        0.0503
      6 C           6.1560   -3.1512   31.0565 C.ar    1  UNL1        0.0895
      7 N           5.9297   -3.0434   32.5354 N.2     1  UNL1       -0.2490
      8 C           5.3095   -1.7062   32.8133 C.2     1  UNL1        0.0634
      9 C           4.8674   -1.0502   34.0877 C.3     1  UNL1        0.0721
     10 C           4.2683    0.3245   34.0549 C.2     1  UNL1       -0.0132
     11 C           4.1112    1.0432   32.7477 C.2     1  UNL1       -0.0037
     12 C           4.5532    0.3872   31.4732 C.2     1  UNL1        0.0010
     13 C           5.1523   -0.9875   31.5060 C.2     1  UNL1        0.0180
     14 C           3.8262    0.9806   35.3293 C.ar    1  UNL1        0.0349
     15 C           2.8159    2.0887   35.2912 C.ar    1  UNL1        0.1030
     16 N           2.3738    2.7448   36.5655 N.ar    1  UNL1       -0.2125
     17 C           2.9421    2.2929   37.8781 C.ar    1  UNL1        0.2137
     18 N           2.5000    2.9490   39.1525 N.pl3   1  UNL1       -0.3274
     19 N           3.9524    1.1848   37.9163 N.ar    1  UNL1       -0.2125
     20 C           4.3945    0.5287   36.6419 C.ar    1  UNL1        0.1030
     21 H           1.8369    3.6762   39.1274 H       1  UNL1        0.1452
     22 H           2.8729    2.6523   40.0140 H       1  UNL1        0.1452
     23 N           6.7010   -5.9185   32.1914 N.am    1  UNL1       -0.3252
     24 C           7.2179   -5.5128   30.8431 C.2     1  UNL1        0.2457
     25 O           8.2153   -6.3777   30.1308 O.2     1  UNL1       -0.2703
     26 H           7.0164   -6.7524   32.6089 H       1  UNL1        0.1453
     27 H           6.0464   -5.3508   32.6589 H       1  UNL1        0.1453
     28 N           5.2960   -0.4303   28.2983 N.pl3   1  UNL1       -0.3197
     29 H           5.8534    0.3804   28.3359 H       1  UNL1        0.1481
     30 C           3.9664   -0.3949   27.6049 C.3     1  UNL1        0.0702
     31 C           3.8705   -0.7430   26.1490 C.3     1  UNL1        0.0179
     32 C           3.3082   -0.4769   24.7840 C.3     1  UNL1        0.0017
     33 C           4.2665   -1.6119   24.9922 C.3     1  UNL1        0.0017
     34 C           2.7328   -0.0116   28.3672 C.3     1  UNL1        0.0179
     35 C           1.6834    1.0022   28.7153 C.3     1  UNL1        0.0017
     36 C           1.6455   -0.3612   29.3397 C.3     1  UNL1        0.0017
@<TRIPOS>BOND
     1    23    24   am
     2    24    25    2
     3    24     1    1
     4     1     2   ar
     5     2     3   ar
     6     3     4   ar
     7     4    28    1
     8    28    30    1
     9    30    31    1
    10    31    32    1
    11    32    33    1
    12    30    34    1
    13    34    35    1
    14    35    36    1
    15     4     5   ar
    16     5     6   ar
    17     6     7    1
    18     7     8    2
    19     8     9    1
    20     9    10    1
    21    10    14    1
    22    14    15   ar
    23    15    16   ar
    24    16    17   ar
    25    17    18    1
    26    17    19   ar
    27    19    20   ar
    28    10    11    2
    29    11    12    1
    30    12    13    2
    31     6     1   ar
    32    13     8    1
    33    33    31    1
    34    36    34    1
    35    13     5    1
    36    20    14   ar
    37    23    26    1
    38    23    27    1
    39    28    29    1
    40    18    21    1
    41    18    22    1
@<TRIPOS>MOLECULE
*****
 36 41 0 0 0
SMALL
GASTEIGER

@<TRIPOS>ATOM
      1 C           2.0383    0.3511   19.6524 C.ar    1  UNL1        0.0899
      2 C           2.8611   -0.0728   18.4720 C.ar    1  UNL1        0.1063
      3 N           4.1578   -0.7968   18.6829 N.ar    1  UNL1       -0.2291
      4 C           4.6317   -1.0968   20.0741 C.ar    1  UNL1        0.1299
      5 C           3.8089   -0.6729   21.2545 C.ar    1  UNL1        0.0503
      6 C           2.5122    0.0511   21.0436 C.ar    1  UNL1        0.0895
      7 N           1.9199    0.3428   22.3905 N.2     1  UNL1       -0.2490
      8 C           2.8506   -0.2009   23.4337 C.2     1  UNL1        0.0634
      9 C           2.7857   -0.2054   24.9323 C.3     1  UNL1        0.0721
     10 C           3.8884   -0.8377   25.7287 C.2     1  UNL1       -0.0132
     11 C           5.0558   -1.4655   25.0266 C.2     1  UNL1       -0.0037
     12 C           5.1207   -1.4609   23.5281 C.2     1  UNL1        0.0010
     13 C           4.0180   -0.8286   22.7316 C.2     1  UNL1        0.0180
     14 C           3.8236   -0.8423   27.2274 C.ar    1  UNL1        0.0349
     15 C           5.0438   -1.1845   28.0298 C.ar    1  UNL1        0.1030
     16 N           4.9791   -1.1891   29.5283 N.ar    1  UNL1       -0.2125
     17 C           3.6940   -0.8515   30.2246 C.ar    1  UNL1        0.2137
     18 N           3.6293   -0.8561   31.7232 N.pl3   1  UNL1       -0.3274
     19 N           2.4738   -0.5093   29.4222 N.ar    1  UNL1       -0.2125
     20 C           2.5386   -0.5047   27.9236 C.ar    1  UNL1        0.1030
     21 H           4.4302   -1.0807   32.2498 H       1  UNL1        0.1452
     22 H           2.7859   -0.6345   32.1801 H       1  UNL1        0.1452
     23 N          -0.3356    1.0027   20.4827 N.am    1  UNL1       -0.3252
     24 C           0.7417    1.0751   19.4415 C.2     1  UNL1        0.2457
     25 O           0.5223    1.8715   18.1894 O.2     1  UNL1       -0.2703
     26 H          -1.1867    1.4779   20.3443 H       1  UNL1        0.1453
     27 H          -0.1916    0.4801   21.3045 H       1  UNL1        0.1453
     28 N           5.9285   -1.8208   20.2849 N.pl3   1  UNL1       -0.3197
     29 H           6.7744   -1.3179   20.3113 H       1  UNL1        0.1481
     30 C           5.9362   -3.3111   20.4556 C.3     1  UNL1        0.0702
     31 C           4.9435   -4.1560   19.7135 C.3     1  UNL1        0.0179
     32 C           3.5220   -4.5337   19.4193 C.3     1  UNL1        0.0017
     33 C           4.6457   -5.2418   18.7223 C.3     1  UNL1        0.0017
     34 C           6.9365   -3.9564   21.3682 C.3     1  UNL1        0.0179
     35 C           8.2358   -4.6788   21.5684 C.3     1  UNL1        0.0017
     36 C           7.3699   -4.3517   22.7488 C.3     1  UNL1        0.0017
@<TRIPOS>BOND
     1    23    24   am
     2    24    25    2
     3    24     1    1
     4     1     2   ar
     5     2     3   ar
     6     3     4   ar
     7     4    28    1
     8    28    30    1
     9    30    31    1
    10    31    32    1
    11    32    33    1
    12    30    34    1
    13    34    35    1
    14    35    36    1
    15     4     5   ar
    16     5     6   ar
    17     6     7    1
    18     7     8    2
    19     8     9    1
    20     9    10    1
    21    10    14    1
    22    14    15   ar
    23    15    16   ar
    24    16    17   ar
    25    17    18    1
    26    17    19   ar
    27    19    20   ar
    28    10    11    2
    29    11    12    1
    30    12    13    2
    31     6     1   ar
    32    13     8    1
    33    33    31    1
    34    36    34    1
    35    13     5    1
    36    20    14   ar
    37    23    26    1
    38    23    27    1
    39    28    29    1
    40    18    21    1
    41    18    22    1
@<TRIPOS>MOLECULE
*****
 36 41 0 0 0
SMALL
GASTEIGER

@<TRIPOS>ATOM
      1 C           6.8703   -4.3626   30.2050 C.ar    1  UNL1        0.0899
      2 C           7.0079   -4.1826   28.7223 C.ar    1  UNL1        0.1063
      3 N           6.5527   -2.9077   28.0762 N.ar    1  UNL1       -0.2291
      4 C           5.9600   -1.8128   28.9128 C.ar    1  UNL1        0.1299
      5 C           5.8224   -1.9928   30.3956 C.ar    1  UNL1        0.0503
      6 C           6.2776   -3.2677   31.0417 C.ar    1  UNL1        0.0895
      7 N           6.0173   -3.1594   32.5150 N.2     1  UNL1       -0.2490
      8 C           5.4012   -1.8175   32.7794 C.2     1  UNL1        0.0634
      9 C           4.9344   -1.1590   34.0436 C.3     1  UNL1        0.0721
     10 C           4.3471    0.2205   33.9980 C.2     1  UNL1       -0.0132
     11 C           4.2267    0.9414   32.6882 C.2     1  UNL1       -0.0037
     12 C           4.6935    0.2829   31.4239 C.2     1  UNL1        0.0010
     13 C           5.2808   -1.0965   31.4695 C.2     1  UNL1        0.0180
     14 C           3.8802    0.8791   35.2623 C.ar    1  UNL1        0.0349
     15 C           4.3720    0.3858   36.5907 C.ar    1  UNL1        0.1030
     16 N           3.9052    1.0443   37.8550 N.ar    1  UNL1       -0.2125
     17 C           2.9464    2.1962   37.7908 C.ar    1  UNL1        0.2137
     18 N           2.4796    2.8547   39.0551 N.pl3   1  UNL1       -0.3274
     19 N           2.4545    2.6894   36.4624 N.ar    1  UNL1       -0.2125
     20 C           2.9214    2.0309   35.1981 C.ar    1  UNL1        0.1030
     21 H           2.8024    2.5309   39.9270 H       1  UNL1        0.1452
     22 H           1.8503    3.6107   39.0130 H       1  UNL1        0.1452
     23 N           6.7384   -6.0643   32.1637 N.am    1  UNL1       -0.3252
     24 C           7.3255   -5.6375   30.8511 C.2     1  UNL1        0.2457
     25 O           8.3679   -6.4856   30.1846 O.2     1  UNL1       -0.2703
     26 H           7.0371   -6.9011   32.5878 H       1  UNL1        0.1453
     27 H           6.0542   -5.5077   32.6012 H       1  UNL1        0.1453
     28 N           5.5048   -0.5379   28.2667 N.pl3   1  UNL1       -0.3197
     29 H           6.0760    0.2632   28.3021 H       1  UNL1        0.1481
     30 C           4.1793   -0.4836   27.5665 C.3     1  UNL1        0.0702
     31 C           2.9619   -0.0065   28.3017 C.3     1  UNL1        0.0179
     32 C           1.6947   -0.3042   29.0470 C.3     1  UNL1        0.0017
     33 C           2.1206    1.1175   28.8297 C.3     1  UNL1        0.0017
     34 C           4.0711   -0.9063   26.1315 C.3     1  UNL1        0.0179
     35 C           4.5302   -1.7685   24.9930 C.3     1  UNL1        0.0017
     36 C           3.4248   -0.7763   24.7841 C.3     1  UNL1        0.0017
@<TRIPOS>BOND
     1    23    24   am
     2    24    25    2
     3    24     1    1
     4     1     2   ar
     5     2     3   ar
     6     3     4   ar
     7     4    28    1
     8    28    30    1
     9    30    31    1
    10    31    32    1
    11    32    33    1
    12    30    34    1
    13    34    35    1
    14    35    36    1
    15     4     5   ar
    16     5     6   ar
    17     6     7    1
    18     7     8    2
    19     8     9    1
    20     9    10    1
    21    10    14    1
    22    14    15   ar
    23    15    16   ar
    24    16    17   ar
    25    17    18    1
    26    17    19   ar
    27    19    20   ar
    28    10    11    2
    29    11    12    1
    30    12    13    2
    31     6     1   ar
    32    13     8    1
    33    33    31    1
    34    36    34    1
    35    13     5    1
    36    20    14   ar
    37    23    26    1
    38    23    27    1
    39    28    29    1
    40    18    21    1
    41    18    22    1
