@<TRIPOS>MOLECULE
*****
 24 26 0 0 0
SMALL
GASTEIGER

@<TRIPOS>ATOM
      1 C          -7.3271  -19.3070   20.4084 C.ar    1  UNL1       -0.0000
      2 C          -7.5221  -20.0522   19.1214 C.ar    1  UNL1       -0.0000
      3 C          -8.9066  -20.2946   18.5975 C.ar    1  UNL1       -0.0001
      4 C         -10.0960  -19.7918   19.3607 C.ar    1  UNL1        0.0017
      5 C          -9.9009  -19.0465   20.6478 C.ar    1  UNL1        0.0437
      6 C          -8.5165  -18.8041   21.1716 C.ar    1  UNL1        0.0017
      7 C         -11.0903  -18.5436   21.4110 C.3     1  UNL1        0.2769
      8 C         -11.4713  -17.9224   20.0998 C.3     1  UNL1        0.0847
      9 N         -12.3593  -17.9109   21.9000 N.2     1  UNL1       -0.2227
     10 C         -12.5140  -18.2462   23.3539 C.2     1  UNL1        0.1396
     11 C         -13.6438  -17.8169   24.2424 C.3     1  UNL1        0.0597
     12 C         -11.3406  -19.0861   23.7633 C.2     1  UNL1        0.3285
     13 N         -11.0910  -19.6441   25.1331 N.pl3   1  UNL1       -0.2454
     14 N         -10.4607  -19.2699   22.5626 N.2     1  UNL1       -0.0450
     15 H         -11.7304  -19.4676   25.8606 H       1  UNL1        0.2885
     16 H         -10.2878  -20.1869   25.3046 H       1  UNL1        0.2885
     17 C          -3.3798  -18.9148   20.5326 C.ar    1  UNL1        0.1387
     18 C          -3.1736  -18.5798   21.9801 C.ar    1  UNL1        0.0369
     19 C          -4.3519  -18.4871   22.9037 C.ar    1  UNL1        0.0031
     20 C          -5.7364  -18.7295   22.3798 C.ar    1  UNL1        0.0002
     21 C          -5.9425  -19.0646   20.9324 C.ar    1  UNL1        0.0030
     22 C          -4.7642  -19.1572   20.0088 C.ar    1  UNL1        0.0369
     23 C          -1.7720  -17.8073   18.8184 C.3     1  UNL1        0.2525
     24 O          -2.2015  -19.0075   19.6090 O.3     1  UNL1       -0.4714
@<TRIPOS>BOND
     1    23    24    1
     2    24    17    1
     3    17    18   ar
     4    18    19   ar
     5    19    20   ar
     6    20    21   ar
     7    21     1    1
     8     1     2   ar
     9     2     3   ar
    10     3     4   ar
    11     4     5   ar
    12     5     7    1
    13     7     8    1
    14     7     9    1
    15     9    10    2
    16    10    11    1
    17    10    12    1
    18    12    13    1
    19    12    14    2
    20     5     6   ar
    21    21    22   ar
    22    22    17   ar
    23     6     1   ar
    24    14     7    1
    25    13    15    1
    26    13    16    1
@<TRIPOS>MOLECULE
*****
 24 26 0 0 0
SMALL
GASTEIGER

@<TRIPOS>ATOM
      1 C          -7.3740  -19.4838   20.4610 C.ar    1  UNL1       -0.0000
      2 C          -7.5767  -20.1488   19.1319 C.ar    1  UNL1       -0.0000
      3 C          -8.9594  -20.2926   18.5683 C.ar    1  UNL1       -0.0001
      4 C         -10.1393  -19.7713   19.3338 C.ar    1  UNL1        0.0017
      5 C          -9.9365  -19.1062   20.6630 C.ar    1  UNL1        0.0437
      6 C          -8.5539  -18.9625   21.2265 C.ar    1  UNL1        0.0017
      7 C         -11.1164  -18.5849   21.4285 C.3     1  UNL1        0.2769
      8 C         -11.5040  -17.9797   20.1119 C.3     1  UNL1        0.0847
      9 N         -12.3773  -17.9371   21.9188 N.2     1  UNL1       -0.2227
     10 C         -12.5224  -18.2509   23.3785 C.2     1  UNL1        0.1396
     11 C         -13.6421  -17.8018   24.2698 C.3     1  UNL1        0.0597
     12 C         -11.3511  -19.0926   23.7902 C.2     1  UNL1        0.3285
     13 N         -11.0940  -19.6330   25.1657 N.pl3   1  UNL1       -0.2454
     14 N         -10.4822  -19.2991   22.5851 N.2     1  UNL1       -0.0450
     15 H         -11.7263  -19.4422   25.8957 H       1  UNL1        0.2885
     16 H         -10.2929  -20.1786   25.3384 H       1  UNL1        0.2885
     17 C          -4.3663  -18.2895   22.7583 C.ar    1  UNL1        0.1387
     18 C          -3.2261  -19.0524   22.1519 C.ar    1  UNL1        0.0369
     19 C          -3.4685  -19.9591   20.9818 C.ar    1  UNL1        0.0031
     20 C          -4.8511  -20.1029   20.4182 C.ar    1  UNL1        0.0002
     21 C          -5.9913  -19.3400   21.0246 C.ar    1  UNL1        0.0030
     22 C          -5.7489  -18.4333   22.1947 C.ar    1  UNL1        0.0369
     23 C          -5.0310  -16.2131   24.1714 C.3     1  UNL1        0.2525
     24 O          -4.1239  -17.3828   23.9284 O.3     1  UNL1       -0.4714
@<TRIPOS>BOND
     1    23    24    1
     2    24    17    1
     3    17    18   ar
     4    18    19   ar
     5    19    20   ar
     6    20    21   ar
     7    21     1    1
     8     1     2   ar
     9     2     3   ar
    10     3     4   ar
    11     4     5   ar
    12     5     7    1
    13     7     8    1
    14     7     9    1
    15     9    10    2
    16    10    11    1
    17    10    12    1
    18    12    13    1
    19    12    14    2
    20     5     6   ar
    21    21    22   ar
    22    22    17   ar
    23     6     1   ar
    24    14     7    1
    25    13    15    1
    26    13    16    1
@<TRIPOS>MOLECULE
*****
 24 26 0 0 0
SMALL
GASTEIGER

@<TRIPOS>ATOM
      1 C          -6.7622  -19.1621   21.5956 C.ar    1  UNL1       -0.0000
      2 C          -7.1021  -20.3717   20.7762 C.ar    1  UNL1       -0.0000
      3 C          -6.0224  -21.1033   20.0352 C.ar    1  UNL1       -0.0001
      4 C          -4.6027  -20.6253   20.1137 C.ar    1  UNL1        0.0017
      5 C          -4.2628  -19.4157   20.9331 C.ar    1  UNL1        0.0437
      6 C          -5.3425  -18.6842   21.6741 C.ar    1  UNL1        0.0017
      7 C          -2.8432  -18.9377   21.0116 C.3     1  UNL1        0.2769
      8 C          -2.9715  -19.2872   22.4647 C.3     1  UNL1        0.0847
      9 N          -1.4504  -18.5328   21.3939 N.2     1  UNL1       -0.2227
     10 C          -0.7580  -18.0330   20.1607 C.2     1  UNL1        0.1396
     11 C           0.6517  -17.5262   20.0851 C.3     1  UNL1        0.0597
     12 C          -1.7229  -18.1290   19.0162 C.2     1  UNL1        0.3285
     13 N          -1.4475  -17.7350   17.5954 N.pl3   1  UNL1       -0.2454
     14 N          -3.0116  -18.6882   19.5421 N.2     1  UNL1       -0.0450
     15 H          -0.5654  -17.3756   17.3464 H       1  UNL1        0.2885
     16 H          -2.1487  -17.8359   16.9118 H       1  UNL1        0.2885
     17 C         -10.2935  -18.2958   23.1860 C.ar    1  UNL1        0.1387
     18 C         -10.0014  -16.9675   23.8184 C.ar    1  UNL1        0.0369
     19 C          -8.6295  -16.3706   23.7099 C.ar    1  UNL1        0.0031
     20 C          -7.5498  -17.1022   22.9690 C.ar    1  UNL1        0.0002
     21 C          -7.8419  -18.4305   22.3366 C.ar    1  UNL1        0.0030
     22 C          -9.2138  -19.0274   22.4450 C.ar    1  UNL1        0.0369
     23 C         -12.8629  -18.0000   23.4317 C.3     1  UNL1        0.2525
     24 O         -11.6654  -18.8927   23.2944 O.3     1  UNL1       -0.4714
@<TRIPOS>BOND
     1    23    24    1
     2    24    17    1
     3    17    18   ar
     4    18    19   ar
     5    19    20   ar
     6    20    21   ar
     7    21     1    1
     8     1     2   ar
     9     2     3   ar
    10     3     4   ar
    11     4     5   ar
    12     5     7    1
    13     7     8    1
    14     7     9    1
    15     9    10    2
    16    10    11    1
    17    10    12    1
    18    12    13    1
    19    12    14    2
    20     5     6   ar
    21    21    22   ar
    22    22    17   ar
    23     6     1   ar
    24    14     7    1
    25    13    15    1
    26    13    16    1
@<TRIPOS>MOLECULE
*****
 24 26 0 0 0
SMALL
GASTEIGER

@<TRIPOS>ATOM
      1 C          -6.7146  -19.3152   21.5803 C.ar    1  UNL1       -0.0000
      2 C          -7.0069  -20.5102   20.7221 C.ar    1  UNL1       -0.0000
      3 C          -5.8999  -21.1731   19.9572 C.ar    1  UNL1       -0.0001
      4 C          -4.5005  -20.6411   20.0506 C.ar    1  UNL1        0.0017
      5 C          -4.2082  -19.4460   20.9088 C.ar    1  UNL1        0.0437
      6 C          -5.3152  -18.7832   21.6737 C.ar    1  UNL1        0.0017
      7 C          -2.8089  -18.9139   21.0022 C.3     1  UNL1        0.2769
      8 C          -2.9544  -19.2294   22.4614 C.3     1  UNL1        0.0847
      9 N          -1.4400  -18.4478   21.4006 N.2     1  UNL1       -0.2227
     10 C          -0.7410  -17.9555   20.1680 C.2     1  UNL1        0.1396
     11 C           0.6506  -17.3990   20.1065 C.3     1  UNL1        0.0597
     12 C          -1.6780  -18.1174   19.0079 C.2     1  UNL1        0.3285
     13 N          -1.3878  -17.7512   17.5825 N.pl3   1  UNL1       -0.2454
     14 N          -2.9560  -18.7097   19.5234 N.2     1  UNL1       -0.0450
     15 H          -0.5145  -17.3661   17.3413 H       1  UNL1        0.2885
     16 H          -2.0707  -17.8960   16.8883 H       1  UNL1        0.2885
     17 C          -8.6719  -16.7029   23.8375 C.ar    1  UNL1        0.1387
     18 C         -10.0356  -17.3264   23.8751 C.ar    1  UNL1        0.0369
     19 C         -10.2923  -18.6129   23.1477 C.ar    1  UNL1        0.0031
     20 C          -9.1853  -19.2759   22.3828 C.ar    1  UNL1        0.0002
     21 C          -7.8216  -18.6523   22.3453 C.ar    1  UNL1        0.0030
     22 C          -7.5649  -17.3658   23.0726 C.ar    1  UNL1        0.0369
     23 C          -8.1196  -15.4323   26.0353 C.3     1  UNL1        0.2525
     24 O          -8.4151  -15.4164   24.5648 O.3     1  UNL1       -0.4714
@<TRIPOS>BOND
     1    23    24    1
     2    24    17    1
     3    17    18   ar
     4    18    19   ar
     5    19    20   ar
     6    20    21   ar
     7    21     1    1
     8     1     2   ar
     9     2     3   ar
    10     3     4   ar
    11     4     5   ar
    12     5     7    1
    13     7     8    1
    14     7     9    1
    15     9    10    2
    16    10    11    1
    17    10    12    1
    18    12    13    1
    19    12    14    2
    20     5     6   ar
    21    21    22   ar
    22    22    17   ar
    23     6     1   ar
    24    14     7    1
    25    13    15    1
    26    13    16    1
@<TRIPOS>MOLECULE
*****
 24 26 0 0 0
SMALL
GASTEIGER

@<TRIPOS>ATOM
      1 C          -6.6334  -19.4044   20.3840 C.ar    1  UNL1       -0.0000
      2 C          -7.0437  -20.2605   19.2226 C.ar    1  UNL1       -0.0000
      3 C          -8.4894  -20.3542   18.8337 C.ar    1  UNL1       -0.0001
      4 C          -9.5248  -19.5918   19.6062 C.ar    1  UNL1        0.0017
      5 C          -9.1145  -18.7357   20.7676 C.ar    1  UNL1        0.0437
      6 C          -7.6688  -18.6421   21.1565 C.ar    1  UNL1        0.0017
      7 C         -10.1499  -17.9734   21.5401 C.3     1  UNL1        0.2769
      8 C          -9.5413  -18.6586   22.7276 C.3     1  UNL1        0.0847
      9 N         -11.0580  -17.3543   22.5608 N.2     1  UNL1       -0.2227
     10 C         -12.0114  -16.4458   21.8427 C.2     1  UNL1        0.1396
     11 C         -13.0938  -15.6239   22.4776 C.3     1  UNL1        0.0597
     12 C         -11.6925  -16.5034   20.3781 C.2     1  UNL1        0.3285
     13 N         -12.3999  -15.7493   19.2914 N.pl3   1  UNL1       -0.2454
     14 N         -10.5420  -17.4475   20.1911 N.2     1  UNL1       -0.0450
     15 H         -13.1482  -15.1500   19.5150 H       1  UNL1        0.2885
     16 H         -12.1158  -15.8538   18.3546 H       1  UNL1        0.2885
     17 C          -2.7032  -18.9200   20.1213 C.ar    1  UNL1        0.1387
     18 C          -2.2964  -19.1233   21.5507 C.ar    1  UNL1        0.0369
     19 C          -3.3352  -19.4203   22.5912 C.ar    1  UNL1        0.0031
     20 C          -4.7809  -19.5140   22.2023 C.ar    1  UNL1        0.0002
     21 C          -5.1877  -19.3107   20.7729 C.ar    1  UNL1        0.0030
     22 C          -4.1489  -19.0137   19.7325 C.ar    1  UNL1        0.0369
     23 C          -0.3669  -17.9835   19.4776 C.3     1  UNL1        0.2525
     24 O          -1.6644  -18.6230   19.0808 O.3     1  UNL1       -0.4714
@<TRIPOS>BOND
     1    23    24    1
     2    24    17    1
     3    17    18   ar
     4    18    19   ar
     5    19    20   ar
     6    20    21   ar
     7    21     1    1
     8     1     2   ar
     9     2     3   ar
    10     3     4   ar
    11     4     5   ar
    12     5     7    1
    13     7     8    1
    14     7     9    1
    15     9    10    2
    16    10    11    1
    17    10    12    1
    18    12    13    1
    19    12    14    2
    20     5     6   ar
    21    21    22   ar
    22    22    17   ar
    23     6     1   ar
    24    14     7    1
    25    13    15    1
    26    13    16    1
@<TRIPOS>MOLECULE
*****
 24 26 0 0 0
SMALL
GASTEIGER

@<TRIPOS>ATOM
      1 C          -6.5597  -18.0714   22.6212 C.ar    1  UNL1       -0.0000
      2 C          -5.9722  -16.8254   23.2147 C.ar    1  UNL1       -0.0000
      3 C          -6.8260  -15.9176   24.0496 C.ar    1  UNL1       -0.0001
      4 C          -8.2672  -16.2558   24.2910 C.ar    1  UNL1        0.0017
      5 C          -8.8547  -17.5019   23.6975 C.ar    1  UNL1        0.0437
      6 C          -8.0010  -18.4096   22.8626 C.ar    1  UNL1        0.0017
      7 C         -10.2960  -17.8402   23.9388 C.3     1  UNL1        0.2769
      8 C          -9.7831  -18.4108   25.2278 C.3     1  UNL1        0.0847
      9 N         -11.6301  -18.2977   24.4497 N.2     1  UNL1       -0.2227
     10 C         -12.6662  -17.9392   23.4259 C.2     1  UNL1        0.1396
     11 C         -14.1377  -18.2119   23.5278 C.3     1  UNL1        0.0597
     12 C         -11.9725  -17.2601   22.2825 C.2     1  UNL1        0.3285
     13 N         -12.6285  -16.7344   21.0401 N.pl3   1  UNL1       -0.2454
     14 N         -10.5077  -17.1989   22.5994 N.2     1  UNL1       -0.0450
     15 H         -13.6020  -16.8220   20.9228 H       1  UNL1        0.2885
     16 H         -12.0855  -16.3019   20.3421 H       1  UNL1        0.2885
     17 C          -3.3608  -19.7253   20.9533 C.ar    1  UNL1        0.1387
     18 C          -3.9983  -20.7947   20.1167 C.ar    1  UNL1        0.0369
     19 C          -5.4896  -20.9564   20.1149 C.ar    1  UNL1        0.0031
     20 C          -6.3433  -20.0486   20.9497 C.ar    1  UNL1        0.0002
     21 C          -5.7059  -18.9792   21.7863 C.ar    1  UNL1        0.0030
     22 C          -4.2146  -18.8175   21.7881 C.ar    1  UNL1        0.0369
     23 C          -1.2591  -18.2322   20.6315 C.3     1  UNL1        0.2525
     24 O          -1.8696  -19.5636   20.9550 O.3     1  UNL1       -0.4714
@<TRIPOS>BOND
     1    23    24    1
     2    24    17    1
     3    17    18   ar
     4    18    19   ar
     5    19    20   ar
     6    20    21   ar
     7    21     1    1
     8     1     2   ar
     9     2     3   ar
    10     3     4   ar
    11     4     5   ar
    12     5     7    1
    13     7     8    1
    14     7     9    1
    15     9    10    2
    16    10    11    1
    17    10    12    1
    18    12    13    1
    19    12    14    2
    20     5     6   ar
    21    21    22   ar
    22    22    17   ar
    23     6     1   ar
    24    14     7    1
    25    13    15    1
    26    13    16    1
@<TRIPOS>MOLECULE
*****
 24 26 0 0 0
SMALL
GASTEIGER

@<TRIPOS>ATOM
      1 C          -9.6317  -18.8783   20.8276 C.ar    1  UNL1       -0.0000
      2 C          -9.8814  -19.6215   19.5489 C.ar    1  UNL1       -0.0000
      3 C          -8.7397  -20.2686   18.8223 C.ar    1  UNL1       -0.0001
      4 C          -7.3484  -20.1726   19.3745 C.ar    1  UNL1        0.0017
      5 C          -7.0987  -19.4293   20.6533 C.ar    1  UNL1        0.0437
      6 C          -8.2403  -18.7822   21.3799 C.ar    1  UNL1        0.0017
      7 C          -5.7074  -19.3333   21.2056 C.3     1  UNL1        0.2769
      8 C          -5.4570  -20.5467   20.3600 C.3     1  UNL1        0.0847
      9 N          -4.2637  -19.4909   21.5810 N.2     1  UNL1       -0.2227
     10 C          -3.9127  -18.3949   22.5432 C.2     1  UNL1        0.1396
     11 C          -2.5706  -18.1729   23.1752 C.3     1  UNL1        0.0597
     12 C          -5.1395  -17.5600   22.7624 C.2     1  UNL1        0.3285
     13 N          -5.2394  -16.3565   23.6521 N.pl3   1  UNL1       -0.2454
     14 N          -6.2486  -18.1399   21.9357 N.2     1  UNL1       -0.0450
     15 H          -4.4517  -16.0512   24.1575 H       1  UNL1        0.2885
     16 H          -6.0928  -15.8720   23.7307 H       1  UNL1        0.2885
     17 C         -12.3862  -18.1461   23.5893 C.ar    1  UNL1        0.1387
     18 C         -13.0565  -16.9370   23.0075 C.ar    1  UNL1        0.0369
     19 C         -12.5853  -16.3749   21.6990 C.ar    1  UNL1        0.0031
     20 C         -11.4437  -17.0220   20.9724 C.ar    1  UNL1        0.0002
     21 C         -10.7733  -18.2312   21.5542 C.ar    1  UNL1        0.0030
     22 C         -11.2446  -18.7932   22.8627 C.ar    1  UNL1        0.0369
     23 C         -14.2652  -18.4651   25.3549 C.3     1  UNL1        0.2525
     24 O         -12.8574  -18.7082   24.8978 O.3     1  UNL1       -0.4714
@<TRIPOS>BOND
     1    23    24    1
     2    24    17    1
     3    17    18   ar
     4    18    19   ar
     5    19    20   ar
     6    20    21   ar
     7    21     1    1
     8     1     2   ar
     9     2     3   ar
    10     3     4   ar
    11     4     5   ar
    12     5     7    1
    13     7     8    1
    14     7     9    1
    15     9    10    2
    16    10    11    1
    17    10    12    1
    18    12    13    1
    19    12    14    2
    20     5     6   ar
    21    21    22   ar
    22    22    17   ar
    23     6     1   ar
    24    14     7    1
    25    13    15    1
    26    13    16    1
@<TRIPOS>MOLECULE
*****
 24 26 0 0 0
SMALL
GASTEIGER

@<TRIPOS>ATOM
      1 C          -8.2848  -19.2736   21.4430 C.ar    1  UNL1       -0.0000
      2 C          -8.6968  -19.5676   20.0311 C.ar    1  UNL1       -0.0000
      3 C          -7.6609  -19.6503   18.9493 C.ar    1  UNL1       -0.0001
      4 C          -6.2131  -19.4390   19.2795 C.ar    1  UNL1        0.0017
      5 C          -5.8011  -19.1450   20.6916 C.ar    1  UNL1        0.0437
      6 C          -6.8370  -19.0623   21.7733 C.ar    1  UNL1        0.0017
      7 C          -4.3533  -18.9338   21.0219 C.3     1  UNL1        0.2769
      8 C          -4.7307  -19.5299   22.3457 C.3     1  UNL1        0.0847
      9 N          -2.9843  -18.8471   21.6290 N.2     1  UNL1       -0.2227
     10 C          -2.0635  -18.2416   20.6113 C.2     1  UNL1        0.1396
     11 C          -0.5998  -17.9711   20.7970 C.3     1  UNL1        0.0597
     12 C          -2.8634  -17.9541   19.3754 C.2     1  UNL1        0.3285
     13 N          -2.3400  -17.3456   18.1082 N.pl3   1  UNL1       -0.2454
     14 N          -4.2785  -18.3818   19.6291 N.2     1  UNL1       -0.0450
     15 H          -1.3901  -17.0966   18.0374 H       1  UNL1        0.2885
     16 H          -2.9463  -17.1951   17.3473 H       1  UNL1        0.2885
     17 C         -11.5393  -18.2000   23.4444 C.ar    1  UNL1        0.1387
     18 C         -11.3924  -19.0254   24.6883 C.ar    1  UNL1        0.0369
     19 C         -10.2095  -19.9335   24.8504 C.ar    1  UNL1        0.0031
     20 C          -9.1737  -20.0162   23.7687 C.ar    1  UNL1        0.0002
     21 C          -9.3207  -19.1909   22.5248 C.ar    1  UNL1        0.0030
     22 C         -10.5035  -18.2828   22.3627 C.ar    1  UNL1        0.0369
     23 C         -12.5785  -15.9993   22.5350 C.3     1  UNL1        0.2525
     24 O         -12.7222  -17.2919   23.2823 O.3     1  UNL1       -0.4714
@<TRIPOS>BOND
     1    23    24    1
     2    24    17    1
     3    17    18   ar
     4    18    19   ar
     5    19    20   ar
     6    20    21   ar
     7    21     1    1
     8     1     2   ar
     9     2     3   ar
    10     3     4   ar
    11     4     5   ar
    12     5     7    1
    13     7     8    1
    14     7     9    1
    15     9    10    2
    16    10    11    1
    17    10    12    1
    18    12    13    1
    19    12    14    2
    20     5     6   ar
    21    21    22   ar
    22    22    17   ar
    23     6     1   ar
    24    14     7    1
    25    13    15    1
    26    13    16    1
@<TRIPOS>MOLECULE
*****
 24 26 0 0 0
SMALL
GASTEIGER

@<TRIPOS>ATOM
      1 C          -9.0467  -19.4841   20.5750 C.ar    1  UNL1       -0.0000
      2 C          -9.1988  -20.4100   19.4048 C.ar    1  UNL1       -0.0000
      3 C          -7.9889  -21.0556   18.7970 C.ar    1  UNL1       -0.0001
      4 C          -6.6269  -20.7753   19.3595 C.ar    1  UNL1        0.0017
      5 C          -6.4749  -19.8494   20.5298 C.ar    1  UNL1        0.0437
      6 C          -7.6848  -19.2038   21.1376 C.ar    1  UNL1        0.0017
      7 C          -5.1129  -19.5690   21.0924 C.3     1  UNL1        0.2769
      8 C          -4.6932  -20.7258   20.2346 C.3     1  UNL1        0.0847
      9 N          -3.6632  -19.5306   21.4756 N.2     1  UNL1       -0.2227
     10 C          -3.4717  -18.4086   22.4527 C.2     1  UNL1        0.1396
     11 C          -2.1762  -18.0113   23.0961 C.3     1  UNL1        0.0597
     12 C          -4.8030  -17.7537   22.6733 C.2     1  UNL1        0.3285
     13 N          -5.0726  -16.5866   23.5761 N.pl3   1  UNL1       -0.2454
     14 N          -5.8173  -18.4709   21.8326 N.2     1  UNL1       -0.0450
     15 H          -4.3371  -16.1817   24.0902 H       1  UNL1        0.2885
     16 H          -5.9851  -16.2254   23.6545 H       1  UNL1        0.2885
     17 C         -12.2059  -17.1270   21.0373 C.ar    1  UNL1        0.1387
     18 C         -12.6764  -17.5473   22.3982 C.ar    1  UNL1        0.0369
     19 C         -11.9370  -18.6131   23.1514 C.ar    1  UNL1        0.0031
     20 C         -10.7271  -19.2587   22.5437 C.ar    1  UNL1        0.0002
     21 C         -10.2567  -18.8385   21.1828 C.ar    1  UNL1        0.0030
     22 C         -10.9961  -17.7727   20.4296 C.ar    1  UNL1        0.0369
     23 C         -12.3385  -15.4539   19.0542 C.3     1  UNL1        0.2525
     24 O         -12.9454  -16.0612   20.2841 O.3     1  UNL1       -0.4714
@<TRIPOS>BOND
     1    23    24    1
     2    24    17    1
     3    17    18   ar
     4    18    19   ar
     5    19    20   ar
     6    20    21   ar
     7    21     1    1
     8     1     2   ar
     9     2     3   ar
    10     3     4   ar
    11     4     5   ar
    12     5     7    1
    13     7     8    1
    14     7     9    1
    15     9    10    2
    16    10    11    1
    17    10    12    1
    18    12    13    1
    19    12    14    2
    20     5     6   ar
    21    21    22   ar
    22    22    17   ar
    23     6     1   ar
    24    14     7    1
    25    13    15    1
    26    13    16    1
