@<TRIPOS>MOLECULE
*****
 20 21 0 0 0
SMALL
GASTEIGER

@<TRIPOS>ATOM
      1 C         -11.7005   -0.5647   17.3531 C.ar    1  UNL1        0.1418
      2 C         -10.6367   -1.4230   16.7356 C.ar    1  UNL1        0.0372
      3 C         -10.3410   -2.7782   17.3069 C.ar    1  UNL1        0.0093
      4 C         -11.1093   -3.2749   18.4955 C.ar    1  UNL1        0.0731
      5 C         -12.1732   -2.4165   19.1130 C.ar    1  UNL1        0.1448
      6 C         -12.4688   -1.0614   18.5418 C.ar    1  UNL1        0.0739
      7 C         -13.3039    1.4614   17.0810 C.3     1  UNL1        0.2525
      8 O         -11.9962    0.7904   16.7819 O.3     1  UNL1       -0.4713
      9 C         -10.8137   -4.6300   19.0667 C.2     1  UNL1        0.1986
     10 O          -9.3956   -5.0364   19.3382 O.2     1  UNL1       -0.2865
     11 C         -11.9362   -5.5787   19.3665 C.2     1  UNL1        0.0422
     12 C         -12.8448   -6.0375   18.2647 C.2     1  UNL1        0.0048
     13 C         -13.9674   -6.9863   18.5645 C.ar    1  UNL1        0.0193
     14 C         -15.2287   -6.4794   19.1987 C.ar    1  UNL1        0.0031
     15 C         -16.3512   -7.4282   19.4985 C.ar    1  UNL1        0.0207
     16 C         -16.2124   -8.8838   19.1641 C.ar    1  UNL1        0.0989
     17 N         -14.9510   -9.3907   18.5300 N.ar    1  UNL1       -0.2423
     18 C         -13.8285   -8.4420   18.2302 C.ar    1  UNL1        0.0988
     19 O         -12.9415   -2.9132   20.3017 O.3     1  UNL1       -0.4712
     20 C         -14.4411   -2.9290   20.2723 C.3     1  UNL1        0.2525
@<TRIPOS>BOND
     1     7     8    1
     2     8     1    1
     3     1     2   ar
     4     2     3   ar
     5     3     4   ar
     6     4     9    1
     7     9    10    2
     8     9    11    1
     9    11    12    2
    10    12    13    1
    11    13    14   ar
    12    14    15   ar
    13    15    16   ar
    14    16    17   ar
    15    17    18   ar
    16     4     5   ar
    17     5    19    1
    18    19    20    1
    19     5     6   ar
    20     6     1   ar
    21    18    13   ar
@<TRIPOS>MOLECULE
*****
 20 21 0 0 0
SMALL
GASTEIGER

@<TRIPOS>ATOM
      1 C           6.1534   -3.7175   20.1344 C.ar    1  UNL1        0.1418
      2 C           4.6578   -3.6814   20.2432 C.ar    1  UNL1        0.0372
      3 C           3.8645   -2.7552   19.3698 C.ar    1  UNL1        0.0093
      4 C           4.5667   -1.8652   18.3876 C.ar    1  UNL1        0.0731
      5 C           6.0623   -1.9013   18.2789 C.ar    1  UNL1        0.1448
      6 C           6.8556   -2.8275   19.1523 C.ar    1  UNL1        0.0739
      7 C           8.4237   -4.4392   21.1712 C.3     1  UNL1        0.2525
      8 O           6.9467   -4.6437   21.0078 O.3     1  UNL1       -0.4713
      9 C           3.7734   -0.9390   17.5142 C.2     1  UNL1        0.1986
     10 O           3.7528   -1.1432   16.0284 O.2     1  UNL1       -0.2865
     11 C           3.0006    0.1913   18.1267 C.2     1  UNL1        0.0422
     12 C           1.5549    0.0063   18.4809 C.2     1  UNL1        0.0048
     13 C           0.7821    1.1367   19.0934 C.ar    1  UNL1        0.0193
     14 C           0.6911    2.4546   18.3830 C.ar    1  UNL1        0.0031
     15 C          -0.0817    3.5851   18.9955 C.ar    1  UNL1        0.0207
     16 C          -0.7633    3.3975   20.3184 C.ar    1  UNL1        0.0989
     17 N          -0.6722    2.0795   21.0288 N.ar    1  UNL1       -0.2423
     18 C           0.1005    0.9492   20.4163 C.ar    1  UNL1        0.0988
     19 O           6.7646   -1.0113   17.2967 O.3     1  UNL1       -0.4712
     20 C           7.3587    0.2881   17.7535 C.3     1  UNL1        0.2525
@<TRIPOS>BOND
     1     7     8    1
     2     8     1    1
     3     1     2   ar
     4     2     3   ar
     5     3     4   ar
     6     4     9    1
     7     9    10    2
     8     9    11    1
     9    11    12    2
    10    12    13    1
    11    13    14   ar
    12    14    15   ar
    13    15    16   ar
    14    16    17   ar
    15    17    18   ar
    16     4     5   ar
    17     5    19    1
    18    19    20    1
    19     5     6   ar
    20     6     1   ar
    21    18    13   ar
@<TRIPOS>MOLECULE
*****
 20 21 0 0 0
SMALL
GASTEIGER

@<TRIPOS>ATOM
      1 C           2.3666    0.7939   18.5738 C.ar    1  UNL1        0.1418
      2 C           1.6657    0.0730   19.6869 C.ar    1  UNL1        0.0372
      3 C           2.1193   -1.2970   20.0959 C.ar    1  UNL1        0.0093
      4 C           3.2738   -1.9461   19.3919 C.ar    1  UNL1        0.0731
      5 C           3.9747   -1.2253   18.2788 C.ar    1  UNL1        0.1448
      6 C           3.5211    0.1447   17.8697 C.ar    1  UNL1        0.0739
      7 C           0.5031    2.5988   18.4344 C.3     1  UNL1        0.2525
      8 O           1.9130    2.1639   18.1647 O.3     1  UNL1       -0.4713
      9 C           3.7273   -3.3162   19.8010 C.2     1  UNL1        0.1986
     10 O           3.3580   -4.5081   18.9687 O.2     1  UNL1       -0.2865
     11 C           4.5503   -3.4942   21.0424 C.2     1  UNL1        0.0422
     12 C           4.2253   -2.7067   22.2770 C.2     1  UNL1        0.0048
     13 C           5.0483   -2.8848   23.5184 C.ar    1  UNL1        0.0193
     14 C           6.0994   -3.9534   23.5745 C.ar    1  UNL1        0.0031
     15 C           6.9224   -4.1315   24.8159 C.ar    1  UNL1        0.0207
     16 C           6.6943   -3.2409   26.0012 C.ar    1  UNL1        0.0989
     17 N           5.6431   -2.1723   25.9450 N.ar    1  UNL1       -0.2423
     18 C           4.8202   -1.9942   24.7037 C.ar    1  UNL1        0.0988
     19 O           5.1292   -1.8745   17.5747 O.3     1  UNL1       -0.4712
     20 C           6.5332   -1.5991   18.0252 C.3     1  UNL1        0.2525
@<TRIPOS>BOND
     1     7     8    1
     2     8     1    1
     3     1     2   ar
     4     2     3   ar
     5     3     4   ar
     6     4     9    1
     7     9    10    2
     8     9    11    1
     9    11    12    2
    10    12    13    1
    11    13    14   ar
    12    14    15   ar
    13    15    16   ar
    14    16    17   ar
    15    17    18   ar
    16     4     5   ar
    17     5    19    1
    18    19    20    1
    19     5     6   ar
    20     6     1   ar
    21    18    13   ar
@<TRIPOS>MOLECULE
*****
 20 21 0 0 0
SMALL
GASTEIGER

@<TRIPOS>ATOM
      1 C         -11.0883   -4.1404   18.4699 C.ar    1  UNL1        0.1418
      2 C         -11.4982   -5.4417   19.0933 C.ar    1  UNL1        0.0372
      3 C         -12.9285   -5.6683   19.4845 C.ar    1  UNL1        0.0093
      4 C         -13.9488   -4.5936   19.2523 C.ar    1  UNL1        0.0731
      5 C         -13.5389   -3.2924   18.6289 C.ar    1  UNL1        0.1448
      6 C         -12.1087   -3.0658   18.2377 C.ar    1  UNL1        0.0739
      7 C          -9.1450   -4.4431   16.7724 C.3     1  UNL1        0.2525
      8 O          -9.6581   -3.9138   18.0787 O.3     1  UNL1       -0.4713
      9 C         -15.3791   -4.8202   19.6436 C.2     1  UNL1        0.1986
     10 O         -16.0072   -3.9754   20.7120 O.2     1  UNL1       -0.2865
     11 C         -16.1811   -5.8917   18.9663 C.2     1  UNL1        0.0422
     12 C         -16.3494   -7.2302   19.6221 C.2     1  UNL1        0.0048
     13 C         -17.1515   -8.3016   18.9448 C.ar    1  UNL1        0.0193
     14 C         -16.7203   -9.7351   19.0406 C.ar    1  UNL1        0.0031
     15 C         -17.5224  -10.8065   18.3633 C.ar    1  UNL1        0.0207
     16 C         -18.7558  -10.4444   17.5902 C.ar    1  UNL1        0.0989
     17 N         -19.1870   -9.0109   17.4944 N.ar    1  UNL1       -0.2423
     18 C         -18.3849   -7.9396   18.1717 C.ar    1  UNL1        0.0988
     19 O         -14.5593   -2.2177   18.3967 O.3     1  UNL1       -0.4712
     20 C         -14.1876   -0.7769   18.5863 C.3     1  UNL1        0.2525
@<TRIPOS>BOND
     1     7     8    1
     2     8     1    1
     3     1     2   ar
     4     2     3   ar
     5     3     4   ar
     6     4     9    1
     7     9    10    2
     8     9    11    1
     9    11    12    2
    10    12    13    1
    11    13    14   ar
    12    14    15   ar
    13    15    16   ar
    14    16    17   ar
    15    17    18   ar
    16     4     5   ar
    17     5    19    1
    18    19    20    1
    19     5     6   ar
    20     6     1   ar
    21    18    13   ar
@<TRIPOS>MOLECULE
*****
 20 21 0 0 0
SMALL
GASTEIGER

@<TRIPOS>ATOM
      1 C           5.4257   -0.6782   17.6009 C.ar    1  UNL1        0.1418
      2 C           6.4522   -1.7083   17.9685 C.ar    1  UNL1        0.0372
      3 C           6.1109   -2.7904   18.9496 C.ar    1  UNL1        0.0093
      4 C           4.7431   -2.8424   19.5631 C.ar    1  UNL1        0.0731
      5 C           3.7166   -1.8123   19.1955 C.ar    1  UNL1        0.1448
      6 C           4.0579   -0.7302   18.2143 C.ar    1  UNL1        0.0739
      7 C           7.1403    1.0072   16.6162 C.3     1  UNL1        0.2525
      8 O           5.7670    0.4039   16.6197 O.3     1  UNL1       -0.4713
      9 C           4.4018   -3.9245   20.5442 C.2     1  UNL1        0.1986
     10 O           3.7521   -5.1901   20.0690 O.2     1  UNL1       -0.2865
     11 C           4.7102   -3.7409   22.0006 C.2     1  UNL1        0.0422
     12 C           4.4130   -2.4323   22.6711 C.2     1  UNL1        0.0048
     13 C           4.7214   -2.2488   24.1275 C.ar    1  UNL1        0.0193
     14 C           3.8242   -1.4049   24.9836 C.ar    1  UNL1        0.0031
     15 C           4.1326   -1.2214   26.4401 C.ar    1  UNL1        0.0207
     16 C           5.3383   -1.8817   27.0404 C.ar    1  UNL1        0.0989
     17 N           6.2355   -2.7256   26.1843 N.ar    1  UNL1       -0.2423
     18 C           5.9271   -2.9091   24.7279 C.ar    1  UNL1        0.0988
     19 O           2.3487   -1.8643   19.8090 O.3     1  UNL1       -0.4712
     20 C           1.7959   -0.6602   20.5122 C.3     1  UNL1        0.2525
@<TRIPOS>BOND
     1     7     8    1
     2     8     1    1
     3     1     2   ar
     4     2     3   ar
     5     3     4   ar
     6     4     9    1
     7     9    10    2
     8     9    11    1
     9    11    12    2
    10    12    13    1
    11    13    14   ar
    12    14    15   ar
    13    15    16   ar
    14    16    17   ar
    15    17    18   ar
    16     4     5   ar
    17     5    19    1
    18    19    20    1
    19     5     6   ar
    20     6     1   ar
    21    18    13   ar
@<TRIPOS>MOLECULE
*****
 20 21 0 0 0
SMALL
GASTEIGER

@<TRIPOS>ATOM
      1 C         -10.5327   -5.0029   18.9905 C.ar    1  UNL1        0.1418
      2 C         -10.0938   -3.6411   18.5402 C.ar    1  UNL1        0.0372
      3 C         -11.1149   -2.6200   18.1346 C.ar    1  UNL1        0.0093
      4 C         -12.5750   -2.9607   18.1793 C.ar    1  UNL1        0.0731
      5 C         -13.0139   -4.3225   18.6297 C.ar    1  UNL1        0.1448
      6 C         -11.9928   -5.3436   19.0353 C.ar    1  UNL1        0.0739
      7 C          -9.6071   -7.4278   18.8765 C.3     1  UNL1        0.2525
      8 O          -9.5115   -6.0240   19.3962 O.3     1  UNL1       -0.4713
      9 C         -13.5962   -1.9396   17.7737 C.2     1  UNL1        0.1986
     10 O         -13.8957   -1.7142   16.3213 O.2     1  UNL1       -0.2865
     11 C         -14.3179   -1.1438   18.8205 C.2     1  UNL1        0.0422
     12 C         -15.0298    0.1213   18.4427 C.2     1  UNL1        0.0048
     13 C         -15.7516    0.9171   19.4895 C.ar    1  UNL1        0.0193
     14 C         -15.5622    2.4032   19.5651 C.ar    1  UNL1        0.0031
     15 C         -16.2839    3.1990   20.6120 C.ar    1  UNL1        0.0207
     16 C         -17.1950    2.5087   21.5833 C.ar    1  UNL1        0.0989
     17 N         -17.3843    1.0225   21.5076 N.ar    1  UNL1       -0.2423
     18 C         -16.6627    0.2268   20.4608 C.ar    1  UNL1        0.0988
     19 O         -14.4741   -4.6632   18.6744 O.3     1  UNL1       -0.4712
     20 C         -15.2036   -4.6666   19.9850 C.3     1  UNL1        0.2525
@<TRIPOS>BOND
     1     7     8    1
     2     8     1    1
     3     1     2   ar
     4     2     3   ar
     5     3     4   ar
     6     4     9    1
     7     9    10    2
     8     9    11    1
     9    11    12    2
    10    12    13    1
    11    13    14   ar
    12    14    15   ar
    13    15    16   ar
    14    16    17   ar
    15    17    18   ar
    16     4     5   ar
    17     5    19    1
    18    19    20    1
    19     5     6   ar
    20     6     1   ar
    21    18    13   ar
@<TRIPOS>MOLECULE
*****
 20 21 0 0 0
SMALL
GASTEIGER

@<TRIPOS>ATOM
      1 C           2.3369   -1.2566   20.6008 C.ar    1  UNL1        0.1418
      2 C           2.8091   -0.9242   21.9851 C.ar    1  UNL1        0.0372
      3 C           4.1885   -1.3195   22.4222 C.ar    1  UNL1        0.0093
      4 C           5.0957   -2.0472   21.4749 C.ar    1  UNL1        0.0731
      5 C           4.6235   -2.3796   20.0906 C.ar    1  UNL1        0.1448
      6 C           3.2441   -1.9843   19.6535 C.ar    1  UNL1        0.0739
      7 C           0.5917    0.5894   20.0566 C.3     1  UNL1        0.2525
      8 O           0.9576   -0.8613   20.1637 O.3     1  UNL1       -0.4713
      9 C           6.4751   -2.4425   21.9120 C.2     1  UNL1        0.1986
     10 O           7.6290   -1.5109   21.6870 O.2     1  UNL1       -0.2865
     11 C           6.7006   -3.7694   22.5741 C.2     1  UNL1        0.0422
     12 C           7.1095   -3.8282   24.0161 C.2     1  UNL1        0.0048
     13 C           7.3350   -5.1552   24.6782 C.ar    1  UNL1        0.0193
     14 C           8.0706   -6.2411   23.9505 C.ar    1  UNL1        0.0031
     15 C           8.2961   -7.5681   24.6126 C.ar    1  UNL1        0.0207
     16 C           7.7860   -7.8091   26.0025 C.ar    1  UNL1        0.0989
     17 N           7.0503   -6.7231   26.7302 N.ar    1  UNL1       -0.2423
     18 C           6.8248   -5.3962   26.0681 C.ar    1  UNL1        0.0988
     19 O           5.5307   -3.1074   19.1432 O.3     1  UNL1       -0.4712
     20 C           6.3283   -2.3406   18.1304 C.3     1  UNL1        0.2525
@<TRIPOS>BOND
     1     7     8    1
     2     8     1    1
     3     1     2   ar
     4     2     3   ar
     5     3     4   ar
     6     4     9    1
     7     9    10    2
     8     9    11    1
     9    11    12    2
    10    12    13    1
    11    13    14   ar
    12    14    15   ar
    13    15    16   ar
    14    16    17   ar
    15    17    18   ar
    16     4     5   ar
    17     5    19    1
    18    19    20    1
    19     5     6   ar
    20     6     1   ar
    21    18    13   ar
@<TRIPOS>MOLECULE
*****
 20 21 0 0 0
SMALL
GASTEIGER

@<TRIPOS>ATOM
      1 C           5.4707   -3.0533   22.9286 C.ar    1  UNL1        0.1418
      2 C           5.8582   -1.6490   22.5711 C.ar    1  UNL1        0.0372
      3 C           5.5016   -1.0923   21.2247 C.ar    1  UNL1        0.0093
      4 C           4.7574   -1.9398   20.2358 C.ar    1  UNL1        0.0731
      5 C           4.3699   -3.3440   20.5933 C.ar    1  UNL1        0.1448
      6 C           4.7265   -3.9007   21.9398 C.ar    1  UNL1        0.0739
      7 C           7.0938   -4.3943   24.4509 C.3     1  UNL1        0.2525
      8 O           5.8273   -3.6100   24.2751 O.3     1  UNL1       -0.4713
      9 C           4.4008   -1.3830   18.8894 C.2     1  UNL1        0.1986
     10 O           5.0807   -1.9043   17.6582 O.2     1  UNL1       -0.2865
     11 C           3.3642   -0.3050   18.7741 C.2     1  UNL1        0.0422
     12 C           2.2481   -0.2278   19.7732 C.2     1  UNL1        0.0048
     13 C           1.2115    0.8503   19.6580 C.ar    1  UNL1        0.0193
     14 C           1.1784    1.7323   18.4452 C.ar    1  UNL1        0.0031
     15 C           0.1418    2.8105   18.3299 C.ar    1  UNL1        0.0207
     16 C          -0.8616    3.0065   19.4275 C.ar    1  UNL1        0.0989
     17 N          -0.8285    2.1244   20.6403 N.ar    1  UNL1       -0.2423
     18 C           0.2080    1.0463   20.7556 C.ar    1  UNL1        0.0988
     19 O           3.6257   -4.1916   19.6044 O.3     1  UNL1       -0.4712
     20 C           4.3602   -5.2173   18.7932 C.3     1  UNL1        0.2525
@<TRIPOS>BOND
     1     7     8    1
     2     8     1    1
     3     1     2   ar
     4     2     3   ar
     5     3     4   ar
     6     4     9    1
     7     9    10    2
     8     9    11    1
     9    11    12    2
    10    12    13    1
    11    13    14   ar
    12    14    15   ar
    13    15    16   ar
    14    16    17   ar
    15    17    18   ar
    16     4     5   ar
    17     5    19    1
    18    19    20    1
    19     5     6   ar
    20     6     1   ar
    21    18    13   ar
@<TRIPOS>MOLECULE
*****
 20 21 0 0 0
SMALL
GASTEIGER

@<TRIPOS>ATOM
      1 C           1.4702    3.1330   18.7359 C.ar    1  UNL1        0.1418
      2 C           0.6813    1.8681   18.5698 C.ar    1  UNL1        0.0372
      3 C           1.3814    0.5875   18.2234 C.ar    1  UNL1        0.0093
      4 C           2.8704    0.5718   18.0430 C.ar    1  UNL1        0.0731
      5 C           3.6593    1.8367   18.2091 C.ar    1  UNL1        0.1448
      6 C           2.9592    3.1173   18.5555 C.ar    1  UNL1        0.0739
      7 C          -0.7281    4.4576   19.1394 C.3     1  UNL1        0.2525
      8 O           0.7702    4.4135   19.0824 O.3     1  UNL1       -0.4713
      9 C           3.5704   -0.7087   17.6965 C.2     1  UNL1        0.1986
     10 O           3.8703   -1.0356   16.2636 O.2     1  UNL1       -0.2865
     11 C           3.9706   -1.6625   18.7829 C.2     1  UNL1        0.0422
     12 C           4.6166   -1.1457   20.0341 C.2     1  UNL1        0.0048
     13 C           5.0168   -2.0995   21.1205 C.ar    1  UNL1        0.0193
     14 C           4.4353   -1.9565   22.4958 C.ar    1  UNL1        0.0031
     15 C           4.8355   -2.9103   23.5822 C.ar    1  UNL1        0.0207
     16 C           5.8171   -4.0071   23.2933 C.ar    1  UNL1        0.0989
     17 N           6.3985   -4.1500   21.9179 N.ar    1  UNL1       -0.2423
     18 C           5.9984   -3.1963   20.8316 C.ar    1  UNL1        0.0988
     19 O           5.1484    1.8210   18.0287 O.3     1  UNL1       -0.4712
     20 C           5.8252    2.9326   17.2828 C.3     1  UNL1        0.2525
@<TRIPOS>BOND
     1     7     8    1
     2     8     1    1
     3     1     2   ar
     4     2     3   ar
     5     3     4   ar
     6     4     9    1
     7     9    10    2
     8     9    11    1
     9    11    12    2
    10    12    13    1
    11    13    14   ar
    12    14    15   ar
    13    15    16   ar
    14    16    17   ar
    15    17    18   ar
    16     4     5   ar
    17     5    19    1
    18    19    20    1
    19     5     6   ar
    20     6     1   ar
    21    18    13   ar
