@<TRIPOS>MOLECULE
*****
 20 21 0 0 0
SMALL
GASTEIGER

@<TRIPOS>ATOM
      1 C          -7.6362  -17.0369   23.1042 C.3     1  UNL1        0.1508
      2 C          -9.1098  -17.2918   23.2218 C.ar    1  UNL1        0.0026
      3 C          -9.6287  -18.2154   24.2837 C.ar    1  UNL1       -0.0014
      4 C         -11.1022  -18.4703   24.4012 C.ar    1  UNL1        0.0120
      5 C         -12.0567  -17.8016   23.4569 C.ar    1  UNL1        0.0682
      6 CL        -13.5303  -18.0565   23.5746 Cl      1  UNL1       -0.0814
      7 C         -11.5378  -16.8780   22.3951 C.ar    1  UNL1        0.0679
      8 CL        -12.4923  -16.2093   21.4508 Cl      1  UNL1       -0.0814
      9 C         -10.0643  -16.6231   22.2775 C.ar    1  UNL1        0.0099
     10 N          -6.8167  -17.8157   22.1184 N.ar    1  UNL1       -0.1490
     11 N          -7.2176  -18.1582   20.7141 N.ar    1  UNL1       -0.0452
     12 N          -6.1011  -18.9429   20.0916 N.ar    1  UNL1       -0.1123
     13 C          -5.0101  -19.0854   21.1111 C.ar    1  UNL1        0.1838
     14 C          -3.7058  -19.7992   20.9129 C.3     1  UNL1        0.0776
     15 N          -5.4524  -18.3887   22.3637 N.ar    1  UNL1       -0.1340
     16 C          -6.9823  -16.0031   23.9723 C.3     1  UNL1        0.0479
     17 C          -7.8228  -15.0979   24.8234 C.3     1  UNL1        0.0710
     18 C          -8.1814  -16.1914   27.1526 C.3     1  UNL1        0.0859
     19 N          -7.6328  -15.0774   26.3111 N.3     1  UNL1       -0.2962
     20 H          -6.6272  -15.0492   26.4792 H       1  UNL1        0.1233
@<TRIPOS>BOND
     1    18    19    1
     2    19    17    1
     3    17    16    1
     4     1    16    1
     5     1     2    1
     6     2     3   ar
     7     3     4   ar
     8     4     5   ar
     9     5     6    1
    10     5     7   ar
    11     7     8    1
    12     7     9   ar
    13     1    10    1
    14    10    11   ar
    15    11    12   ar
    16    12    13   ar
    17    13    14    1
    18    13    15   ar
    19     9     2   ar
    20    15    10   ar
    21    19    20    1
@<TRIPOS>MOLECULE
*****
 20 21 0 0 0
SMALL
GASTEIGER

@<TRIPOS>ATOM
      1 C          -8.7468  -19.0647   21.9219 C.3     1  UNL1        0.1508
      2 C          -7.2778  -19.2765   21.7047 C.ar    1  UNL1        0.0026
      3 C          -6.8053  -20.2064   20.6268 C.ar    1  UNL1       -0.0014
      4 C          -5.3364  -20.4182   20.4097 C.ar    1  UNL1        0.0120
      5 C          -4.3398  -19.6999   21.2705 C.ar    1  UNL1        0.0682
      6 CL         -2.8707  -19.9117   21.0534 Cl      1  UNL1       -0.0814
      7 C          -4.8122  -18.7700   22.3484 C.ar    1  UNL1        0.0679
      8 CL         -3.8157  -18.0518   23.2093 Cl      1  UNL1       -0.0814
      9 C          -6.2812  -18.5583   22.5655 C.ar    1  UNL1        0.0099
     10 N          -9.4106  -17.8239   21.4024 N.ar    1  UNL1       -0.1490
     11 N          -8.9434  -16.4158   21.6231 N.ar    1  UNL1       -0.0452
     12 N          -9.9021  -15.4949   20.9281 N.ar    1  UNL1       -0.1123
     13 C         -10.9618  -16.3341   20.2779 C.ar    1  UNL1        0.1838
     14 C         -12.1217  -15.8235   19.4754 C.3     1  UNL1        0.0776
     15 N         -10.6581  -17.7734   20.5710 N.ar    1  UNL1       -0.1340
     16 C          -9.5521  -20.0938   22.6585 C.3     1  UNL1        0.0479
     17 C          -9.4411  -20.2062   24.1502 C.3     1  UNL1        0.0710
     18 C         -11.5796  -18.7746   24.5064 C.3     1  UNL1        0.0859
     19 N         -10.5795  -19.7663   25.0222 N.3     1  UNL1       -0.2962
     20 H         -11.1004  -20.6068   25.2726 H       1  UNL1        0.1233
@<TRIPOS>BOND
     1    18    19    1
     2    19    17    1
     3    17    16    1
     4     1    16    1
     5     1     2    1
     6     2     3   ar
     7     3     4   ar
     8     4     5   ar
     9     5     6    1
    10     5     7   ar
    11     7     8    1
    12     7     9   ar
    13     1    10    1
    14    10    11   ar
    15    11    12   ar
    16    12    13   ar
    17    13    14    1
    18    13    15   ar
    19     9     2   ar
    20    15    10   ar
    21    19    20    1
@<TRIPOS>MOLECULE
*****
 20 21 0 0 0
SMALL
GASTEIGER

@<TRIPOS>ATOM
      1 C          -7.8354  -18.5060   22.3995 C.3     1  UNL1        0.1508
      2 C          -9.2920  -18.3543   22.7239 C.ar    1  UNL1        0.0026
      3 C          -9.8565  -18.9952   23.9570 C.ar    1  UNL1       -0.0014
      4 C         -11.3131  -18.8435   24.2814 C.ar    1  UNL1        0.0120
      5 C         -12.2052  -18.0508   23.3727 C.ar    1  UNL1        0.0682
      6 CL        -13.6619  -17.8991   23.6971 Cl      1  UNL1       -0.0814
      7 C         -11.6408  -17.4099   22.1396 C.ar    1  UNL1        0.0679
      8 CL        -12.5329  -16.6172   21.2309 Cl      1  UNL1       -0.0814
      9 C         -10.1842  -17.5616   21.8152 C.ar    1  UNL1        0.0099
     10 N          -6.8286  -17.5838   23.0208 N.ar    1  UNL1       -0.1490
     11 N          -5.3804  -17.4775   22.6449 N.ar    1  UNL1       -0.0452
     12 N          -4.7500  -16.4340   23.5188 N.ar    1  UNL1       -0.1123
     13 C          -5.8087  -15.8953   24.4348 C.ar    1  UNL1        0.1838
     14 C          -5.6166  -14.8326   25.4758 C.3     1  UNL1        0.0776
     15 N          -7.0933  -16.6059   24.1270 N.ar    1  UNL1       -0.1340
     16 C          -7.3855  -19.5799   21.4538 C.3     1  UNL1        0.0479
     17 C          -7.0846  -19.2421   20.0236 C.3     1  UNL1        0.0710
     18 C          -4.4972  -19.2181   19.7911 C.3     1  UNL1        0.0859
     19 N          -5.8185  -18.5177   19.6745 N.3     1  UNL1       -0.2962
     20 H          -5.9085  -18.2186   18.7035 H       1  UNL1        0.1233
@<TRIPOS>BOND
     1    18    19    1
     2    19    17    1
     3    17    16    1
     4     1    16    1
     5     1     2    1
     6     2     3   ar
     7     3     4   ar
     8     4     5   ar
     9     5     6    1
    10     5     7   ar
    11     7     8    1
    12     7     9   ar
    13     1    10    1
    14    10    11   ar
    15    11    12   ar
    16    12    13   ar
    17    13    14    1
    18    13    15   ar
    19     9     2   ar
    20    15    10   ar
    21    19    20    1
@<TRIPOS>MOLECULE
*****
 20 21 0 0 0
SMALL
GASTEIGER

@<TRIPOS>ATOM
      1 C          -9.2321  -17.3989   22.6568 C.3     1  UNL1        0.1508
      2 C          -8.3912  -16.7336   23.7058 C.ar    1  UNL1        0.0026
      3 C          -7.1039  -16.0657   23.3227 C.ar    1  UNL1       -0.0014
      4 C          -6.2630  -15.4004   24.3716 C.ar    1  UNL1        0.0120
      5 C          -6.7095  -15.4030   25.8037 C.ar    1  UNL1        0.0682
      6 CL         -5.8685  -14.7377   26.8526 Cl      1  UNL1       -0.0814
      7 C          -7.9967  -16.0709   26.1867 C.ar    1  UNL1        0.0679
      8 CL         -8.4432  -16.0735   27.6188 Cl      1  UNL1       -0.0814
      9 C          -8.8376  -16.7362   25.1378 C.ar    1  UNL1        0.0099
     10 N          -8.5873  -18.2709   21.6205 N.ar    1  UNL1       -0.1490
     11 N          -9.0182  -18.4062   20.1901 N.ar    1  UNL1       -0.0452
     12 N          -8.0957  -19.3796   19.5182 N.ar    1  UNL1       -0.1123
     13 C          -7.0946  -19.8459   20.5334 C.ar    1  UNL1        0.1838
     14 C          -5.9846  -20.8254   20.2917 C.3     1  UNL1        0.0776
     15 N          -7.3985  -19.1607   21.8326 N.ar    1  UNL1       -0.1340
     16 C         -10.7177  -17.1922   22.6442 C.3     1  UNL1        0.0479
     17 C         -11.3159  -16.1001   21.8078 C.3     1  UNL1        0.0710
     18 C         -11.5695  -15.6993   19.2535 C.3     1  UNL1        0.0859
     19 N         -10.7088  -15.7537   20.4807 N.3     1  UNL1       -0.2962
     20 H         -10.2833  -14.8323   20.5830 H       1  UNL1        0.1233
@<TRIPOS>BOND
     1    18    19    1
     2    19    17    1
     3    17    16    1
     4     1    16    1
     5     1     2    1
     6     2     3   ar
     7     3     4   ar
     8     4     5   ar
     9     5     6    1
    10     5     7   ar
    11     7     8    1
    12     7     9   ar
    13     1    10    1
    14    10    11   ar
    15    11    12   ar
    16    12    13   ar
    17    13    14    1
    18    13    15   ar
    19     9     2   ar
    20    15    10   ar
    21    19    20    1
@<TRIPOS>MOLECULE
*****
 20 21 0 0 0
SMALL
GASTEIGER

@<TRIPOS>ATOM
      1 C          -7.1051  -16.3073   23.5595 C.3     1  UNL1        0.1508
      2 C          -8.5254  -16.6445   23.2142 C.ar    1  UNL1        0.0026
      3 C          -9.1550  -16.0665   21.9816 C.ar    1  UNL1       -0.0014
      4 C         -10.5753  -16.4037   21.6364 C.ar    1  UNL1        0.0120
      5 C         -11.3658  -17.3189   22.5238 C.ar    1  UNL1        0.0682
      6 CL        -12.7861  -17.6561   22.1785 Cl      1  UNL1       -0.0814
      7 C         -10.7361  -17.8969   23.7564 C.ar    1  UNL1        0.0679
      8 CL        -11.5267  -18.8121   24.6438 Cl      1  UNL1       -0.0814
      9 C          -9.3159  -17.5597   24.1016 C.ar    1  UNL1        0.0099
     10 N          -5.9846  -17.1590   23.0407 N.ar    1  UNL1       -0.1490
     11 N          -6.1315  -18.3963   22.2055 N.ar    1  UNL1       -0.0452
     12 N          -4.7583  -18.9250   21.9146 N.ar    1  UNL1       -0.1123
     13 C          -3.7626  -18.0145   22.5700 C.ar    1  UNL1        0.1838
     14 C          -2.2709  -18.1683   22.5355 C.3     1  UNL1        0.0776
     15 N          -4.5206  -16.9230   23.2659 N.ar    1  UNL1       -0.1340
     16 C          -6.8053  -15.1184   24.4236 C.3     1  UNL1        0.0479
     17 C          -6.4571  -15.3111   25.8699 C.3     1  UNL1        0.0710
     18 C          -8.2944  -16.2413   27.4537 C.3     1  UNL1        0.0859
     19 N          -7.4961  -15.0854   26.9279 N.3     1  UNL1       -0.2962
     20 H          -7.0171  -14.6705   27.7272 H       1  UNL1        0.1233
@<TRIPOS>BOND
     1    18    19    1
     2    19    17    1
     3    17    16    1
     4     1    16    1
     5     1     2    1
     6     2     3   ar
     7     3     4   ar
     8     4     5   ar
     9     5     6    1
    10     5     7   ar
    11     7     8    1
    12     7     9   ar
    13     1    10    1
    14    10    11   ar
    15    11    12   ar
    16    12    13   ar
    17    13    14    1
    18    13    15   ar
    19     9     2   ar
    20    15    10   ar
    21    19    20    1
@<TRIPOS>MOLECULE
*****
 20 21 0 0 0
SMALL
GASTEIGER

@<TRIPOS>ATOM
      1 C          -8.8913  -18.0030   22.6136 C.3     1  UNL1        0.1508
      2 C          -7.6759  -18.6301   21.9973 C.ar    1  UNL1        0.0026
      3 C          -7.8144  -19.4977   20.7815 C.ar    1  UNL1       -0.0014
      4 C          -6.5991  -20.1247   20.1653 C.ar    1  UNL1        0.0120
      5 C          -5.2453  -19.8841   20.7648 C.ar    1  UNL1        0.0682
      6 CL         -4.0299  -20.5112   20.1485 Cl      1  UNL1       -0.0814
      7 C          -5.1068  -19.0165   21.9805 C.ar    1  UNL1        0.0679
      8 CL         -3.7530  -18.7759   22.5800 Cl      1  UNL1       -0.0814
      9 C          -6.3221  -18.3895   22.5968 C.ar    1  UNL1        0.0099
     10 N         -10.0632  -17.6343   21.7529 N.ar    1  UNL1       -0.1490
     11 N         -11.4014  -18.3118   21.7481 N.ar    1  UNL1       -0.0452
     12 N         -12.2679  -17.6196   20.7381 N.ar    1  UNL1       -0.1123
     13 C         -11.4651  -16.5142   20.1187 C.ar    1  UNL1        0.1838
     14 C         -11.9413  -15.5662   19.0583 C.3     1  UNL1        0.0776
     15 N         -10.1026  -16.5233   20.7459 N.ar    1  UNL1       -0.1340
     16 C          -8.9347  -17.7447   24.0905 C.3     1  UNL1        0.0479
     17 C          -9.0922  -16.3435   24.6025 C.3     1  UNL1        0.0710
     18 C          -6.8593  -15.0596   24.2628 C.3     1  UNL1        0.0859
     19 N          -8.3214  -15.2229   23.9702 N.3     1  UNL1       -0.2962
     20 H          -8.4085  -15.3386   22.9605 H       1  UNL1        0.1233
@<TRIPOS>BOND
     1    18    19    1
     2    19    17    1
     3    17    16    1
     4     1    16    1
     5     1     2    1
     6     2     3   ar
     7     3     4   ar
     8     4     5   ar
     9     5     6    1
    10     5     7   ar
    11     7     8    1
    12     7     9   ar
    13     1    10    1
    14    10    11   ar
    15    11    12   ar
    16    12    13   ar
    17    13    14    1
    18    13    15   ar
    19     9     2   ar
    20    15    10   ar
    21    19    20    1
@<TRIPOS>MOLECULE
*****
 20 21 0 0 0
SMALL
GASTEIGER

@<TRIPOS>ATOM
      1 C          -9.5412  -17.2096   22.7128 C.3     1  UNL1        0.1508
      2 C          -9.3823  -18.1273   21.5369 C.ar    1  UNL1        0.0026
      3 C         -10.5195  -18.3220   20.5785 C.ar    1  UNL1       -0.0014
      4 C         -10.3606  -19.2397   19.4026 C.ar    1  UNL1        0.0120
      5 C          -9.0643  -19.9625   19.1853 C.ar    1  UNL1        0.0682
      6 CL         -8.9054  -20.8802   18.0094 Cl      1  UNL1       -0.0814
      7 C          -7.9271  -19.7678   20.1437 C.ar    1  UNL1        0.0679
      8 CL         -6.6309  -20.4907   19.9263 Cl      1  UNL1       -0.0814
      9 C          -8.0860  -18.8501   21.3195 C.ar    1  UNL1        0.0099
     10 N          -8.3568  -16.4561   23.2416 N.ar    1  UNL1       -0.1490
     11 N          -7.4136  -15.6158   22.4327 N.ar    1  UNL1       -0.0452
     12 N          -6.3816  -15.0510   23.3632 N.ar    1  UNL1       -0.1123
     13 C          -6.6870  -15.5421   24.7472 C.ar    1  UNL1        0.1838
     14 C          -5.9084  -15.2212   25.9885 C.3     1  UNL1        0.0776
     15 N          -7.9078  -16.4105   24.6720 N.ar    1  UNL1       -0.1340
     16 C         -10.8844  -17.0454   23.3599 C.3     1  UNL1        0.0479
     17 C         -11.5349  -18.2113   24.0439 C.3     1  UNL1        0.0710
     18 C         -10.0161  -20.2198   24.6828 C.3     1  UNL1        0.0859
     19 N         -10.7792  -18.9908   25.0789 N.3     1  UNL1       -0.2962
     20 H         -10.1065  -18.3487   25.4979 H       1  UNL1        0.1233
@<TRIPOS>BOND
     1    18    19    1
     2    19    17    1
     3    17    16    1
     4     1    16    1
     5     1     2    1
     6     2     3   ar
     7     3     4   ar
     8     4     5   ar
     9     5     6    1
    10     5     7   ar
    11     7     8    1
    12     7     9   ar
    13     1    10    1
    14    10    11   ar
    15    11    12   ar
    16    12    13   ar
    17    13    14    1
    18    13    15   ar
    19     9     2   ar
    20    15    10   ar
    21    19    20    1
@<TRIPOS>MOLECULE
*****
 20 21 0 0 0
SMALL
GASTEIGER

@<TRIPOS>ATOM
      1 C          -9.4342  -18.1551   22.8108 C.3     1  UNL1        0.1508
      2 C          -8.4994  -17.2916   23.6049 C.ar    1  UNL1        0.0026
      3 C          -7.1374  -16.9680   23.0663 C.ar    1  UNL1       -0.0014
      4 C          -6.2026  -16.1045   23.8604 C.ar    1  UNL1        0.0120
      5 C          -6.6299  -15.5646   25.1931 C.ar    1  UNL1        0.0682
      6 CL         -5.6951  -14.7011   25.9872 Cl      1  UNL1       -0.0814
      7 C          -7.9919  -15.8883   25.7317 C.ar    1  UNL1        0.0679
      8 CL         -8.4192  -15.3485   27.0643 Cl      1  UNL1       -0.0814
      9 C          -8.9266  -16.7518   24.9376 C.ar    1  UNL1        0.0099
     10 N         -10.4288  -17.5260   21.8808 N.ar    1  UNL1       -0.1490
     11 N         -11.9180  -17.6975   21.9353 N.ar    1  UNL1       -0.0452
     12 N         -12.5184  -16.8924   20.8212 N.ar    1  UNL1       -0.1123
     13 C         -11.4004  -16.2232   20.0782 C.ar    1  UNL1        0.1838
     14 C         -11.5478  -15.3208   18.8891 C.3     1  UNL1        0.0776
     15 N         -10.1089  -16.6148   20.7331 N.ar    1  UNL1       -0.1340
     16 C          -9.3744  -19.6477   22.9467 C.3     1  UNL1        0.0479
     17 C         -10.3260  -20.3560   23.8648 C.3     1  UNL1        0.0710
     18 C         -12.1821  -18.8691   24.9106 C.3     1  UNL1        0.0859
     19 N         -10.9010  -19.6370   25.0489 N.3     1  UNL1       -0.2962
     20 H         -11.0550  -20.3385   25.7732 H       1  UNL1        0.1233
@<TRIPOS>BOND
     1    18    19    1
     2    19    17    1
     3    17    16    1
     4     1    16    1
     5     1     2    1
     6     2     3   ar
     7     3     4   ar
     8     4     5   ar
     9     5     6    1
    10     5     7   ar
    11     7     8    1
    12     7     9   ar
    13     1    10    1
    14    10    11   ar
    15    11    12   ar
    16    12    13   ar
    17    13    14    1
    18    13    15   ar
    19     9     2   ar
    20    15    10   ar
    21    19    20    1
@<TRIPOS>MOLECULE
*****
 20 21 0 0 0
SMALL
GASTEIGER

@<TRIPOS>ATOM
      1 C          -8.0464  -17.3135   23.0295 C.3     1  UNL1        0.1508
      2 C          -7.1096  -18.1913   22.2535 C.ar    1  UNL1        0.0026
      3 C          -7.6263  -19.0145   21.1110 C.ar    1  UNL1       -0.0014
      4 C          -6.6896  -19.8921   20.3351 C.ar    1  UNL1        0.0120
      5 C          -5.2361  -19.9465   20.7016 C.ar    1  UNL1        0.0682
      6 CL         -4.2993  -20.8243   19.9255 Cl      1  UNL1       -0.0814
      7 C          -4.7193  -19.1233   21.8440 C.ar    1  UNL1        0.0679
      8 CL         -3.2658  -19.1777   22.2105 Cl      1  UNL1       -0.0814
      9 C          -5.6561  -18.2457   22.6200 C.ar    1  UNL1        0.0099
     10 N          -9.3935  -17.8312   23.4386 N.ar    1  UNL1       -0.1490
     11 N          -9.6516  -18.9844   24.3625 N.ar    1  UNL1       -0.0452
     12 N         -11.1366  -19.1525   24.4904 N.ar    1  UNL1       -0.1123
     13 C         -11.7964  -18.1032   23.6456 C.ar    1  UNL1        0.1838
     14 C         -13.2740  -17.9052   23.4799 C.3     1  UNL1        0.0776
     15 N         -10.7190  -17.2866   22.9955 N.ar    1  UNL1       -0.1340
     16 C          -7.6360  -15.9182   23.3965 C.3     1  UNL1        0.0479
     17 C          -8.0910  -15.3195   24.6944 C.3     1  UNL1        0.0710
     18 C          -5.6414  -15.3057   25.5597 C.3     1  UNL1        0.0859
     19 N          -7.1068  -15.0993   25.8047 N.3     1  UNL1       -0.2962
     20 H          -7.2207  -14.1334   26.1119 H       1  UNL1        0.1233
@<TRIPOS>BOND
     1    18    19    1
     2    19    17    1
     3    17    16    1
     4     1    16    1
     5     1     2    1
     6     2     3   ar
     7     3     4   ar
     8     4     5   ar
     9     5     6    1
    10     5     7   ar
    11     7     8    1
    12     7     9   ar
    13     1    10    1
    14    10    11   ar
    15    11    12   ar
    16    12    13   ar
    17    13    14    1
    18    13    15   ar
    19     9     2   ar
    20    15    10   ar
    21    19    20    1
