@<TRIPOS>MOLECULE
*****
 63 67 0 0 0
SMALL
GASTEIGER

@<TRIPOS>ATOM
      1 C           0.2730    2.5965   24.3242 C.3     1  UNL1        0.1303
      2 O          -0.8517    2.9317   25.2583 O.3     1  UNL1       -0.3827
      3 H          -0.7874    2.3795   26.0532 H       1  UNL1        0.2104
      4 C           1.2712    1.5419   24.7001 C.3     1  UNL1        0.1027
      5 N           2.0292    1.6524   25.9898 N.am    1  UNL1       -0.3019
      6 C           1.3644    1.2882   27.2841 C.2     1  UNL1        0.2406
      7 O          -0.0585    0.8135   27.2888 O.2     1  UNL1       -0.2733
      8 H           2.9631    1.9640   25.9867 H       1  UNL1        0.1495
      9 C           2.1224    1.3987   28.5738 C.3     1  UNL1        0.1529
     10 N           3.5309    0.8905   28.6617 N.am    1  UNL1       -0.2555
     11 C           4.7190    1.6655   29.1494 C.3     1  UNL1        0.1169
     12 C           5.9210    0.7721   29.0665 C.3     1  UNL1        0.1168
     13 N           5.4758   -0.5552   28.5277 N.am    1  UNL1       -0.2582
     14 C           3.9987   -0.4819   28.2775 C.2     1  UNL1        0.3078
     15 O           3.1401   -1.5872   27.7378 O.2     1  UNL1       -0.2523
     16 C           6.3537   -1.7464   28.2821 C.3     1  UNL1        0.1217
     17 C           6.5269   -2.7836   29.3517 C.ar    1  UNL1       -0.0023
     18 C           6.5186   -2.3799   30.7963 C.ar    1  UNL1       -0.0026
     19 C           6.6918   -3.4171   31.8659 C.ar    1  UNL1       -0.0003
     20 C           6.8733   -4.8581   31.4910 C.ar    1  UNL1       -0.0000
     21 C           6.8816   -5.2618   30.0463 C.ar    1  UNL1       -0.0003
     22 C           6.7084   -4.2246   28.9767 C.ar    1  UNL1       -0.0026
     23 C           1.4719    2.0173   29.7754 C.3     1  UNL1        0.0252
     24 C           1.4645    3.3493   29.0857 C.3     1  UNL1        0.0021
     25 C           1.4793    0.6854   30.4652 C.3     1  UNL1        0.0021
     26 C           0.8214    2.6359   30.9772 C.3     1  UNL1        0.0021
     27 C           1.5114    0.3768   23.7864 C.3     1  UNL1        0.0484
     28 C           2.8786    0.1397   23.2170 C.ar    1  UNL1       -0.0204
     29 C           3.4118   -1.2577   23.1036 C.ar    1  UNL1       -0.0042
     30 C           4.7792   -1.4949   22.5341 C.ar    1  UNL1       -0.0003
     31 C           5.6132   -0.3346   22.0780 C.ar    1  UNL1       -0.0000
     32 C           5.0800    1.0629   22.1914 C.ar    1  UNL1       -0.0003
     33 C           3.7127    1.3000   22.7608 C.ar    1  UNL1       -0.0042
     34 C           0.3996    3.3160   23.0141 C.3     1  UNL1        0.0508
     35 C          -0.6857    3.1974   21.9854 C.3     1  UNL1        0.0784
     36 C          -2.6433    4.6823   22.8295 C.2     1  UNL1        0.2404
     37 O          -1.7277    5.8699   22.8639 O.2     1  UNL1       -0.2733
     38 N          -2.1223    3.3460   22.3902 N.am    1  UNL1       -0.3042
     39 H          -2.7233    2.5666   22.3676 H       1  UNL1        0.1494
     40 C          -4.0800    4.8310   23.2343 C.3     1  UNL1        0.1509
     41 C          -5.4485    3.8487   21.2564 C.2     1  UNL1        0.4021
     42 O          -4.6923    2.5586   21.3739 O.2     1  UNL1       -0.2264
     43 N          -5.1424    4.9849   22.1867 N.am    1  UNL1       -0.2640
     44 H          -5.6387    5.8316   22.1096 H       1  UNL1        0.1532
     45 C          -6.3384    3.3581   18.8653 C.3     1  UNL1        0.2573
     46 O          -6.5109    4.0026   20.2087 O.3     1  UNL1       -0.4306
     47 C          -4.4543    4.8257   24.6869 C.3     1  UNL1        0.0251
     48 C          -4.5336    6.3235   24.6719 C.3     1  UNL1        0.0021
     49 C          -4.3750    3.3279   24.7019 C.3     1  UNL1        0.0021
     50 C          -4.8286    4.8204   26.1394 C.3     1  UNL1        0.0021
     51 C          -0.3343    2.9300   20.5518 C.3     1  UNL1        0.0460
     52 C           0.6202    1.8255   20.2070 C.ar    1  UNL1       -0.0205
     53 C           0.2541    0.4001   20.4974 C.ar    1  UNL1       -0.0042
     54 C           1.2086   -0.7045   20.1525 C.ar    1  UNL1        0.0012
     55 C           2.5291   -0.3837   19.5173 C.ar    1  UNL1        0.0176
     56 C           2.8951    1.0417   19.2270 C.ar    1  UNL1        0.0012
     57 C           1.9407    2.1462   19.5718 C.ar    1  UNL1       -0.0042
     58 C           3.4835   -1.4883   19.1725 C.ar    1  UNL1        0.0813
     59 C           3.1268   -2.9119   19.4828 C.ar    1  UNL1        0.0191
     60 C           4.0813   -4.0165   19.1380 C.ar    1  UNL1        0.0031
     61 C           5.3924   -3.6975   18.4828 C.ar    1  UNL1        0.0207
     62 C           5.7491   -2.2740   18.1725 C.ar    1  UNL1        0.0988
     63 N           4.7947   -1.1694   18.5174 N.ar    1  UNL1       -0.2438
@<TRIPOS>BOND
     1    45    46    1
     2    46    41    1
     3    41    42    2
     4    41    43   am
     5    40    43    1
     6    40    36    1
     7    36    37    2
     8    36    38   am
     9    38    35    1
    10    35    51    1
    11    51    52    1
    12    52    53   ar
    13    53    54   ar
    14    54    55   ar
    15    55    58    1
    16    58    59   ar
    17    59    60   ar
    18    60    61   ar
    19    61    62   ar
    20    62    63   ar
    21    55    56   ar
    22    56    57   ar
    23    35    34    1
    24    34     1    1
    25     1     2    1
    26     1     4    1
    27     4    27    1
    28    27    28    1
    29    28    29   ar
    30    29    30   ar
    31    30    31   ar
    32    31    32   ar
    33    32    33   ar
    34     4     5    1
    35     5     6   am
    36     6     7    2
    37     6     9    1
    38     9    10    1
    39    10    11    1
    40    11    12    1
    41    12    13    1
    42    13    16    1
    43    16    17    1
    44    17    18   ar
    45    18    19   ar
    46    19    20   ar
    47    20    21   ar
    48    21    22   ar
    49    13    14   am
    50    14    15    2
    51     9    23    1
    52    23    24    1
    53    23    25    1
    54    23    26    1
    55    40    47    1
    56    47    48    1
    57    47    49    1
    58    47    50    1
    59    57    52   ar
    60    33    28   ar
    61    14    10   am
    62    63    58   ar
    63    22    17   ar
    64    43    44    1
    65    38    39    1
    66     2     3    1
    67     5     8    1
@<TRIPOS>MOLECULE
*****
 63 67 0 0 0
SMALL
GASTEIGER

@<TRIPOS>ATOM
      1 C           4.0835   -1.2383   27.5693 C.3     1  UNL1        0.1303
      2 O           5.1011   -2.1089   28.2450 O.3     1  UNL1       -0.3827
      3 H           5.8696   -2.2191   27.6635 H       1  UNL1        0.2104
      4 C           4.3547   -0.6930   26.1985 C.3     1  UNL1        0.1027
      5 N           4.8988   -1.5917   25.1279 N.am    1  UNL1       -0.3019
      6 C           6.3615   -1.9226   25.0982 C.2     1  UNL1        0.2406
      7 O           7.2802   -1.3547   26.1391 O.2     1  UNL1       -0.2733
      8 H           4.2958   -1.9644   24.4447 H       1  UNL1        0.1495
      9 C           6.9056   -2.8213   24.0275 C.3     1  UNL1        0.1529
     10 N           6.3794   -2.7224   22.6264 N.am    1  UNL1       -0.2555
     11 C           6.1401   -3.8706   21.6914 C.3     1  UNL1        0.1169
     12 C           5.6130   -3.3158   20.4013 C.3     1  UNL1        0.1168
     13 N           5.5265   -1.8246   20.5390 N.am    1  UNL1       -0.2582
     14 C           6.0002   -1.4579   21.9141 C.2     1  UNL1        0.3078
     15 O           6.0806   -0.0703   22.4781 O.2     1  UNL1       -0.2523
     16 C           5.0501   -0.8681   19.4863 C.3     1  UNL1        0.1217
     17 C           3.6220   -0.4094   19.4808 C.ar    1  UNL1       -0.0023
     18 C           2.5876   -1.1680   20.2583 C.ar    1  UNL1       -0.0026
     19 C           1.1595   -0.7093   20.2529 C.ar    1  UNL1       -0.0003
     20 C           0.7657    0.5079   19.4698 C.ar    1  UNL1       -0.0000
     21 C           1.8001    1.2665   18.6922 C.ar    1  UNL1       -0.0003
     22 C           3.2283    0.8079   18.6977 C.ar    1  UNL1       -0.0026
     23 C           7.9758   -3.8189   24.3581 C.3     1  UNL1        0.0252
     24 C           6.9736   -4.6456   25.1078 C.3     1  UNL1        0.0021
     25 C           8.9780   -2.9923   23.6083 C.3     1  UNL1        0.0021
     26 C           9.0461   -4.8166   24.6886 C.3     1  UNL1        0.0021
     27 C           4.0819    0.7512   25.8984 C.3     1  UNL1        0.0484
     28 C           3.0573    1.1225   24.8677 C.ar    1  UNL1       -0.0204
     29 C           3.4742    1.8492   23.6236 C.ar    1  UNL1       -0.0042
     30 C           2.4495    2.2205   22.5929 C.ar    1  UNL1       -0.0003
     31 C           1.0080    1.8650   22.8064 C.ar    1  UNL1       -0.0000
     32 C           0.5911    1.1382   24.0507 C.ar    1  UNL1       -0.0003
     33 C           1.6157    0.7670   25.0813 C.ar    1  UNL1       -0.0042
     34 C           2.7946   -0.9131   28.2643 C.3     1  UNL1        0.0508
     35 C           2.8147   -0.2662   29.6175 C.3     1  UNL1        0.0784
     36 C           4.7608   -0.9289   31.2061 C.2     1  UNL1        0.2404
     37 O           5.6992   -0.0647   30.4170 O.2     1  UNL1       -0.2733
     38 N           3.3186   -1.0296   30.8063 N.am    1  UNL1       -0.3042
     39 H           2.7027   -1.5968   31.3242 H       1  UNL1        0.1494
     40 C           5.2647   -1.6923   32.3950 C.3     1  UNL1        0.1509
     41 C           6.6308   -3.6988   31.4689 C.2     1  UNL1        0.4021
     42 O           7.5367   -2.7476   30.7445 O.2     1  UNL1       -0.2264
     43 N           5.4948   -3.1711   32.2941 N.am    1  UNL1       -0.2640
     44 H           4.9002   -3.7954   32.7695 H       1  UNL1        0.1532
     45 C           7.1039   -5.8092   30.0293 C.3     1  UNL1        0.2573
     46 O           6.8609   -5.1776   31.3680 O.3     1  UNL1       -0.4306
     47 C           5.5384   -0.9770   33.6846 C.3     1  UNL1        0.0251
     48 C           6.8652   -0.5237   33.1516 C.3     1  UNL1        0.0021
     49 C           4.2115   -1.4302   34.2177 C.3     1  UNL1        0.0021
     50 C           5.8121   -0.2616   34.9743 C.3     1  UNL1        0.0021
     51 C           2.3309    1.1441   29.7819 C.3     1  UNL1        0.0460
     52 C           1.2410    1.6711   28.8963 C.ar    1  UNL1       -0.0205
     53 C           1.4636    2.9194   28.0949 C.ar    1  UNL1       -0.0042
     54 C           0.3736    3.4464   27.2093 C.ar    1  UNL1        0.0012
     55 C          -0.9389    2.7252   27.1251 C.ar    1  UNL1        0.0176
     56 C          -1.1615    1.4769   27.9266 C.ar    1  UNL1        0.0012
     57 C          -0.0716    0.9499   28.8121 C.ar    1  UNL1       -0.0042
     58 C          -2.0288    3.2522   26.2395 C.ar    1  UNL1        0.0813
     59 C          -1.7636    3.4855   24.7817 C.ar    1  UNL1        0.0191
     60 C          -2.8536    4.0125   23.8961 C.ar    1  UNL1        0.0031
     61 C          -4.2087    4.3063   24.4684 C.ar    1  UNL1        0.0207
     62 C          -4.4738    4.0730   25.9262 C.ar    1  UNL1        0.0988
     63 N          -3.3839    3.5459   26.8118 N.ar    1  UNL1       -0.2438
@<TRIPOS>BOND
     1    45    46    1
     2    46    41    1
     3    41    42    2
     4    41    43   am
     5    40    43    1
     6    40    36    1
     7    36    37    2
     8    36    38   am
     9    38    35    1
    10    35    51    1
    11    51    52    1
    12    52    53   ar
    13    53    54   ar
    14    54    55   ar
    15    55    58    1
    16    58    59   ar
    17    59    60   ar
    18    60    61   ar
    19    61    62   ar
    20    62    63   ar
    21    55    56   ar
    22    56    57   ar
    23    35    34    1
    24    34     1    1
    25     1     2    1
    26     1     4    1
    27     4    27    1
    28    27    28    1
    29    28    29   ar
    30    29    30   ar
    31    30    31   ar
    32    31    32   ar
    33    32    33   ar
    34     4     5    1
    35     5     6   am
    36     6     7    2
    37     6     9    1
    38     9    10    1
    39    10    11    1
    40    11    12    1
    41    12    13    1
    42    13    16    1
    43    16    17    1
    44    17    18   ar
    45    18    19   ar
    46    19    20   ar
    47    20    21   ar
    48    21    22   ar
    49    13    14   am
    50    14    15    2
    51     9    23    1
    52    23    24    1
    53    23    25    1
    54    23    26    1
    55    40    47    1
    56    47    48    1
    57    47    49    1
    58    47    50    1
    59    57    52   ar
    60    33    28   ar
    61    14    10   am
    62    63    58   ar
    63    22    17   ar
    64    43    44    1
    65    38    39    1
    66     2     3    1
    67     5     8    1
@<TRIPOS>MOLECULE
*****
 63 67 0 0 0
SMALL
GASTEIGER

@<TRIPOS>ATOM
      1 C           4.7775   -0.9217   24.7435 C.3     1  UNL1        0.1303
      2 O           3.7274   -1.8159   25.3331 O.3     1  UNL1       -0.3827
      3 H           3.8888   -2.7311   25.0553 H       1  UNL1        0.2104
      4 C           5.8534   -1.5009   23.8734 C.3     1  UNL1        0.1027
      5 N           5.6692   -1.5504   22.3856 N.am    1  UNL1       -0.3019
      6 C           4.8423   -2.6389   21.7680 C.2     1  UNL1        0.2406
      7 O           4.1996   -3.6778   22.6383 O.2     1  UNL1       -0.2733
      8 H           6.0911   -0.8685   21.8144 H       1  UNL1        0.1495
      9 C           4.6582   -2.6884   20.2802 C.3     1  UNL1        0.1529
     10 N           4.3871   -1.4267   19.5156 N.am    1  UNL1       -0.2555
     11 C           5.3164   -0.7719   18.5370 C.3     1  UNL1        0.1169
     12 C           4.6428    0.4612   18.0120 C.3     1  UNL1        0.1168
     13 N           3.2972    0.5686   18.6662 N.am    1  UNL1       -0.2582
     14 C           3.1392   -0.5982   19.5955 C.2     1  UNL1        0.3078
     15 O           1.9433   -0.8859   20.4539 O.2     1  UNL1       -0.2523
     16 C           2.2870    1.6525   18.4321 C.3     1  UNL1        0.1217
     17 C           2.3902    2.9482   19.1806 C.ar    1  UNL1       -0.0023
     18 C           3.6221    3.2572   19.9788 C.ar    1  UNL1       -0.0026
     19 C           3.7253    4.5530   20.7273 C.ar    1  UNL1       -0.0003
     20 C           2.5967    5.5397   20.6777 C.ar    1  UNL1       -0.0000
     21 C           1.3648    5.2307   19.8795 C.ar    1  UNL1       -0.0003
     22 C           1.2616    3.9350   19.1310 C.ar    1  UNL1       -0.0026
     23 C           4.7451   -3.9996   19.5569 C.3     1  UNL1        0.0252
     24 C           3.2839   -3.9155   19.2290 C.3     1  UNL1        0.0021
     25 C           6.2064   -4.0836   19.8848 C.3     1  UNL1        0.0021
     26 C           4.8321   -5.3108   18.8336 C.3     1  UNL1        0.0021
     27 C           7.1135   -2.0307   24.4912 C.3     1  UNL1        0.0484
     28 C           7.2198   -3.4832   24.8500 C.ar    1  UNL1       -0.0204
     29 C           7.6846   -4.4764   23.8266 C.ar    1  UNL1       -0.0042
     30 C           7.7909   -5.9291   24.1854 C.ar    1  UNL1       -0.0003
     31 C           7.4323   -6.3884   25.5676 C.ar    1  UNL1       -0.0000
     32 C           6.9674   -5.3951   26.5910 C.ar    1  UNL1       -0.0003
     33 C           6.8611   -3.9425   26.2322 C.ar    1  UNL1       -0.0042
     34 C           4.7518    0.5516   25.0238 C.3     1  UNL1        0.0508
     35 C           3.4683    1.3173   24.8951 C.3     1  UNL1        0.0784
     36 C           2.2453    1.8263   27.1301 C.2     1  UNL1        0.2404
     37 O           3.2799    2.8609   27.4606 O.2     1  UNL1       -0.2733
     38 N           2.3396    1.0545   25.8474 N.am    1  UNL1       -0.3042
     39 H           1.6605    0.3754   25.6305 H       1  UNL1        0.1494
     40 C           1.1165    1.5635   28.0824 C.3     1  UNL1        0.1509
     41 C           2.0938   -0.3795   29.5033 C.2     1  UNL1        0.4021
     42 O           2.5188   -1.0832   28.2487 O.2     1  UNL1       -0.2264
     43 N           1.3927    0.9439   29.4201 N.am    1  UNL1       -0.2640
     44 H           1.1137    1.4058   30.2436 H       1  UNL1        0.1532
     45 C           3.6618   -0.7132   31.5478 C.3     1  UNL1        0.2573
     46 O           2.3700   -0.9992   30.8412 O.3     1  UNL1       -0.4306
     47 C          -0.2885    1.9204   27.6967 C.3     1  UNL1        0.0251
     48 C           0.1470    3.3273   27.4123 C.3     1  UNL1        0.0021
     49 C          -0.7239    0.5134   27.9812 C.3     1  UNL1        0.0021
     50 C          -1.6935    2.2772   27.3111 C.3     1  UNL1        0.0021
     51 C           3.3137    2.3457   23.8142 C.3     1  UNL1        0.0460
     52 C           1.9459    2.7201   23.3253 C.ar    1  UNL1       -0.0205
     53 C           1.2055    1.8055   22.3951 C.ar    1  UNL1       -0.0042
     54 C          -0.1623    2.1799   21.9063 C.ar    1  UNL1        0.0012
     55 C          -0.7896    3.4690   22.3476 C.ar    1  UNL1        0.0176
     56 C          -0.0492    4.3836   23.2777 C.ar    1  UNL1        0.0012
     57 C           1.3185    4.0092   23.7666 C.ar    1  UNL1       -0.0042
     58 C          -2.1574    3.8434   21.8587 C.ar    1  UNL1        0.0813
     59 C          -2.8057    5.1077   22.3396 C.ar    1  UNL1        0.0191
     60 C          -4.1735    5.4821   21.8507 C.ar    1  UNL1        0.0031
     61 C          -4.8929    4.5922   20.8809 C.ar    1  UNL1        0.0207
     62 C          -4.2446    3.3279   20.4000 C.ar    1  UNL1        0.0988
     63 N          -2.8769    2.9535   20.8888 N.ar    1  UNL1       -0.2438
@<TRIPOS>BOND
     1    45    46    1
     2    46    41    1
     3    41    42    2
     4    41    43   am
     5    40    43    1
     6    40    36    1
     7    36    37    2
     8    36    38   am
     9    38    35    1
    10    35    51    1
    11    51    52    1
    12    52    53   ar
    13    53    54   ar
    14    54    55   ar
    15    55    58    1
    16    58    59   ar
    17    59    60   ar
    18    60    61   ar
    19    61    62   ar
    20    62    63   ar
    21    55    56   ar
    22    56    57   ar
    23    35    34    1
    24    34     1    1
    25     1     2    1
    26     1     4    1
    27     4    27    1
    28    27    28    1
    29    28    29   ar
    30    29    30   ar
    31    30    31   ar
    32    31    32   ar
    33    32    33   ar
    34     4     5    1
    35     5     6   am
    36     6     7    2
    37     6     9    1
    38     9    10    1
    39    10    11    1
    40    11    12    1
    41    12    13    1
    42    13    16    1
    43    16    17    1
    44    17    18   ar
    45    18    19   ar
    46    19    20   ar
    47    20    21   ar
    48    21    22   ar
    49    13    14   am
    50    14    15    2
    51     9    23    1
    52    23    24    1
    53    23    25    1
    54    23    26    1
    55    40    47    1
    56    47    48    1
    57    47    49    1
    58    47    50    1
    59    57    52   ar
    60    33    28   ar
    61    14    10   am
    62    63    58   ar
    63    22    17   ar
    64    43    44    1
    65    38    39    1
    66     2     3    1
    67     5     8    1
@<TRIPOS>MOLECULE
*****
 63 67 0 0 0
SMALL
GASTEIGER

@<TRIPOS>ATOM
      1 C           4.1608   -1.5555   25.1165 C.3     1  UNL1        0.1303
      2 O           4.6653   -2.6803   24.2620 O.3     1  UNL1       -0.3827
      3 H           5.3527   -3.1679   24.7421 H       1  UNL1        0.2104
      4 C           4.7306   -1.3412   26.4874 C.3     1  UNL1        0.1027
      5 N           5.3463   -2.4889   27.2314 N.am    1  UNL1       -0.3019
      6 C           6.6894   -3.0152   26.8202 C.2     1  UNL1        0.2406
      7 O           7.4168   -2.3938   25.6650 O.2     1  UNL1       -0.2733
      8 H           4.8689   -2.8968   27.9897 H       1  UNL1        0.1495
      9 C           7.3051   -4.1629   27.5643 C.3     1  UNL1        0.1529
     10 N           7.1440   -4.2651   29.0521 N.am    1  UNL1       -0.2555
     11 C           6.9513   -5.5310   29.8332 C.3     1  UNL1        0.1169
     12 C           6.8354   -5.1675   31.2839 C.3     1  UNL1        0.1168
     13 N           6.9566   -3.6768   31.3994 N.am    1  UNL1       -0.2582
     14 C           7.1472   -3.1191   30.0200 C.2     1  UNL1        0.3078
     15 O           7.3122   -1.6699   29.6701 O.2     1  UNL1       -0.2523
     16 C           6.8974   -2.8833   32.6709 C.3     1  UNL1        0.1217
     17 C           5.8621   -1.8109   32.8382 C.ar    1  UNL1       -0.0023
     18 C           4.6424   -1.8032   31.9651 C.ar    1  UNL1       -0.0026
     19 C           3.6071   -0.7308   32.1323 C.ar    1  UNL1       -0.0003
     20 C           3.7914    0.3338   33.1728 C.ar    1  UNL1       -0.0000
     21 C           5.0110    0.3261   34.0459 C.ar    1  UNL1       -0.0003
     22 C           6.0464   -0.7463   33.8786 C.ar    1  UNL1       -0.0026
     23 C           8.0820   -5.2086   26.8206 C.3     1  UNL1        0.0252
     24 C           6.8021   -5.7779   26.2842 C.3     1  UNL1        0.0021
     25 C           9.3618   -4.6392   27.3571 C.3     1  UNL1        0.0021
     26 C           8.8589   -6.2542   26.0769 C.3     1  UNL1        0.0021
     27 C           4.6848    0.0208   27.1143 C.3     1  UNL1        0.0484
     28 C           3.5219    0.4101   27.9780 C.ar    1  UNL1       -0.0204
     29 C           2.4861   -0.6106   28.3459 C.ar    1  UNL1       -0.0042
     30 C           1.3231   -0.2213   29.2097 C.ar    1  UNL1       -0.0003
     31 C           1.1960    1.1887   29.7055 C.ar    1  UNL1       -0.0000
     32 C           2.2318    2.2094   29.3375 C.ar    1  UNL1       -0.0003
     33 C           3.3947    1.8201   28.4738 C.ar    1  UNL1       -0.0042
     34 C           3.0865   -0.6449   24.6002 C.3     1  UNL1        0.0508
     35 C           3.4063    0.3663   23.5392 C.3     1  UNL1        0.0784
     36 C           3.1976   -0.4519   21.0822 C.2     1  UNL1        0.2404
     37 O           1.7026   -0.3966   21.1907 O.2     1  UNL1       -0.2733
     38 N           4.0494   -0.0705   22.2564 N.am    1  UNL1       -0.3042
     39 H           5.0307   -0.1068   22.1852 H       1  UNL1        0.1494
     40 C           3.8408   -0.8886   19.7994 C.3     1  UNL1        0.1509
     41 C           4.7920   -3.2363   20.3767 C.2     1  UNL1        0.4021
     42 O           5.4784   -2.6622   21.5805 O.2     1  UNL1       -0.2264
     43 N           3.9732   -2.3495   19.4861 N.am    1  UNL1       -0.2640
     44 H           3.5227   -2.7263   18.6960 H       1  UNL1        0.1532
     45 C           4.6339   -5.1969   18.6793 C.3     1  UNL1        0.2573
     46 O           4.9244   -4.6973   20.0635 O.3     1  UNL1       -0.4306
     47 C           4.3517    0.1356   18.8298 C.3     1  UNL1        0.0251
     48 C           3.0086    0.1744   18.1631 C.3     1  UNL1        0.0021
     49 C           5.6948    0.0969   19.4966 C.3     1  UNL1        0.0021
     50 C           4.8625    1.1599   17.8603 C.3     1  UNL1        0.0021
     51 C           3.0828    1.8140   23.7611 C.3     1  UNL1        0.0460
     52 C           1.6785    2.2271   24.0886 C.ar    1  UNL1       -0.0205
     53 C           0.7683    2.7178   23.0020 C.ar    1  UNL1       -0.0042
     54 C          -0.6360    3.1309   23.3296 C.ar    1  UNL1        0.0012
     55 C          -1.1301    3.0534   24.7437 C.ar    1  UNL1        0.0176
     56 C          -0.2199    2.5627   25.8303 C.ar    1  UNL1        0.0012
     57 C           1.1844    2.1496   25.5028 C.ar    1  UNL1       -0.0042
     58 C          -2.5344    3.4665   25.0712 C.ar    1  UNL1        0.0813
     59 C          -2.8992    3.8335   26.4791 C.ar    1  UNL1        0.0191
     60 C          -4.3036    4.2466   26.8066 C.ar    1  UNL1        0.0031
     61 C          -5.3430    4.2927   25.7262 C.ar    1  UNL1        0.0207
     62 C          -4.9782    3.9256   24.3183 C.ar    1  UNL1        0.0988
     63 N          -3.5740    3.5125   23.9908 N.ar    1  UNL1       -0.2438
@<TRIPOS>BOND
     1    45    46    1
     2    46    41    1
     3    41    42    2
     4    41    43   am
     5    40    43    1
     6    40    36    1
     7    36    37    2
     8    36    38   am
     9    38    35    1
    10    35    51    1
    11    51    52    1
    12    52    53   ar
    13    53    54   ar
    14    54    55   ar
    15    55    58    1
    16    58    59   ar
    17    59    60   ar
    18    60    61   ar
    19    61    62   ar
    20    62    63   ar
    21    55    56   ar
    22    56    57   ar
    23    35    34    1
    24    34     1    1
    25     1     2    1
    26     1     4    1
    27     4    27    1
    28    27    28    1
    29    28    29   ar
    30    29    30   ar
    31    30    31   ar
    32    31    32   ar
    33    32    33   ar
    34     4     5    1
    35     5     6   am
    36     6     7    2
    37     6     9    1
    38     9    10    1
    39    10    11    1
    40    11    12    1
    41    12    13    1
    42    13    16    1
    43    16    17    1
    44    17    18   ar
    45    18    19   ar
    46    19    20   ar
    47    20    21   ar
    48    21    22   ar
    49    13    14   am
    50    14    15    2
    51     9    23    1
    52    23    24    1
    53    23    25    1
    54    23    26    1
    55    40    47    1
    56    47    48    1
    57    47    49    1
    58    47    50    1
    59    57    52   ar
    60    33    28   ar
    61    14    10   am
    62    63    58   ar
    63    22    17   ar
    64    43    44    1
    65    38    39    1
    66     2     3    1
    67     5     8    1
@<TRIPOS>MOLECULE
*****
 63 67 0 0 0
SMALL
GASTEIGER

@<TRIPOS>ATOM
      1 C           5.2274   -1.3982   25.2478 C.3     1  UNL1        0.1303
      2 O           3.8607   -2.0139   25.3034 O.3     1  UNL1       -0.3827
      3 H           3.7796   -2.6846   24.6073 H       1  UNL1        0.2104
      4 C           6.2141   -1.8546   24.2143 C.3     1  UNL1        0.1027
      5 N           5.9216   -1.6523   22.7571 N.am    1  UNL1       -0.3019
      6 C           4.9879   -2.5841   22.0431 C.2     1  UNL1        0.2406
      7 O           4.3467   -3.7183   22.7863 O.2     1  UNL1       -0.2733
      8 H           6.3424   -0.9079   22.2693 H       1  UNL1        0.1495
      9 C           4.6954   -2.3818   20.5859 C.3     1  UNL1        0.1529
     10 N           4.3668   -1.0122   20.0700 N.am    1  UNL1       -0.2555
     11 C           5.1569   -0.2388   19.0563 C.3     1  UNL1        0.1169
     12 C           4.4688    1.0758   18.8371 C.3     1  UNL1        0.1168
     13 N           3.2533    1.1150   19.7152 N.am    1  UNL1       -0.2582
     14 C           3.1903   -0.1755   20.4772 C.2     1  UNL1        0.3078
     15 O           2.1358   -0.5614   21.4718 O.2     1  UNL1       -0.2523
     16 C           2.2731    2.2461   19.8140 C.3     1  UNL1        0.1217
     17 C           2.3243    3.1829   20.9843 C.ar    1  UNL1       -0.0023
     18 C           3.6293    3.4514   21.6734 C.ar    1  UNL1       -0.0026
     19 C           3.6806    4.3882   22.8438 C.ar    1  UNL1       -0.0003
     20 C           2.4269    5.0566   23.3249 C.ar    1  UNL1       -0.0000
     21 C           1.1219    4.7882   22.6357 C.ar    1  UNL1       -0.0003
     22 C           1.0706    3.8513   21.4654 C.ar    1  UNL1       -0.0026
     23 C           4.7315   -3.5490   19.6445 C.3     1  UNL1        0.0252
     24 C           3.2576   -3.4032   19.4072 C.3     1  UNL1        0.0021
     25 C           6.2053   -3.6949   19.8819 C.3     1  UNL1        0.0021
     26 C           4.7676   -4.7164   18.7031 C.3     1  UNL1        0.0021
     27 C           7.4934   -2.5134   24.6380 C.3     1  UNL1        0.0484
     28 C           7.5278   -3.9915   24.8910 C.ar    1  UNL1       -0.0204
     29 C           6.9880   -4.5452   26.1763 C.ar    1  UNL1       -0.0042
     30 C           7.0224   -6.0234   26.4293 C.ar    1  UNL1       -0.0003
     31 C           7.5967   -6.9478   25.3970 C.ar    1  UNL1       -0.0000
     32 C           8.1366   -6.3940   24.1117 C.ar    1  UNL1       -0.0003
     33 C           8.1021   -4.9159   23.8587 C.ar    1  UNL1       -0.0042
     34 C           5.6074   -0.3262   26.2256 C.3     1  UNL1        0.0508
     35 C           4.6315    0.7621   26.5622 C.3     1  UNL1        0.0784
     36 C           3.2446   -0.0453   28.6053 C.2     1  UNL1        0.2404
     37 O           2.7679   -1.2275   27.8146 O.2     1  UNL1       -0.2733
     38 N           4.1763    0.9495   27.9791 N.am    1  UNL1       -0.3042
     39 H           4.4892    1.7254   28.4981 H       1  UNL1        0.1494
     40 C           2.7894    0.1421   30.0223 C.3     1  UNL1        0.1509
     41 C           4.5863   -1.2441   31.2870 C.2     1  UNL1        0.4021
     42 O           5.6623   -0.6004   30.4637 O.2     1  UNL1       -0.2264
     43 N           3.1499   -0.8729   31.0663 N.am    1  UNL1       -0.2640
     44 H           2.4436   -1.2954   31.6066 H       1  UNL1        0.1532
     45 C           4.4677   -2.0865   33.7418 C.3     1  UNL1        0.2573
     46 O           4.9468   -2.2591   32.3310 O.3     1  UNL1       -0.4306
     47 C           1.9738    1.3445   30.3953 C.3     1  UNL1        0.0251
     48 C           0.8591    0.8612   29.5155 C.3     1  UNL1        0.0021
     49 C           3.0885    1.8277   31.2750 C.3     1  UNL1        0.0021
     50 C           1.1582    2.5468   30.7682 C.3     1  UNL1        0.0021
     51 C           4.1108    1.6631   25.4819 C.3     1  UNL1        0.0460
     52 C           2.6610    2.0471   25.4596 C.ar    1  UNL1       -0.0205
     53 C           1.7134    1.3455   24.5324 C.ar    1  UNL1       -0.0042
     54 C           0.2635    1.7296   24.5102 C.ar    1  UNL1        0.0012
     55 C          -0.2387    2.8154   25.4151 C.ar    1  UNL1        0.0176
     56 C           0.7090    3.5170   26.3423 C.ar    1  UNL1        0.0012
     57 C           2.1588    3.1329   26.3646 C.ar    1  UNL1       -0.0042
     58 C          -1.6884    3.1994   25.3929 C.ar    1  UNL1        0.0813
     59 C          -2.4040    3.3516   24.0834 C.ar    1  UNL1        0.0191
     60 C          -3.8539    3.7357   24.0611 C.ar    1  UNL1        0.0031
     61 C          -4.5881    3.9676   25.3484 C.ar    1  UNL1        0.0207
     62 C          -3.8726    3.8155   26.6579 C.ar    1  UNL1        0.0988
     63 N          -2.4228    3.4314   26.6802 N.ar    1  UNL1       -0.2438
@<TRIPOS>BOND
     1    45    46    1
     2    46    41    1
     3    41    42    2
     4    41    43   am
     5    40    43    1
     6    40    36    1
     7    36    37    2
     8    36    38   am
     9    38    35    1
    10    35    51    1
    11    51    52    1
    12    52    53   ar
    13    53    54   ar
    14    54    55   ar
    15    55    58    1
    16    58    59   ar
    17    59    60   ar
    18    60    61   ar
    19    61    62   ar
    20    62    63   ar
    21    55    56   ar
    22    56    57   ar
    23    35    34    1
    24    34     1    1
    25     1     2    1
    26     1     4    1
    27     4    27    1
    28    27    28    1
    29    28    29   ar
    30    29    30   ar
    31    30    31   ar
    32    31    32   ar
    33    32    33   ar
    34     4     5    1
    35     5     6   am
    36     6     7    2
    37     6     9    1
    38     9    10    1
    39    10    11    1
    40    11    12    1
    41    12    13    1
    42    13    16    1
    43    16    17    1
    44    17    18   ar
    45    18    19   ar
    46    19    20   ar
    47    20    21   ar
    48    21    22   ar
    49    13    14   am
    50    14    15    2
    51     9    23    1
    52    23    24    1
    53    23    25    1
    54    23    26    1
    55    40    47    1
    56    47    48    1
    57    47    49    1
    58    47    50    1
    59    57    52   ar
    60    33    28   ar
    61    14    10   am
    62    63    58   ar
    63    22    17   ar
    64    43    44    1
    65    38    39    1
    66     2     3    1
    67     5     8    1
@<TRIPOS>MOLECULE
*****
 63 67 0 0 0
SMALL
GASTEIGER

@<TRIPOS>ATOM
      1 C           2.1429    0.4223   29.2447 C.3     1  UNL1        0.1303
      2 O           1.5124    1.6112   28.5820 O.3     1  UNL1       -0.3827
      3 H           1.3748    2.3120   29.2384 H       1  UNL1        0.2104
      4 C           2.4556    0.4593   30.7112 C.3     1  UNL1        0.1027
      5 N           1.9389    1.5829   31.5602 N.am    1  UNL1       -0.3019
      6 C           2.4964    2.9656   31.3946 C.2     1  UNL1        0.2406
      7 O           3.5705    3.2247   30.3801 O.2     1  UNL1       -0.2733
      8 H           1.2340    1.4129   32.2260 H       1  UNL1        0.1495
      9 C           1.9797    4.0892   32.2435 C.3     1  UNL1        0.1529
     10 N           2.5603    4.3282   33.6057 N.am    1  UNL1       -0.2555
     11 C           3.0607    5.6402   34.1331 C.3     1  UNL1        0.1169
     12 C           3.5521    5.4200   35.5331 C.3     1  UNL1        0.1168
     13 N           3.3554    3.9719   35.8711 N.am    1  UNL1       -0.2582
     14 C           2.7424    3.2971   34.6799 C.2     1  UNL1        0.3078
     15 O           2.3759    1.8460   34.5803 O.2     1  UNL1       -0.2523
     16 C           3.7094    3.3140   37.1718 C.3     1  UNL1        0.1217
     17 C           2.6603    2.5752   37.9486 C.ar    1  UNL1       -0.0023
     18 C           2.8939    1.1511   38.3576 C.ar    1  UNL1       -0.0026
     19 C           1.8449    0.4121   39.1344 C.ar    1  UNL1       -0.0003
     20 C           0.5622    1.0974   39.5022 C.ar    1  UNL1       -0.0000
     21 C           0.3287    2.5215   39.0932 C.ar    1  UNL1       -0.0003
     22 C           1.3777    3.2604   38.3164 C.ar    1  UNL1       -0.0026
     23 C           0.8825    4.9738   31.7301 C.3     1  UNL1        0.0252
     24 C           1.8634    5.6707   30.8345 C.3     1  UNL1        0.0021
     25 C          -0.0983    4.2769   32.6258 C.3     1  UNL1        0.0021
     26 C          -0.2148    5.8584   31.2168 C.3     1  UNL1        0.0021
     27 C           3.2850   -0.6272   31.3290 C.3     1  UNL1        0.0484
     28 C           4.1641   -0.3227   32.5055 C.ar    1  UNL1       -0.0204
     29 C           4.0334   -1.1241   33.7667 C.ar    1  UNL1       -0.0042
     30 C           4.9125   -0.8196   34.9434 C.ar    1  UNL1       -0.0003
     31 C           5.9224    0.2863   34.8588 C.ar    1  UNL1       -0.0000
     32 C           6.0531    1.0877   33.5975 C.ar    1  UNL1       -0.0003
     33 C           5.1739    0.7832   32.4209 C.ar    1  UNL1       -0.0042
     34 C           2.4606   -0.8036   28.4409 C.3     1  UNL1        0.0508
     35 C           3.7552   -0.8924   27.6885 C.3     1  UNL1        0.0784
     36 C           6.0026   -1.0804   28.9783 C.2     1  UNL1        0.2404
     37 O           6.0028    0.4040   29.1945 O.2     1  UNL1       -0.2733
     38 N           4.8789   -1.7285   28.2253 N.am    1  UNL1       -0.3042
     39 H           4.8788   -2.7028   28.0835 H       1  UNL1        0.1494
     40 C           7.1263   -1.9166   29.5152 C.3     1  UNL1        0.1509
     41 C           7.5424   -3.9241   27.9195 C.2     1  UNL1        0.4021
     42 O           6.1644   -4.4406   28.2099 O.2     1  UNL1       -0.2264
     43 N           8.0234   -2.6621   28.5721 N.am    1  UNL1       -0.2640
     44 H           8.9278   -2.3231   28.3815 H       1  UNL1        0.1532
     45 C           8.9732   -3.9873   25.7517 C.3     1  UNL1        0.2573
     46 O           8.4395   -4.6696   26.9763 O.3     1  UNL1       -0.4306
     47 C           7.3529   -2.0072   30.9952 C.3     1  UNL1        0.0251
     48 C           8.5325   -1.0891   30.8709 C.3     1  UNL1        0.0021
     49 C           6.1732   -2.9254   31.1196 C.3     1  UNL1        0.0021
     50 C           7.5794   -2.0979   32.4753 C.3     1  UNL1        0.0021
     51 C           3.9262   -0.1451   26.3992 C.3     1  UNL1        0.0460
     52 C           4.0364   -0.8965   25.1057 C.ar    1  UNL1       -0.0205
     53 C           3.1420   -0.5432   23.9545 C.ar    1  UNL1       -0.0042
     54 C           3.2523   -1.2946   22.6609 C.ar    1  UNL1        0.0012
     55 C           4.2570   -2.3993   22.5186 C.ar    1  UNL1        0.0176
     56 C           5.1514   -2.7526   23.6698 C.ar    1  UNL1        0.0012
     57 C           5.0411   -2.0012   24.9633 C.ar    1  UNL1       -0.0042
     58 C           4.3672   -3.1507   21.2251 C.ar    1  UNL1        0.0813
     59 C           5.0151   -2.5057   20.0359 C.ar    1  UNL1        0.0191
     60 C           5.1253   -3.2571   18.7423 C.ar    1  UNL1        0.0031
     61 C           4.5877   -4.6536   18.6380 C.ar    1  UNL1        0.0207
     62 C           3.9399   -5.2986   19.8272 C.ar    1  UNL1        0.0988
     63 N           3.8296   -4.5472   21.1207 N.ar    1  UNL1       -0.2438
@<TRIPOS>BOND
     1    45    46    1
     2    46    41    1
     3    41    42    2
     4    41    43   am
     5    40    43    1
     6    40    36    1
     7    36    37    2
     8    36    38   am
     9    38    35    1
    10    35    51    1
    11    51    52    1
    12    52    53   ar
    13    53    54   ar
    14    54    55   ar
    15    55    58    1
    16    58    59   ar
    17    59    60   ar
    18    60    61   ar
    19    61    62   ar
    20    62    63   ar
    21    55    56   ar
    22    56    57   ar
    23    35    34    1
    24    34     1    1
    25     1     2    1
    26     1     4    1
    27     4    27    1
    28    27    28    1
    29    28    29   ar
    30    29    30   ar
    31    30    31   ar
    32    31    32   ar
    33    32    33   ar
    34     4     5    1
    35     5     6   am
    36     6     7    2
    37     6     9    1
    38     9    10    1
    39    10    11    1
    40    11    12    1
    41    12    13    1
    42    13    16    1
    43    16    17    1
    44    17    18   ar
    45    18    19   ar
    46    19    20   ar
    47    20    21   ar
    48    21    22   ar
    49    13    14   am
    50    14    15    2
    51     9    23    1
    52    23    24    1
    53    23    25    1
    54    23    26    1
    55    40    47    1
    56    47    48    1
    57    47    49    1
    58    47    50    1
    59    57    52   ar
    60    33    28   ar
    61    14    10   am
    62    63    58   ar
    63    22    17   ar
    64    43    44    1
    65    38    39    1
    66     2     3    1
    67     5     8    1
@<TRIPOS>MOLECULE
*****
 63 67 0 0 0
SMALL
GASTEIGER

@<TRIPOS>ATOM
      1 C           5.3559   -1.4747   28.6609 C.3     1  UNL1        0.1303
      2 O           4.6715   -2.2495   27.5740 O.3     1  UNL1       -0.3827
      3 H           3.8733   -1.7756   27.2926 H       1  UNL1        0.2104
      4 C           4.7738   -0.1769   29.1374 C.3     1  UNL1        0.1027
      5 N           4.0664    0.7271   28.1719 N.am    1  UNL1       -0.3019
      6 C           2.6254    0.4833   27.8342 C.2     1  UNL1        0.2406
      7 O           1.8919   -0.6646   28.4621 O.2     1  UNL1       -0.2733
      8 H           4.5478    1.4805   27.7598 H       1  UNL1        0.1495
      9 C           1.9179    1.3873   26.8687 C.3     1  UNL1        0.1529
     10 N           2.5717    1.7567   25.5703 N.am    1  UNL1       -0.2555
     11 C           2.9180    3.1453   25.1211 C.3     1  UNL1        0.1169
     12 C           3.5543    3.0491   23.7662 C.3     1  UNL1        0.1168
     13 N           3.6013    1.6009   23.3779 N.am    1  UNL1       -0.2582
     14 C           2.9940    0.8022   24.4929 C.2     1  UNL1        0.3078
     15 O           2.8367   -0.6892   24.5249 O.2     1  UNL1       -0.2523
     16 C           4.1579    1.0485   22.0992 C.3     1  UNL1        0.1217
     17 C           3.2609    0.8547   20.9127 C.ar    1  UNL1       -0.0023
     18 C           3.4514    1.6932   19.6837 C.ar    1  UNL1       -0.0026
     19 C           2.5545    1.4995   18.4971 C.ar    1  UNL1       -0.0003
     20 C           1.4670    0.4672   18.5396 C.ar    1  UNL1       -0.0000
     21 C           1.2765   -0.3713   19.7687 C.ar    1  UNL1       -0.0003
     22 C           2.1735   -0.1775   20.9553 C.ar    1  UNL1       -0.0026
     23 C           0.5567    1.9221   27.2017 C.3     1  UNL1        0.0252
     24 C          -0.0190    1.1883   26.0270 C.3     1  UNL1        0.0021
     25 C           1.1323    2.6559   28.3765 C.3     1  UNL1        0.0021
     26 C          -0.8047    2.4569   27.5348 C.3     1  UNL1        0.0021
     27 C           4.8993    0.2168   30.5794 C.3     1  UNL1        0.0484
     28 C           3.9664    1.2366   31.1623 C.ar    1  UNL1       -0.0204
     29 C           2.6317    0.8119   31.6990 C.ar    1  UNL1       -0.0042
     30 C           1.6987    1.8316   32.2819 C.ar    1  UNL1       -0.0003
     31 C           2.1005    3.2761   32.3281 C.ar    1  UNL1       -0.0000
     32 C           3.4353    3.7007   31.7912 C.ar    1  UNL1       -0.0003
     33 C           4.3682    2.6810   31.2084 C.ar    1  UNL1       -0.0042
     34 C           6.6223   -1.9976   29.2713 C.3     1  UNL1        0.0508
     35 C           6.7171   -3.4364   29.6851 C.3     1  UNL1        0.0784
     36 C           8.1485   -4.6912   27.9169 C.2     1  UNL1        0.2404
     37 O           9.3148   -3.8012   28.2294 O.2     1  UNL1       -0.2733
     38 N           6.8497   -4.5088   28.6448 N.am    1  UNL1       -0.3042
     39 H           6.0842   -5.0929   28.4396 H       1  UNL1        0.1494
     40 C           8.2810   -5.7636   26.8765 C.3     1  UNL1        0.1509
     41 C           7.4908   -4.3737   24.8288 C.2     1  UNL1        0.4021
     42 O           6.4353   -3.7264   25.6755 O.2     1  UNL1       -0.2264
     43 N           8.4137   -5.3923   25.4293 N.am    1  UNL1       -0.2640
     44 H           9.1064   -5.8172   24.8736 H       1  UNL1        0.1532
     45 C           7.0494   -2.7092   22.8834 C.3     1  UNL1        0.2573
     46 O           7.6234   -4.0024   23.3815 O.3     1  UNL1       -0.4306
     47 C           8.2809   -7.2074   27.2834 C.3     1  UNL1        0.0251
     48 C           7.1151   -7.4633   26.3750 C.3     1  UNL1        0.0021
     49 C           9.4468   -6.9514   28.1919 C.3     1  UNL1        0.0021
     50 C           8.2808   -8.6511   27.6904 C.3     1  UNL1        0.0021
     51 C           6.6793   -3.8026   31.1392 C.3     1  UNL1        0.0460
     52 C           6.2453   -2.7896   32.1567 C.ar    1  UNL1       -0.0205
     53 C           4.8347   -2.7958   32.6668 C.ar    1  UNL1       -0.0042
     54 C           4.4006   -1.7828   33.6843 C.ar    1  UNL1        0.0012
     55 C           5.3771   -0.7636   34.1919 C.ar    1  UNL1        0.0176
     56 C           6.7878   -0.7574   33.6818 C.ar    1  UNL1        0.0012
     57 C           7.2218   -1.7704   32.6643 C.ar    1  UNL1       -0.0042
     58 C           4.9431    0.2493   35.2094 C.ar    1  UNL1        0.0813
     59 C           4.6413    1.6562   34.7857 C.ar    1  UNL1        0.0191
     60 C           4.2072    2.6692   35.8033 C.ar    1  UNL1        0.0031
     61 C           4.0749    2.2753   37.2445 C.ar    1  UNL1        0.0207
     62 C           4.3767    0.8684   37.6683 C.ar    1  UNL1        0.0988
     63 N           4.8108   -0.1446   36.6507 N.ar    1  UNL1       -0.2438
@<TRIPOS>BOND
     1    45    46    1
     2    46    41    1
     3    41    42    2
     4    41    43   am
     5    40    43    1
     6    40    36    1
     7    36    37    2
     8    36    38   am
     9    38    35    1
    10    35    51    1
    11    51    52    1
    12    52    53   ar
    13    53    54   ar
    14    54    55   ar
    15    55    58    1
    16    58    59   ar
    17    59    60   ar
    18    60    61   ar
    19    61    62   ar
    20    62    63   ar
    21    55    56   ar
    22    56    57   ar
    23    35    34    1
    24    34     1    1
    25     1     2    1
    26     1     4    1
    27     4    27    1
    28    27    28    1
    29    28    29   ar
    30    29    30   ar
    31    30    31   ar
    32    31    32   ar
    33    32    33   ar
    34     4     5    1
    35     5     6   am
    36     6     7    2
    37     6     9    1
    38     9    10    1
    39    10    11    1
    40    11    12    1
    41    12    13    1
    42    13    16    1
    43    16    17    1
    44    17    18   ar
    45    18    19   ar
    46    19    20   ar
    47    20    21   ar
    48    21    22   ar
    49    13    14   am
    50    14    15    2
    51     9    23    1
    52    23    24    1
    53    23    25    1
    54    23    26    1
    55    40    47    1
    56    47    48    1
    57    47    49    1
    58    47    50    1
    59    57    52   ar
    60    33    28   ar
    61    14    10   am
    62    63    58   ar
    63    22    17   ar
    64    43    44    1
    65    38    39    1
    66     2     3    1
    67     5     8    1
@<TRIPOS>MOLECULE
*****
 63 67 0 0 0
SMALL
GASTEIGER

@<TRIPOS>ATOM
      1 C           5.5306   -1.2684   24.8397 C.3     1  UNL1        0.1303
      2 O           4.4439   -2.1021   25.4514 O.3     1  UNL1       -0.3827
      3 H           4.4545   -2.9878   25.0560 H       1  UNL1        0.2104
      4 C           6.4217   -1.8545   23.7849 C.3     1  UNL1        0.1027
      5 N           6.0125   -1.8009   22.3428 N.am    1  UNL1       -0.3019
      6 C           4.9623   -2.7389   21.8259 C.2     1  UNL1        0.2406
      7 O           4.3213   -3.7304   22.7510 O.2     1  UNL1       -0.2733
      8 H           6.4332   -1.1501   21.7356 H       1  UNL1        0.1495
      9 C           4.5531   -2.6853   20.3838 C.3     1  UNL1        0.1529
     10 N           4.0007   -1.4154   19.8076 N.am    1  UNL1       -0.2555
     11 C           4.4463   -0.7575   18.5353 C.3     1  UNL1        0.1169
     12 C           3.6267    0.4842   18.3439 C.3     1  UNL1        0.1168
     13 N           2.6746    0.5936   19.4978 N.am    1  UNL1       -0.2582
     14 C           2.9057   -0.5804   20.4024 C.2     1  UNL1        0.3078
     15 O           2.1709   -0.8687   21.6779 O.2     1  UNL1       -0.2523
     16 C           1.6681    1.6854   19.7099 C.3     1  UNL1        0.1217
     17 C           1.9679    2.8080   20.6584 C.ar    1  UNL1       -0.0023
     18 C           3.3880    3.1173   21.0294 C.ar    1  UNL1       -0.0026
     19 C           3.6879    4.2400   21.9779 C.ar    1  UNL1       -0.0003
     20 C           2.5677    5.0533   22.5554 C.ar    1  UNL1       -0.0000
     21 C           1.1475    4.7440   22.1844 C.ar    1  UNL1       -0.0003
     22 C           0.8476    3.6214   21.2359 C.ar    1  UNL1       -0.0026
     23 C           4.6963   -3.9017   19.5179 C.3     1  UNL1        0.0252
     24 C           6.1863   -3.8416   19.6798 C.3     1  UNL1        0.0021
     25 C           3.2063   -3.9618   19.3559 C.3     1  UNL1        0.0021
     26 C           4.8394   -5.1182   18.6519 C.3     1  UNL1        0.0021
     27 C           7.7221   -2.4941   24.1723 C.3     1  UNL1        0.0484
     28 C           7.8152   -3.9856   24.3012 C.ar    1  UNL1       -0.0204
     29 C           8.3378   -4.8058   23.1593 C.ar    1  UNL1       -0.0042
     30 C           8.4310   -6.2974   23.2881 C.ar    1  UNL1       -0.0003
     31 C           8.0015   -6.9687   24.5589 C.ar    1  UNL1       -0.0000
     32 C           7.4788   -6.1484   25.7008 C.ar    1  UNL1       -0.0003
     33 C           7.3857   -4.6569   25.5720 C.ar    1  UNL1       -0.0042
     34 C           5.7262    0.1512   25.2827 C.3     1  UNL1        0.0508
     35 C           4.5587    0.9476   25.7855 C.3     1  UNL1        0.0784
     36 C           4.4038    1.4274   28.3342 C.2     1  UNL1        0.2404
     37 O           5.4301    2.5121   28.1924 O.2     1  UNL1       -0.2733
     38 N           3.9681    0.6451   27.1308 N.am    1  UNL1       -0.3042
     39 H           3.2946   -0.0668   27.2239 H       1  UNL1        0.1494
     40 C           3.8132    1.1248   29.6795 C.3     1  UNL1        0.1509
     41 C           1.5172   -0.0289   29.2964 C.2     1  UNL1        0.4021
     42 O           2.1997   -1.1416   28.5574 O.2     1  UNL1       -0.2264
     43 N           2.3240    1.1044   29.8574 N.am    1  UNL1       -0.2640
     44 H           1.8761    1.8347   30.3423 H       1  UNL1        0.1532
     45 C          -0.8558    0.6435   28.4798 C.3     1  UNL1        0.2573
     46 O           0.0279   -0.0493   29.4742 O.3     1  UNL1       -0.4306
     47 C           4.7120    0.8428   30.8469 C.3     1  UNL1        0.0251
     48 C           4.2374    2.0988   31.5157 C.3     1  UNL1        0.0021
     49 C           5.1865   -0.4132   30.1781 C.3     1  UNL1        0.0021
     50 C           5.6107    0.5607   32.0142 C.3     1  UNL1        0.0021
     51 C           3.9818    2.0465   24.9431 C.3     1  UNL1        0.0460
     52 C           2.5191    2.3676   25.0282 C.ar    1  UNL1       -0.0205
     53 C           1.5175    1.4929   24.3341 C.ar    1  UNL1       -0.0042
     54 C           0.0548    1.8140   24.4192 C.ar    1  UNL1        0.0012
     55 C          -0.4064    3.0099   25.1984 C.ar    1  UNL1        0.0176
     56 C           0.5951    3.8846   25.8925 C.ar    1  UNL1        0.0012
     57 C           2.0578    3.5635   25.8074 C.ar    1  UNL1       -0.0042
     58 C          -1.8691    3.3310   25.2835 C.ar    1  UNL1        0.0813
     59 C          -2.6934    3.4113   24.0328 C.ar    1  UNL1        0.0191
     60 C          -4.1562    3.7324   24.1180 C.ar    1  UNL1        0.0031
     61 C          -4.7946    3.9733   25.4537 C.ar    1  UNL1        0.0207
     62 C          -3.9704    3.8931   26.7044 C.ar    1  UNL1        0.0988
     63 N          -2.5077    3.5719   26.6193 N.ar    1  UNL1       -0.2438
@<TRIPOS>BOND
     1    45    46    1
     2    46    41    1
     3    41    42    2
     4    41    43   am
     5    40    43    1
     6    40    36    1
     7    36    37    2
     8    36    38   am
     9    38    35    1
    10    35    51    1
    11    51    52    1
    12    52    53   ar
    13    53    54   ar
    14    54    55   ar
    15    55    58    1
    16    58    59   ar
    17    59    60   ar
    18    60    61   ar
    19    61    62   ar
    20    62    63   ar
    21    55    56   ar
    22    56    57   ar
    23    35    34    1
    24    34     1    1
    25     1     2    1
    26     1     4    1
    27     4    27    1
    28    27    28    1
    29    28    29   ar
    30    29    30   ar
    31    30    31   ar
    32    31    32   ar
    33    32    33   ar
    34     4     5    1
    35     5     6   am
    36     6     7    2
    37     6     9    1
    38     9    10    1
    39    10    11    1
    40    11    12    1
    41    12    13    1
    42    13    16    1
    43    16    17    1
    44    17    18   ar
    45    18    19   ar
    46    19    20   ar
    47    20    21   ar
    48    21    22   ar
    49    13    14   am
    50    14    15    2
    51     9    23    1
    52    23    24    1
    53    23    25    1
    54    23    26    1
    55    40    47    1
    56    47    48    1
    57    47    49    1
    58    47    50    1
    59    57    52   ar
    60    33    28   ar
    61    14    10   am
    62    63    58   ar
    63    22    17   ar
    64    43    44    1
    65    38    39    1
    66     2     3    1
    67     5     8    1
@<TRIPOS>MOLECULE
*****
 63 67 0 0 0
SMALL
GASTEIGER

@<TRIPOS>ATOM
      1 C           0.3757    2.9879   23.2707 C.3     1  UNL1        0.1303
      2 O          -1.0336    3.1660   23.7526 O.3     1  UNL1       -0.3827
      3 H          -1.2173    2.5264   24.4584 H       1  UNL1        0.2104
      4 C           1.2509    1.9358   23.8847 C.3     1  UNL1        0.1027
      5 N           1.9058    2.1852   25.2109 N.am    1  UNL1       -0.3019
      6 C           1.1227    2.0119   26.4785 C.2     1  UNL1        0.2406
      7 O          -0.3153    1.5892   26.4197 O.2     1  UNL1       -0.2733
      8 H           2.8496    2.4626   25.2495 H       1  UNL1        0.1495
      9 C           1.7775    2.2613   27.8047 C.3     1  UNL1        0.1529
     10 N           3.0634    1.5696   28.1482 N.am    1  UNL1       -0.2555
     11 C           4.4019    2.2268   28.3108 C.3     1  UNL1        0.1169
     12 C           5.4023    1.1626   28.6524 C.3     1  UNL1        0.1168
     13 N           4.6820   -0.1523   28.7009 N.am    1  UNL1       -0.2582
     14 C           3.2365    0.0992   28.3892 C.2     1  UNL1        0.3078
     15 O           2.1542   -0.9375   28.3292 O.2     1  UNL1       -0.2523
     16 C           5.2990   -1.4848   29.0072 C.3     1  UNL1        0.1217
     17 C           5.8095   -2.3490   27.8926 C.ar    1  UNL1       -0.0023
     18 C           5.7180   -1.8736   26.4729 C.ar    1  UNL1       -0.0026
     19 C           6.2285   -2.7377   25.3582 C.ar    1  UNL1       -0.0003
     20 C           6.8305   -4.0773   25.6632 C.ar    1  UNL1       -0.0000
     21 C           6.9220   -4.5527   27.0829 C.ar    1  UNL1       -0.0003
     22 C           6.4115   -3.6886   28.1976 C.ar    1  UNL1       -0.0026
     23 C           1.1465    3.2025   28.7875 C.3     1  UNL1        0.0252
     24 C           0.8201    2.0461   29.6854 C.3     1  UNL1        0.0021
     25 C           1.4729    4.3589   27.8897 C.3     1  UNL1        0.0021
     26 C           0.5155    4.1438   29.7704 C.3     1  UNL1        0.0021
     27 C           1.4713    0.6341   23.1724 C.3     1  UNL1        0.0484
     28 C           2.8584    0.2194   22.7800 C.ar    1  UNL1       -0.0204
     29 C           3.2284   -1.2340   22.7573 C.ar    1  UNL1       -0.0042
     30 C           4.6155   -1.6488   22.3649 C.ar    1  UNL1       -0.0003
     31 C           5.6326   -0.6101   21.9952 C.ar    1  UNL1       -0.0000
     32 C           5.2625    0.8434   22.0179 C.ar    1  UNL1       -0.0003
     33 C           3.8754    1.2582   22.4103 C.ar    1  UNL1       -0.0042
     34 C           0.9097    3.8618   22.1749 C.3     1  UNL1        0.0508
     35 C           0.0725    4.1393   20.9615 C.3     1  UNL1        0.0784
     36 C          -2.5222    4.0362   21.0455 C.2     1  UNL1        0.2404
     37 O          -2.4698    2.5511   20.8413 O.2     1  UNL1       -0.2733
     38 N          -1.2510    4.8303   21.1056 N.am    1  UNL1       -0.3042
     39 H          -1.2854    5.8050   21.2396 H       1  UNL1        0.1494
     40 C          -3.8457    4.7273   21.1895 C.3     1  UNL1        0.1509
     41 C          -4.2419    4.7418   23.7571 C.2     1  UNL1        0.4021
     42 O          -3.9919    3.2635   23.8040 O.2     1  UNL1       -0.2264
     43 N          -4.1688    5.4737   22.4498 N.am    1  UNL1       -0.2640
     44 H          -4.3329    6.4439   22.4190 H       1  UNL1        0.1532
     45 C          -4.6196    4.7597   26.3275 C.3     1  UNL1        0.2573
     46 O          -4.5650    5.4882   25.0175 O.3     1  UNL1       -0.4306
     47 C          -4.8461    4.6719   20.0732 C.3     1  UNL1        0.0251
     48 C          -5.7436    3.8188   20.9199 C.3     1  UNL1        0.0021
     49 C          -3.9486    5.5250   19.2266 C.3     1  UNL1        0.0021
     50 C          -5.8465    4.6165   18.9569 C.3     1  UNL1        0.0021
     51 C           0.5589    3.7257   19.6042 C.3     1  UNL1        0.0460
     52 C           1.3147    2.4408   19.4376 C.ar    1  UNL1       -0.0205
     53 C           2.7437    2.4649   18.9824 C.ar    1  UNL1       -0.0042
     54 C           3.4995    1.1799   18.8159 C.ar    1  UNL1        0.0012
     55 C           2.8263   -0.1290   19.1046 C.ar    1  UNL1        0.0176
     56 C           1.3972   -0.1531   19.5598 C.ar    1  UNL1        0.0012
     57 C           0.6414    1.1318   19.7263 C.ar    1  UNL1       -0.0042
     58 C           3.5821   -1.4139   18.9381 C.ar    1  UNL1        0.0813
     59 C           2.9573   -2.7114   19.3578 C.ar    1  UNL1        0.0191
     60 C           3.7132   -3.9963   19.1912 C.ar    1  UNL1        0.0031
     61 C           5.0938   -3.9837   18.6050 C.ar    1  UNL1        0.0207
     62 C           5.7186   -2.6862   18.1853 C.ar    1  UNL1        0.0988
     63 N           4.9628   -1.4014   18.3518 N.ar    1  UNL1       -0.2438
@<TRIPOS>BOND
     1    45    46    1
     2    46    41    1
     3    41    42    2
     4    41    43   am
     5    40    43    1
     6    40    36    1
     7    36    37    2
     8    36    38   am
     9    38    35    1
    10    35    51    1
    11    51    52    1
    12    52    53   ar
    13    53    54   ar
    14    54    55   ar
    15    55    58    1
    16    58    59   ar
    17    59    60   ar
    18    60    61   ar
    19    61    62   ar
    20    62    63   ar
    21    55    56   ar
    22    56    57   ar
    23    35    34    1
    24    34     1    1
    25     1     2    1
    26     1     4    1
    27     4    27    1
    28    27    28    1
    29    28    29   ar
    30    29    30   ar
    31    30    31   ar
    32    31    32   ar
    33    32    33   ar
    34     4     5    1
    35     5     6   am
    36     6     7    2
    37     6     9    1
    38     9    10    1
    39    10    11    1
    40    11    12    1
    41    12    13    1
    42    13    16    1
    43    16    17    1
    44    17    18   ar
    45    18    19   ar
    46    19    20   ar
    47    20    21   ar
    48    21    22   ar
    49    13    14   am
    50    14    15    2
    51     9    23    1
    52    23    24    1
    53    23    25    1
    54    23    26    1
    55    40    47    1
    56    47    48    1
    57    47    49    1
    58    47    50    1
    59    57    52   ar
    60    33    28   ar
    61    14    10   am
    62    63    58   ar
    63    22    17   ar
    64    43    44    1
    65    38    39    1
    66     2     3    1
    67     5     8    1
