@<TRIPOS>MOLECULE
*****
 34 38 0 0 0
SMALL
GASTEIGER

@<TRIPOS>ATOM
      1 C           5.8768   -3.1962   21.6120 C.ar    1  UNL1        0.2601
      2 N           5.6930   -3.1249   23.0990 N.ar    1  UNL1       -0.1870
      3 C           6.5622   -4.1754   23.7242 C.ar    1  UNL1        0.2036
      4 N           7.2831   -4.8959   22.6237 N.ar    1  UNL1       -0.0556
      5 O           6.8595   -4.2907   21.3182 O.2     1  UNL1       -0.3324
      6 C           6.6884   -4.4562   25.1924 C.ar    1  UNL1        0.0392
      7 C           7.1744   -5.7957   25.6607 C.ar    1  UNL1        0.0046
      8 C           7.3006   -6.0764   27.1288 C.ar    1  UNL1        0.0173
      9 C           6.9407   -5.0176   28.1285 C.ar    1  UNL1        0.0596
     10 C           6.4546   -3.6781   27.6601 C.ar    1  UNL1        0.0170
     11 C           6.3285   -3.3974   26.1921 C.ar    1  UNL1        0.0046
     12 C           6.1761   -2.8369   28.8704 C.ar    1  UNL1        0.0142
     13 C           6.4900   -3.6566   30.0868 C.ar    1  UNL1        0.0371
     14 N           6.9625   -5.0043   29.6283 N.ar    1  UNL1       -0.3306
     15 C           7.2764   -5.8239   30.8447 C.3     1  UNL1        0.1061
     16 C           6.9979   -4.9828   32.0550 C.3     1  UNL1        0.0307
     17 C           6.5118   -3.6433   31.5866 C.3     1  UNL1        0.0458
     18 C           6.1169   -2.4924   32.4640 C.3     1  UNL1        0.0476
     19 C           4.6671   -2.1599   32.6575 C.2     1  UNL1        0.0507
     20 O           3.8849   -2.8241   33.7515 O.co2   1  UNL1       -0.5492
     21 O           3.9996   -1.1631   31.7570 O.co2   1  UNL1       -0.5492
     22 C           5.3260   -0.7670   18.5224 C.ar    1  UNL1        0.0716
     23 C           3.8377   -0.5848   18.5668 C.ar    1  UNL1        0.0475
     24 C           3.0291   -1.2731   19.6263 C.ar    1  UNL1        0.1476
     25 C           3.7088   -2.1435   20.6413 C.ar    1  UNL1        0.0420
     26 C           5.1971   -2.3257   20.5969 C.ar    1  UNL1        0.0598
     27 C           6.0056   -1.6374   19.5374 C.ar    1  UNL1        0.0152
     28 N           6.9430    0.6096   16.4034 N.1     1  UNL1       -0.1908
     29 C           6.1345   -0.0787   17.4629 C.1     1  UNL1        0.1005
     30 O           1.5409   -1.0909   19.6707 O.3     1  UNL1       -0.4044
     31 C           0.9562    0.2882   19.7485 C.3     1  UNL1        0.5753
     32 F           0.3714    1.6674   19.8264 F       1  UNL1       -0.1328
     33 F           0.9859    0.2163   21.2465 F       1  UNL1       -0.1328
     34 F           0.9264    0.3602   18.2506 F       1  UNL1       -0.1328
@<TRIPOS>UNITY_ATOM_ATTR
20 1
charge -1
@<TRIPOS>BOND
     1    28    29    3
     2    29    22    1
     3    22    23   ar
     4    23    24   ar
     5    24    30    1
     6    30    31    1
     7    31    32    1
     8    31    33    1
     9    31    34    1
    10    24    25   ar
    11    25    26   ar
    12    26     1    1
    13     1     2   ar
    14     2     3   ar
    15     3     6    1
    16     6     7   ar
    17     7     8   ar
    18     8     9   ar
    19     9    10   ar
    20    10    11   ar
    21    10    12   ar
    22    12    13   ar
    23    13    14   ar
    24    14    15    1
    25    15    16    1
    26    16    17    1
    27    17    18    1
    28    18    19    1
    29    19    20   ar
    30    19    21   ar
    31     3     4   ar
    32     4     5   ar
    33    26    27   ar
    34    27    22   ar
    35     5     1   ar
    36    11     6   ar
    37    17    13    1
    38    14     9   ar
@<TRIPOS>MOLECULE
*****
 34 38 0 0 0
SMALL
GASTEIGER

@<TRIPOS>ATOM
      1 C           1.3984    1.2740   19.6499 C.ar    1  UNL1        0.2601
      2 N           0.8280    1.4645   21.0241 N.ar    1  UNL1       -0.1870
      3 C          -0.2799    2.4713   20.9307 C.ar    1  UNL1        0.2036
      4 N          -0.3943    2.9032   19.4987 N.ar    1  UNL1       -0.0556
      5 O           0.6429    2.1632   18.7071 O.2     1  UNL1       -0.3324
      6 C          -1.1251    2.9605   22.0693 C.ar    1  UNL1        0.0392
      7 C          -0.6019    2.8959   23.4735 C.ar    1  UNL1        0.0046
      8 C          -1.4471    3.3851   24.6121 C.ar    1  UNL1        0.0173
      9 C          -2.8156    3.9389   24.3463 C.ar    1  UNL1        0.0596
     10 C          -3.3388    4.0035   22.9421 C.ar    1  UNL1        0.0170
     11 C          -2.4936    3.5143   21.8035 C.ar    1  UNL1        0.0046
     12 C          -4.7160    4.5962   22.9874 C.ar    1  UNL1        0.0142
     13 C          -5.0439    4.8978   24.4197 C.ar    1  UNL1        0.0371
     14 N          -3.8694    4.4916   25.2596 N.ar    1  UNL1       -0.3306
     15 C          -4.1973    4.7933   26.6918 C.3     1  UNL1        0.1061
     16 C          -5.5745    5.3859   26.7372 C.3     1  UNL1        0.0307
     17 C          -6.0978    5.4506   25.3329 C.3     1  UNL1        0.0458
     18 C          -7.4393    5.9757   24.9152 C.3     1  UNL1        0.0476
     19 C          -8.1417    5.3814   23.7305 C.2     1  UNL1        0.0507
     20 O          -8.9004    4.0956   23.8759 O.co2   1  UNL1       -0.5492
     21 O          -8.0854    6.0728   22.4005 O.co2   1  UNL1       -0.5492
     22 C           4.7215   -0.0985   17.9699 C.ar    1  UNL1        0.0716
     23 C           4.7817   -1.4810   18.5489 C.ar    1  UNL1        0.0475
     24 C           3.7142   -1.9451   19.4949 C.ar    1  UNL1        0.1476
     25 C           2.5864   -1.0267   19.8619 C.ar    1  UNL1        0.0420
     26 C           2.5262    0.3557   19.2829 C.ar    1  UNL1        0.0598
     27 C           3.5938    0.8197   18.3369 C.ar    1  UNL1        0.0152
     28 N           6.8567    0.8296   16.0779 N.1     1  UNL1       -0.1908
     29 C           5.7891    0.3655   17.0239 C.1     1  UNL1        0.1005
     30 O           3.7745   -3.3275   20.0739 O.3     1  UNL1       -0.4044
     31 C           4.2643   -4.4710   19.2357 C.3     1  UNL1        0.5753
     32 F           4.7542   -5.6145   18.3975 F       1  UNL1       -0.1328
     33 F           2.8897   -4.6372   18.6590 F       1  UNL1       -0.1328
     34 F           5.6390   -4.3049   19.8124 F       1  UNL1       -0.1328
@<TRIPOS>UNITY_ATOM_ATTR
20 1
charge -1
@<TRIPOS>BOND
     1    28    29    3
     2    29    22    1
     3    22    23   ar
     4    23    24   ar
     5    24    30    1
     6    30    31    1
     7    31    32    1
     8    31    33    1
     9    31    34    1
    10    24    25   ar
    11    25    26   ar
    12    26     1    1
    13     1     2   ar
    14     2     3   ar
    15     3     6    1
    16     6     7   ar
    17     7     8   ar
    18     8     9   ar
    19     9    10   ar
    20    10    11   ar
    21    10    12   ar
    22    12    13   ar
    23    13    14   ar
    24    14    15    1
    25    15    16    1
    26    16    17    1
    27    17    18    1
    28    18    19    1
    29    19    20   ar
    30    19    21   ar
    31     3     4   ar
    32     4     5   ar
    33    26    27   ar
    34    27    22   ar
    35     5     1   ar
    36    11     6   ar
    37    17    13    1
    38    14     9   ar
@<TRIPOS>MOLECULE
*****
 34 38 0 0 0
SMALL
GASTEIGER

@<TRIPOS>ATOM
      1 C           0.8842    1.1340   20.3249 C.ar    1  UNL1        0.2601
      2 N          -0.3097    1.4579   21.1732 N.ar    1  UNL1       -0.1870
      3 C          -1.0418    2.5968   20.5275 C.ar    1  UNL1        0.2036
      4 N          -0.3003    2.9768   19.2802 N.ar    1  UNL1       -0.0556
      5 O           0.8900    2.0727   19.1549 O.2     1  UNL1       -0.3324
      6 C          -2.2953    3.2425   21.0393 C.ar    1  UNL1        0.0392
      7 C          -3.5231    3.2834   20.1787 C.ar    1  UNL1        0.0046
      8 C          -4.7766    3.9290   20.6905 C.ar    1  UNL1        0.0173
      9 C          -4.8022    4.5338   22.0629 C.ar    1  UNL1        0.0596
     10 C          -3.5744    4.4930   22.9235 C.ar    1  UNL1        0.0170
     11 C          -2.3209    3.8473   22.4117 C.ar    1  UNL1        0.0046
     12 C          -3.8973    5.1670   24.2241 C.ar    1  UNL1        0.0142
     13 C          -5.3247    5.6244   24.1672 C.ar    1  UNL1        0.0371
     14 N          -5.8840    5.2331   22.8316 N.ar    1  UNL1       -0.3306
     15 C          -7.3114    5.6905   22.7747 C.3     1  UNL1        0.1061
     16 C          -7.6343    6.3645   24.0753 C.3     1  UNL1        0.0307
     17 C          -6.4065    6.3236   24.9359 C.3     1  UNL1        0.0458
     18 C          -6.2822    6.8837   26.3219 C.3     1  UNL1        0.0476
     19 C          -6.1405    5.9591   27.4945 C.2     1  UNL1        0.0507
     20 O          -4.9619    5.0355   27.5832 O.co2   1  UNL1       -0.5492
     21 O          -7.1774    5.9582   28.5785 O.co2   1  UNL1       -0.5492
     22 C           3.3928   -1.2465   22.2718 C.ar    1  UNL1        0.0716
     23 C           3.9162   -2.0883   21.1458 C.ar    1  UNL1        0.0475
     24 C           3.4289   -1.8560   19.7464 C.ar    1  UNL1        0.1476
     25 C           2.4183   -0.7819   19.4727 C.ar    1  UNL1        0.0420
     26 C           1.8949    0.0598   20.5986 C.ar    1  UNL1        0.0598
     27 C           2.3822   -0.1725   21.9981 C.ar    1  UNL1        0.0152
     28 N           4.3674   -1.7113   25.0707 N.1     1  UNL1       -0.1908
     29 C           3.8801   -1.4789   23.6712 C.1     1  UNL1        0.1005
     30 O           3.9523   -2.6977   18.6206 O.3     1  UNL1       -0.4044
     31 C           4.1838   -4.1654   18.8263 C.3     1  UNL1        0.5753
     32 F           4.4152   -5.6332   19.0320 F       1  UNL1       -0.1328
     33 F           2.7083   -4.3741   18.9974 F       1  UNL1       -0.1328
     34 F           5.6592   -3.9568   18.6552 F       1  UNL1       -0.1328
@<TRIPOS>UNITY_ATOM_ATTR
20 1
charge -1
@<TRIPOS>BOND
     1    28    29    3
     2    29    22    1
     3    22    23   ar
     4    23    24   ar
     5    24    30    1
     6    30    31    1
     7    31    32    1
     8    31    33    1
     9    31    34    1
    10    24    25   ar
    11    25    26   ar
    12    26     1    1
    13     1     2   ar
    14     2     3   ar
    15     3     6    1
    16     6     7   ar
    17     7     8   ar
    18     8     9   ar
    19     9    10   ar
    20    10    11   ar
    21    10    12   ar
    22    12    13   ar
    23    13    14   ar
    24    14    15    1
    25    15    16    1
    26    16    17    1
    27    17    18    1
    28    18    19    1
    29    19    20   ar
    30    19    21   ar
    31     3     4   ar
    32     4     5   ar
    33    26    27   ar
    34    27    22   ar
    35     5     1   ar
    36    11     6   ar
    37    17    13    1
    38    14     9   ar
@<TRIPOS>MOLECULE
*****
 34 38 0 0 0
SMALL
GASTEIGER

@<TRIPOS>ATOM
      1 C          -2.3584    3.4096   21.6946 C.ar    1  UNL1        0.2601
      2 N          -1.1117    2.5765   21.6562 N.ar    1  UNL1       -0.1870
      3 C          -0.5750    2.6096   20.2559 C.ar    1  UNL1        0.2036
      4 N          -1.4901    3.4631   19.4288 N.ar    1  UNL1       -0.0556
      5 O          -2.5923    3.9576   20.3179 O.2     1  UNL1       -0.3324
      6 C           0.6599    1.9116   19.7682 C.ar    1  UNL1        0.0392
      7 C           1.5746    2.5968   18.7967 C.ar    1  UNL1        0.0046
      8 C           2.8095    1.8989   18.3090 C.ar    1  UNL1        0.0173
      9 C           3.1297    0.5156   18.7929 C.ar    1  UNL1        0.0596
     10 C           2.2151   -0.1696   19.7644 C.ar    1  UNL1        0.0170
     11 C           0.9802    0.5284   20.2520 C.ar    1  UNL1        0.0046
     12 C           2.7864   -1.5241   20.0625 C.ar    1  UNL1        0.0142
     13 C           4.0542   -1.6760   19.2752 C.ar    1  UNL1        0.0371
     14 N           4.2664   -0.4154   18.4906 N.ar    1  UNL1       -0.3306
     15 C           5.5340   -0.5673   17.7033 C.3     1  UNL1        0.1061
     16 C           6.1054   -1.9218   18.0015 C.3     1  UNL1        0.0307
     17 C           5.1907   -2.6070   18.9729 C.3     1  UNL1        0.0458
     18 C           5.3795   -3.9819   19.5422 C.3     1  UNL1        0.0476
     19 C           4.4408   -5.0876   19.1595 C.2     1  UNL1        0.0507
     20 O           2.9676   -4.8217   19.0655 O.co2   1  UNL1       -0.5492
     21 O           4.9754   -6.4590   18.8707 O.co2   1  UNL1       -0.5492
     22 C          -5.5530    4.1343   23.9350 C.ar    1  UNL1        0.0716
     23 C          -4.9432    4.1373   25.3055 C.ar    1  UNL1        0.0475
     24 C          -3.4719    3.8978   25.4724 C.ar    1  UNL1        0.1476
     25 C          -2.6103    3.6552   24.2687 C.ar    1  UNL1        0.0420
     26 C          -3.2200    3.6522   22.8982 C.ar    1  UNL1        0.0598
     27 C          -4.6914    3.8917   22.7314 C.ar    1  UNL1        0.0152
     28 N          -8.4956    4.6133   23.6014 N.1     1  UNL1       -0.1908
     29 C          -7.0243    4.3738   23.7682 C.1     1  UNL1        0.1005
     30 O          -2.8622    3.9009   26.8428 O.3     1  UNL1       -0.4044
     31 C          -1.4096    3.5705   27.0182 C.3     1  UNL1        0.5753
     32 F           0.0430    3.2400   27.1935 F       1  UNL1       -0.1328
     33 F          -1.7575    2.1187   27.1642 F       1  UNL1       -0.1328
     34 F          -1.0617    5.0222   26.8722 F       1  UNL1       -0.1328
@<TRIPOS>UNITY_ATOM_ATTR
20 1
charge -1
@<TRIPOS>BOND
     1    28    29    3
     2    29    22    1
     3    22    23   ar
     4    23    24   ar
     5    24    30    1
     6    30    31    1
     7    31    32    1
     8    31    33    1
     9    31    34    1
    10    24    25   ar
    11    25    26   ar
    12    26     1    1
    13     1     2   ar
    14     2     3   ar
    15     3     6    1
    16     6     7   ar
    17     7     8   ar
    18     8     9   ar
    19     9    10   ar
    20    10    11   ar
    21    10    12   ar
    22    12    13   ar
    23    13    14   ar
    24    14    15    1
    25    15    16    1
    26    16    17    1
    27    17    18    1
    28    18    19    1
    29    19    20   ar
    30    19    21   ar
    31     3     4   ar
    32     4     5   ar
    33    26    27   ar
    34    27    22   ar
    35     5     1   ar
    36    11     6   ar
    37    17    13    1
    38    14     9   ar
@<TRIPOS>MOLECULE
*****
 34 38 0 0 0
SMALL
GASTEIGER

@<TRIPOS>ATOM
      1 C           3.3924   -0.3616   24.1290 C.ar    1  UNL1        0.2601
      2 N           1.9349   -0.0081   24.1593 N.ar    1  UNL1       -0.1870
      3 C           1.7608    1.1616   25.0821 C.ar    1  UNL1        0.2036
      4 N           3.1106    1.5310   25.6221 N.ar    1  UNL1       -0.0556
      5 O           4.1190    0.5897   25.0331 O.2     1  UNL1       -0.3324
      6 C           0.4644    1.8424   25.4078 C.ar    1  UNL1        0.0392
      7 C          -0.0071    1.9169   26.8298 C.ar    1  UNL1        0.0046
      8 C          -1.3034    2.5977   27.1554 C.ar    1  UNL1        0.0173
      9 C          -2.1283    3.2039   26.0590 C.ar    1  UNL1        0.0596
     10 C          -1.6569    3.1293   24.6370 C.ar    1  UNL1        0.0170
     11 C          -0.3605    2.4486   24.3114 C.ar    1  UNL1        0.0046
     12 C          -2.6759    3.8129   23.7744 C.ar    1  UNL1        0.0142
     13 C          -3.7772    4.3100   24.6632 C.ar    1  UNL1        0.0371
     14 N          -3.4388    3.9336   26.0752 N.ar    1  UNL1       -0.3306
     15 C          -4.5400    4.4306   26.9640 C.3     1  UNL1        0.1061
     16 C          -5.5591    5.1142   26.1014 C.3     1  UNL1        0.0307
     17 C          -5.0877    5.0397   24.6794 C.3     1  UNL1        0.0458
     18 C          -5.8014    5.5970   23.4835 C.3     1  UNL1        0.0476
     19 C          -6.8005    4.7551   22.7467 C.2     1  UNL1        0.0507
     20 O          -6.4225    4.1071   21.4478 O.co2   1  UNL1       -0.5492
     21 O          -8.1777    4.5612   23.3088 O.co2   1  UNL1       -0.5492
     22 C           5.6505   -3.4832   23.1771 C.ar    1  UNL1        0.0716
     23 C           5.2575   -3.6910   21.7445 C.ar    1  UNL1        0.0475
     24 C           4.2428   -2.7891   21.1067 C.ar    1  UNL1        0.1476
     25 C           3.6211   -1.6792   21.9015 C.ar    1  UNL1        0.0420
     26 C           4.0141   -1.4714   23.3341 C.ar    1  UNL1        0.0598
     27 C           5.0288   -2.3734   23.9719 C.ar    1  UNL1        0.0152
     28 N           7.6800   -5.2872   24.4526 N.1     1  UNL1       -0.1908
     29 C           6.6652   -4.3852   23.8149 C.1     1  UNL1        0.1005
     30 O           3.8498   -2.9969   19.6741 O.3     1  UNL1       -0.4044
     31 C           4.2628   -4.2479   18.9570 C.3     1  UNL1        0.5753
     32 F           4.6760   -5.4991   18.2399 F       1  UNL1       -0.1328
     33 F           5.4594   -3.5343   18.4013 F       1  UNL1       -0.1328
     34 F           3.0663   -4.9616   19.5127 F       1  UNL1       -0.1328
@<TRIPOS>UNITY_ATOM_ATTR
20 1
charge -1
@<TRIPOS>BOND
     1    28    29    3
     2    29    22    1
     3    22    23   ar
     4    23    24   ar
     5    24    30    1
     6    30    31    1
     7    31    32    1
     8    31    33    1
     9    31    34    1
    10    24    25   ar
    11    25    26   ar
    12    26     1    1
    13     1     2   ar
    14     2     3   ar
    15     3     6    1
    16     6     7   ar
    17     7     8   ar
    18     8     9   ar
    19     9    10   ar
    20    10    11   ar
    21    10    12   ar
    22    12    13   ar
    23    13    14   ar
    24    14    15    1
    25    15    16    1
    26    16    17    1
    27    17    18    1
    28    18    19    1
    29    19    20   ar
    30    19    21   ar
    31     3     4   ar
    32     4     5   ar
    33    26    27   ar
    34    27    22   ar
    35     5     1   ar
    36    11     6   ar
    37    17    13    1
    38    14     9   ar
@<TRIPOS>MOLECULE
*****
 34 38 0 0 0
SMALL
GASTEIGER

@<TRIPOS>ATOM
      1 C           7.0018   -4.9201   24.1318 C.ar    1  UNL1        0.2601
      2 N           5.9226   -3.9363   23.7893 N.ar    1  UNL1       -0.1870
      3 C           5.9165   -3.7548   22.3003 C.ar    1  UNL1        0.2036
      4 N           6.9918   -4.6266   21.7226 N.ar    1  UNL1       -0.0556
      5 O           7.6626   -5.3468   22.8546 O.2     1  UNL1       -0.3324
      6 C           4.9964   -2.8589   21.5251 C.ar    1  UNL1        0.0392
      7 C           5.0226   -2.8740   20.0254 C.ar    1  UNL1        0.0046
      8 C           4.1026   -1.9781   19.2502 C.ar    1  UNL1        0.0173
      9 C           3.1564   -1.0671   19.9747 C.ar    1  UNL1        0.0596
     10 C           3.1303   -1.0520   21.4744 C.ar    1  UNL1        0.0170
     11 C           4.0502   -1.9479   22.2496 C.ar    1  UNL1        0.0046
     12 C           2.0975   -0.0552   21.9099 C.ar    1  UNL1        0.0142
     13 C           1.4853    0.5458   20.6794 C.ar    1  UNL1        0.0371
     14 N           2.1398   -0.0796   19.4834 N.ar    1  UNL1       -0.3306
     15 C           1.5277    0.5214   18.2530 C.3     1  UNL1        0.1061
     16 C           0.4949    1.5182   18.6885 C.3     1  UNL1        0.0307
     17 C           0.4687    1.5332   20.1882 C.3     1  UNL1        0.0458
     18 C          -0.4184    2.3861   21.0460 C.3     1  UNL1        0.0476
     19 C          -1.5452    3.1575   20.4254 C.2     1  UNL1        0.0507
     20 O          -2.9646    2.7369   20.6671 O.co2   1  UNL1       -0.5492
     21 O          -1.2527    4.3495   19.5630 O.co2   1  UNL1       -0.5492
     22 C           7.8821   -7.3344   27.1561 C.ar    1  UNL1        0.0716
     23 C           8.0695   -6.3422   28.2655 C.ar    1  UNL1        0.0475
     24 C           7.9010   -4.8762   27.9970 C.ar    1  UNL1        0.1476
     25 C           7.5451   -4.4021   26.6191 C.ar    1  UNL1        0.0420
     26 C           7.3577   -5.3942   25.5098 C.ar    1  UNL1        0.0598
     27 C           7.5262   -6.8603   25.7783 C.ar    1  UNL1        0.0152
     28 N           8.2192  -10.2666   27.6933 N.1     1  UNL1       -0.1908
     29 C           8.0506   -8.8005   27.4247 C.1     1  UNL1        0.1005
     30 O           8.0884   -3.8841   29.1064 O.3     1  UNL1       -0.4044
     31 C           7.1271   -3.8558   30.2575 C.3     1  UNL1        0.5753
     32 F           6.1658   -3.8276   31.4087 F       1  UNL1       -0.1328
     33 F           6.1280   -3.1309   29.4054 F       1  UNL1       -0.1328
     34 F           8.1262   -4.5808   31.1097 F       1  UNL1       -0.1328
@<TRIPOS>UNITY_ATOM_ATTR
20 1
charge -1
@<TRIPOS>BOND
     1    28    29    3
     2    29    22    1
     3    22    23   ar
     4    23    24   ar
     5    24    30    1
     6    30    31    1
     7    31    32    1
     8    31    33    1
     9    31    34    1
    10    24    25   ar
    11    25    26   ar
    12    26     1    1
    13     1     2   ar
    14     2     3   ar
    15     3     6    1
    16     6     7   ar
    17     7     8   ar
    18     8     9   ar
    19     9    10   ar
    20    10    11   ar
    21    10    12   ar
    22    12    13   ar
    23    13    14   ar
    24    14    15    1
    25    15    16    1
    26    16    17    1
    27    17    18    1
    28    18    19    1
    29    19    20   ar
    30    19    21   ar
    31     3     4   ar
    32     4     5   ar
    33    26    27   ar
    34    27    22   ar
    35     5     1   ar
    36    11     6   ar
    37    17    13    1
    38    14     9   ar
@<TRIPOS>MOLECULE
*****
 34 38 0 0 0
SMALL
GASTEIGER

@<TRIPOS>ATOM
      1 C           4.2518   -1.8094   23.6750 C.ar    1  UNL1        0.2601
      2 N           3.8652   -1.2101   24.9946 N.ar    1  UNL1       -0.1870
      3 C           4.8074   -1.7363   26.0364 C.ar    1  UNL1        0.2036
      4 N           5.7762   -2.6608   25.3607 N.ar    1  UNL1       -0.0556
      5 O           5.4328   -2.7061   23.9013 O.2     1  UNL1       -0.3324
      6 C           4.7847   -1.3974   27.4975 C.ar    1  UNL1        0.0392
      7 C           5.8053   -1.9929   28.4215 C.ar    1  UNL1        0.0046
      8 C           5.7826   -1.6541   29.8825 C.ar    1  UNL1        0.0173
      9 C           4.7393   -0.7196   30.4196 C.ar    1  UNL1        0.0596
     10 C           3.7188   -0.1241   29.4956 C.ar    1  UNL1        0.0170
     11 C           3.7415   -0.4629   28.0346 C.ar    1  UNL1        0.0046
     12 C           2.8181    0.7591   30.3073 C.ar    1  UNL1        0.0142
     13 C           3.2821    0.7094   31.7329 C.ar    1  UNL1        0.0371
     14 N           4.4694   -0.2045   31.8023 N.ar    1  UNL1       -0.3306
     15 C           4.9333   -0.2542   33.2278 C.3     1  UNL1        0.1061
     16 C           4.0327    0.6290   34.0395 C.3     1  UNL1        0.0307
     17 C           3.0121    1.2246   33.1155 C.3     1  UNL1        0.0458
     18 C           1.9143    2.1694   33.5057 C.3     1  UNL1        0.0476
     19 C           2.1608    3.2137   34.5539 C.2     1  UNL1        0.0507
     20 O           1.9961    2.8730   36.0053 O.co2   1  UNL1       -0.5492
     21 O           2.5721    4.5987   34.1506 O.co2   1  UNL1       -0.5492
     22 C           1.7692   -0.3219   20.9595 C.ar    1  UNL1        0.0716
     23 C           2.2243   -1.0508   19.7300 C.ar    1  UNL1        0.0475
     24 C           3.3550   -2.0325   19.8154 C.ar    1  UNL1        0.1476
     25 C           4.0309   -2.2854   21.1305 C.ar    1  UNL1        0.0420
     26 C           3.5759   -1.5565   22.3600 C.ar    1  UNL1        0.0598
     27 C           2.4451   -0.5748   22.2744 C.ar    1  UNL1        0.0152
     28 N          -0.4925    1.6417   20.7884 N.1     1  UNL1       -0.1908
     29 C           0.6384    0.6599   20.8740 C.1     1  UNL1        0.1005
     30 O           3.8100   -2.7614   18.5859 O.3     1  UNL1       -0.4044
     31 C           4.2604   -4.1888   18.6839 C.3     1  UNL1        0.5753
     32 F           4.7109   -5.6163   18.7818 F       1  UNL1       -0.1328
     33 F           5.6477   -3.7783   18.2876 F       1  UNL1       -0.1328
     34 F           2.8733   -4.5994   19.0801 F       1  UNL1       -0.1328
@<TRIPOS>UNITY_ATOM_ATTR
20 1
charge -1
@<TRIPOS>BOND
     1    28    29    3
     2    29    22    1
     3    22    23   ar
     4    23    24   ar
     5    24    30    1
     6    30    31    1
     7    31    32    1
     8    31    33    1
     9    31    34    1
    10    24    25   ar
    11    25    26   ar
    12    26     1    1
    13     1     2   ar
    14     2     3   ar
    15     3     6    1
    16     6     7   ar
    17     7     8   ar
    18     8     9   ar
    19     9    10   ar
    20    10    11   ar
    21    10    12   ar
    22    12    13   ar
    23    13    14   ar
    24    14    15    1
    25    15    16    1
    26    16    17    1
    27    17    18    1
    28    18    19    1
    29    19    20   ar
    30    19    21   ar
    31     3     4   ar
    32     4     5   ar
    33    26    27   ar
    34    27    22   ar
    35     5     1   ar
    36    11     6   ar
    37    17    13    1
    38    14     9   ar
@<TRIPOS>MOLECULE
*****
 34 38 0 0 0
SMALL
GASTEIGER

@<TRIPOS>ATOM
      1 C          -2.5339    3.6903   20.8798 C.ar    1  UNL1        0.2601
      2 N          -1.6799    2.4648   21.0173 N.ar    1  UNL1       -0.1870
      3 C          -0.5568    2.5691   20.0285 C.ar    1  UNL1        0.2036
      4 N          -0.7167    3.8591   19.2798 N.ar    1  UNL1       -0.0556
      5 O          -1.9386    4.5520   19.8059 O.2     1  UNL1       -0.3324
      6 C           0.5346    1.5605   19.8242 C.ar    1  UNL1        0.0392
      7 C           1.1382    1.3739   18.4638 C.ar    1  UNL1        0.0046
      8 C           2.2296    0.3654   18.2595 C.ar    1  UNL1        0.0173
      9 C           2.7173   -0.4565   19.4156 C.ar    1  UNL1        0.0596
     10 C           2.1136   -0.2699   20.7760 C.ar    1  UNL1        0.0170
     11 C           1.0223    0.7387   20.9803 C.ar    1  UNL1        0.0046
     12 C           2.7942   -1.2173   21.7190 C.ar    1  UNL1        0.0142
     13 C           3.8184   -1.9895   20.9414 C.ar    1  UNL1        0.0371
     14 N           3.7709   -1.5193   19.5178 N.ar    1  UNL1       -0.3306
     15 C           4.7951   -2.2915   18.7403 C.3     1  UNL1        0.1061
     16 C           5.4757   -3.2389   19.6833 C.3     1  UNL1        0.0307
     17 C           4.8720   -3.0522   21.0437 C.3     1  UNL1        0.0458
     18 C           5.2548   -3.7975   22.2879 C.3     1  UNL1        0.0476
     19 C           6.3271   -3.2563   23.1864 C.2     1  UNL1        0.0507
     20 O           7.6678   -2.8937   22.6199 O.co2   1  UNL1       -0.5492
     21 O           6.0588   -3.0779   24.6514 O.co2   1  UNL1       -0.5492
     22 C          -6.1292    5.0679   21.8418 C.ar    1  UNL1        0.0716
     23 C          -6.2323    4.6187   23.2693 C.ar    1  UNL1        0.0475
     24 C          -5.1026    3.8600   23.9002 C.ar    1  UNL1        0.1476
     25 C          -3.8698    3.5505   23.1037 C.ar    1  UNL1        0.0420
     26 C          -3.7667    3.9998   21.6763 C.ar    1  UNL1        0.0598
     27 C          -4.8964    4.7585   21.0454 C.ar    1  UNL1        0.0152
     28 N          -8.3887    6.5853   20.5800 N.1     1  UNL1       -0.1908
     29 C          -7.2589    5.8266   21.2109 C.1     1  UNL1        0.1005
     30 O          -5.2057    3.4108   25.3276 O.3     1  UNL1       -0.4044
     31 C          -4.6042    4.2430   26.4211 C.3     1  UNL1        0.5753
     32 F          -4.0027    5.0752   27.5146 F       1  UNL1       -0.1328
     33 F          -5.8637    5.0542   26.4965 F       1  UNL1       -0.1328
     34 F          -3.3448    3.4318   26.3458 F       1  UNL1       -0.1328
@<TRIPOS>UNITY_ATOM_ATTR
20 1
charge -1
@<TRIPOS>BOND
     1    28    29    3
     2    29    22    1
     3    22    23   ar
     4    23    24   ar
     5    24    30    1
     6    30    31    1
     7    31    32    1
     8    31    33    1
     9    31    34    1
    10    24    25   ar
    11    25    26   ar
    12    26     1    1
    13     1     2   ar
    14     2     3   ar
    15     3     6    1
    16     6     7   ar
    17     7     8   ar
    18     8     9   ar
    19     9    10   ar
    20    10    11   ar
    21    10    12   ar
    22    12    13   ar
    23    13    14   ar
    24    14    15    1
    25    15    16    1
    26    16    17    1
    27    17    18    1
    28    18    19    1
    29    19    20   ar
    30    19    21   ar
    31     3     4   ar
    32     4     5   ar
    33    26    27   ar
    34    27    22   ar
    35     5     1   ar
    36    11     6   ar
    37    17    13    1
    38    14     9   ar
@<TRIPOS>MOLECULE
*****
 34 38 0 0 0
SMALL
GASTEIGER

@<TRIPOS>ATOM
      1 C          -0.0335    1.4605   26.7627 C.ar    1  UNL1        0.2601
      2 N           1.1949    1.2045   27.5846 N.ar    1  UNL1       -0.1870
      3 C           0.7597    0.9115   28.9898 C.ar    1  UNL1        0.2036
      4 N          -0.7377    0.9865   29.0365 N.ar    1  UNL1       -0.0556
      5 O          -1.2280    1.3258   27.6601 O.2     1  UNL1       -0.3324
      6 C           1.6633    0.5985   30.1455 C.ar    1  UNL1        0.0392
      7 C           2.5902   -0.5788   30.0755 C.ar    1  UNL1        0.0046
      8 C           3.4937   -0.8917   31.2312 C.ar    1  UNL1        0.0173
      9 C           3.4703   -0.0275   32.4569 C.ar    1  UNL1        0.0596
     10 C           2.5435    1.1498   32.5270 C.ar    1  UNL1        0.0170
     11 C           1.6399    1.4627   31.3713 C.ar    1  UNL1        0.0046
     12 C           2.7403    1.8162   33.8563 C.ar    1  UNL1        0.0142
     13 C           3.7889    1.0509   34.6078 C.ar    1  UNL1        0.0371
     14 N           4.2401   -0.0886   33.7430 N.ar    1  UNL1       -0.3306
     15 C           5.2886   -0.8539   34.4944 C.3     1  UNL1        0.1061
     16 C           5.4855   -0.1875   35.8237 C.3     1  UNL1        0.0307
     17 C           4.5586    0.9898   35.8938 C.3     1  UNL1        0.0458
     18 C           4.4249    1.9393   37.0473 C.3     1  UNL1        0.0476
     19 C           3.2672    1.8126   37.9927 C.2     1  UNL1        0.0507
     20 O           1.9355    2.4000   37.6305 O.co2   1  UNL1       -0.5492
     21 O           3.4414    1.0984   39.3003 O.co2   1  UNL1       -0.5492
     22 C          -0.9349    3.2632   23.3440 C.ar    1  UNL1        0.0716
     23 C          -0.1203    2.4578   22.3755 C.ar    1  UNL1        0.0475
     24 C           0.7231    1.3200   22.8694 C.ar    1  UNL1        0.1476
     25 C           0.7521    0.9876   24.3319 C.ar    1  UNL1        0.0420
     26 C          -0.0624    1.7930   25.3003 C.ar    1  UNL1        0.0598
     27 C          -0.9059    2.9307   24.8063 C.ar    1  UNL1        0.0152
     28 N          -2.6219    5.5388   22.3561 N.1     1  UNL1       -0.1908
     29 C          -1.7784    4.4010   22.8501 C.1     1  UNL1        0.1005
     30 O           1.5377    0.5147   21.9010 O.3     1  UNL1       -0.4044
     31 C           1.1749    0.5012   20.4456 C.3     1  UNL1        0.5753
     32 F           0.8122    0.4877   18.9901 F       1  UNL1       -0.1328
     33 F           2.2539    1.5053   20.1673 F       1  UNL1       -0.1328
     34 F           0.0960   -0.5030   20.7237 F       1  UNL1       -0.1328
@<TRIPOS>UNITY_ATOM_ATTR
20 1
charge -1
@<TRIPOS>BOND
     1    28    29    3
     2    29    22    1
     3    22    23   ar
     4    23    24   ar
     5    24    30    1
     6    30    31    1
     7    31    32    1
     8    31    33    1
     9    31    34    1
    10    24    25   ar
    11    25    26   ar
    12    26     1    1
    13     1     2   ar
    14     2     3   ar
    15     3     6    1
    16     6     7   ar
    17     7     8   ar
    18     8     9   ar
    19     9    10   ar
    20    10    11   ar
    21    10    12   ar
    22    12    13   ar
    23    13    14   ar
    24    14    15    1
    25    15    16    1
    26    16    17    1
    27    17    18    1
    28    18    19    1
    29    19    20   ar
    30    19    21   ar
    31     3     4   ar
    32     4     5   ar
    33    26    27   ar
    34    27    22   ar
    35     5     1   ar
    36    11     6   ar
    37    17    13    1
    38    14     9   ar
