@<TRIPOS>MOLECULE
*****
 32 35 0 0 0
SMALL
GASTEIGER

@<TRIPOS>ATOM
      1 C          -6.2165  -16.1165   23.8786 C.3     1  UNL1        0.0634
      2 C          -5.0128  -16.5251   24.6748 C.3     1  UNL1        0.0393
      3 C          -4.8083  -15.5098   25.7600 C.3     1  UNL1        0.1452
      4 O          -5.8857  -14.4738   25.6344 O.3     1  UNL1       -0.3306
      5 C          -6.7561  -14.8487   24.4716 C.3     1  UNL1        0.2320
      6 O          -7.9553  -14.0892   23.9870 O.3     1  UNL1       -0.3601
      7 H          -8.3384  -14.5445   23.2210 H       1  UNL1        0.2129
      8 C          -6.7816  -16.8474   22.6968 C.3     1  UNL1        0.0317
      9 C         -10.6638  -16.7466   21.8792 C.ar    1  UNL1        0.1751
     10 C          -9.2109  -16.3746   21.9064 C.ar    1  UNL1        0.0360
     11 C          -8.2345  -17.2195   22.6697 C.ar    1  UNL1       -0.0158
     12 C          -8.7109  -18.4365   23.4058 C.ar    1  UNL1        0.0360
     13 C         -10.1637  -18.8085   23.3787 C.ar    1  UNL1        0.1751
     14 C         -11.1402  -17.9636   22.6154 C.ar    1  UNL1        0.2060
     15 C         -11.6080  -15.8877   19.6164 C.3     1  UNL1        0.2526
     16 O         -11.6402  -15.9017   21.1159 O.3     1  UNL1       -0.4683
     17 O         -10.6401  -20.0256   24.1148 O.3     1  UNL1       -0.4683
     18 C          -9.6561  -21.0675   24.5575 C.3     1  UNL1        0.2526
     19 O         -12.5931  -18.3357   22.5882 O.3     1  UNL1       -0.4654
     20 C         -13.5006  -17.8967   23.6990 C.3     1  UNL1        0.2528
     21 C          -4.1627  -17.7363   24.4291 C.3     1  UNL1        0.0292
     22 C          -3.6771  -18.0433   23.0434 C.ar    1  UNL1       -0.0159
     23 C          -4.2714  -19.1873   22.2767 C.ar    1  UNL1        0.0360
     24 C          -3.7859  -19.4943   20.8911 C.ar    1  UNL1        0.1753
     25 C          -2.7061  -18.6571   20.2721 C.ar    1  UNL1        0.2100
     26 C          -2.1118  -17.5130   21.0387 C.ar    1  UNL1        0.1792
     27 C          -2.5973  -17.2060   22.4244 C.ar    1  UNL1        0.0361
     28 O          -1.0687  -16.8682   20.1749 O.3     1  UNL1       -0.4345
     29 C          -1.0183  -17.6139   18.8744 C.3     1  UNL1        0.4295
     30 O          -2.0303  -18.7195   18.9344 O.3     1  UNL1       -0.4315
     31 O          -4.3802  -20.6384   20.1244 O.3     1  UNL1       -0.4683
     32 C          -5.8149  -21.0202   20.3389 C.3     1  UNL1        0.2526
@<TRIPOS>BOND
     1    15    16    1
     2    16     9    1
     3     9    10   ar
     4    10    11   ar
     5    11     8    1
     6     1     8    1
     7     1     2    1
     8     2    21    1
     9    21    22    1
    10    22    23   ar
    11    23    24   ar
    12    24    31    1
    13    31    32    1
    14    24    25   ar
    15    25    26   ar
    16    26    27   ar
    17    26    28    1
    18    28    29    1
    19    29    30    1
    20     2     3    1
    21     3     4    1
    22     4     5    1
    23     5     6    1
    24    11    12   ar
    25    12    13   ar
    26    13    17    1
    27    17    18    1
    28    13    14   ar
    29    14    19    1
    30    19    20    1
    31    14     9   ar
    32     5     1    1
    33    27    22   ar
    34    30    25    1
    35     6     7    1
@<TRIPOS>MOLECULE
*****
 32 35 0 0 0
SMALL
GASTEIGER

@<TRIPOS>ATOM
      1 C          -6.2236  -16.1150   23.8654 C.3     1  UNL1        0.0634
      2 C          -5.0195  -16.5363   24.6545 C.3     1  UNL1        0.0393
      3 C          -4.8031  -15.5282   25.7439 C.3     1  UNL1        0.1452
      4 O          -5.8736  -14.4838   25.6282 O.3     1  UNL1       -0.3306
      5 C          -6.7515  -14.8464   24.4673 C.3     1  UNL1        0.2320
      6 O          -7.9473  -14.0758   23.9917 O.3     1  UNL1       -0.3601
      7 H          -8.3369  -14.5244   23.2250 H       1  UNL1        0.2129
      8 C          -6.7989  -16.8356   22.6824 C.3     1  UNL1        0.0317
      9 C         -10.1917  -18.7659   23.3989 C.ar    1  UNL1        0.1751
     10 C          -8.7370  -18.4009   23.4200 C.ar    1  UNL1        0.0360
     11 C          -8.2538  -17.2006   22.6612 C.ar    1  UNL1       -0.0158
     12 C          -9.2253  -16.3653   21.8812 C.ar    1  UNL1        0.0360
     13 C         -10.6800  -16.7303   21.8601 C.ar    1  UNL1        0.1751
     14 C         -11.1632  -17.9306   22.6189 C.ar    1  UNL1        0.2060
     15 C          -9.7028  -21.0272   24.5810 C.3     1  UNL1        0.2526
     16 O         -10.6749  -19.9662   24.1577 O.3     1  UNL1       -0.4683
     17 O         -11.6516  -15.8950   21.0801 O.3     1  UNL1       -0.4683
     18 C         -11.6081  -15.8975   19.5808 C.3     1  UNL1        0.2526
     19 O         -12.6180  -18.2956   22.5978 O.3     1  UNL1       -0.4654
     20 C         -13.5105  -17.8863   23.7318 C.3     1  UNL1        0.2528
     21 C          -4.1792  -17.7523   24.3989 C.3     1  UNL1        0.0292
     22 C          -3.6858  -18.0453   23.0129 C.ar    1  UNL1       -0.0159
     23 C          -4.2965  -19.1623   22.2199 C.ar    1  UNL1        0.0360
     24 C          -3.8031  -19.4553   20.8340 C.ar    1  UNL1        0.1753
     25 C          -2.6990  -18.6311   20.2411 C.ar    1  UNL1        0.2100
     26 C          -2.0882  -17.5139   21.0342 C.ar    1  UNL1        0.1792
     27 C          -2.5816  -17.2210   22.4201 C.ar    1  UNL1        0.0361
     28 O          -1.0222  -16.8770   20.1928 O.3     1  UNL1       -0.4345
     29 C          -0.9742  -17.6005   18.8797 C.3     1  UNL1        0.4295
     30 O          -2.0105  -18.6846   18.9096 O.3     1  UNL1       -0.4315
     31 O          -4.4139  -20.5724   20.0410 O.3     1  UNL1       -0.4683
     32 C          -5.8097  -21.0310   20.3433 C.3     1  UNL1        0.2526
@<TRIPOS>BOND
     1    15    16    1
     2    16     9    1
     3     9    10   ar
     4    10    11   ar
     5    11     8    1
     6     1     8    1
     7     1     2    1
     8     2    21    1
     9    21    22    1
    10    22    23   ar
    11    23    24   ar
    12    24    31    1
    13    31    32    1
    14    24    25   ar
    15    25    26   ar
    16    26    27   ar
    17    26    28    1
    18    28    29    1
    19    29    30    1
    20     2     3    1
    21     3     4    1
    22     4     5    1
    23     5     6    1
    24    11    12   ar
    25    12    13   ar
    26    13    17    1
    27    17    18    1
    28    13    14   ar
    29    14    19    1
    30    19    20    1
    31    14     9   ar
    32     5     1    1
    33    27    22   ar
    34    30    25    1
    35     6     7    1
@<TRIPOS>MOLECULE
*****
 32 35 0 0 0
SMALL
GASTEIGER

@<TRIPOS>ATOM
      1 C          -6.9001  -15.4130   25.3337 C.3     1  UNL1        0.0634
      2 C          -5.4545  -15.7752   25.1639 C.3     1  UNL1        0.0393
      3 C          -4.9200  -16.1895   26.5028 C.3     1  UNL1        0.1452
      4 O          -6.0353  -16.0833   27.5001 O.3     1  UNL1       -0.3306
      5 C          -7.2592  -15.6034   26.7776 C.3     1  UNL1        0.2320
      6 O          -8.6055  -15.3571   27.3912 O.3     1  UNL1       -0.3601
      7 H          -9.2216  -15.0514   26.7072 H       1  UNL1        0.2129
      8 C          -7.8245  -14.9429   24.2499 C.3     1  UNL1        0.0317
      9 C         -10.0507  -16.7135   21.4824 C.ar    1  UNL1        0.1751
     10 C          -9.1145  -15.7448   22.1421 C.ar    1  UNL1        0.0360
     11 C          -8.7607  -15.9116   23.5902 C.ar    1  UNL1       -0.0158
     12 C          -9.3431  -17.0470   24.3786 C.ar    1  UNL1        0.0360
     13 C         -10.2792  -18.0157   23.7189 C.ar    1  UNL1        0.1751
     14 C         -10.6330  -17.8489   22.2708 C.ar    1  UNL1        0.2060
     15 C         -11.6893  -15.8756   19.6486 C.3     1  UNL1        0.2526
     16 O         -10.4045  -16.5467   20.0343 O.3     1  UNL1       -0.4683
     17 O         -10.8617  -19.1512   24.5073 O.3     1  UNL1       -0.4683
     18 C         -10.0652  -20.4048   24.7172 C.3     1  UNL1        0.2526
     19 O         -11.5693  -18.8176   21.6110 O.3     1  UNL1       -0.4654
     20 C         -11.0244  -20.0169   20.8935 C.3     1  UNL1        0.2528
     21 C          -4.6793  -15.7310   23.8804 C.3     1  UNL1        0.0292
     22 C          -4.5333  -16.9712   23.0493 C.ar    1  UNL1       -0.0159
     23 C          -3.1739  -17.4147   22.5965 C.ar    1  UNL1        0.0360
     24 C          -3.0278  -18.6549   21.7654 C.ar    1  UNL1        0.1753
     25 C          -4.2412  -19.4515   21.3872 C.ar    1  UNL1        0.2100
     26 C          -5.6007  -19.0079   21.8400 C.ar    1  UNL1        0.1792
     27 C          -5.7468  -17.7677   22.6711 C.ar    1  UNL1        0.0361
     28 O          -6.6069  -19.9891   21.3159 O.3     1  UNL1       -0.4345
     29 C          -5.8693  -21.0392   20.5392 C.3     1  UNL1        0.4295
     30 O          -4.4072  -20.7069   20.5832 O.3     1  UNL1       -0.4315
     31 O          -1.6683  -19.0985   21.3126 O.3     1  UNL1       -0.4683
     32 C          -1.0506  -18.4913   20.0879 C.3     1  UNL1        0.2526
@<TRIPOS>BOND
     1    15    16    1
     2    16     9    1
     3     9    10   ar
     4    10    11   ar
     5    11     8    1
     6     1     8    1
     7     1     2    1
     8     2    21    1
     9    21    22    1
    10    22    23   ar
    11    23    24   ar
    12    24    31    1
    13    31    32    1
    14    24    25   ar
    15    25    26   ar
    16    26    27   ar
    17    26    28    1
    18    28    29    1
    19    29    30    1
    20     2     3    1
    21     3     4    1
    22     4     5    1
    23     5     6    1
    24    11    12   ar
    25    12    13   ar
    26    13    17    1
    27    17    18    1
    28    13    14   ar
    29    14    19    1
    30    19    20    1
    31    14     9   ar
    32     5     1    1
    33    27    22   ar
    34    30    25    1
    35     6     7    1
@<TRIPOS>MOLECULE
*****
 32 35 0 0 0
SMALL
GASTEIGER

@<TRIPOS>ATOM
      1 C          -6.8979  -15.4475   25.3555 C.3     1  UNL1        0.0634
      2 C          -5.4519  -15.7999   25.1686 C.3     1  UNL1        0.0393
      3 C          -4.9005  -16.2167   26.4998 C.3     1  UNL1        0.1452
      4 O          -6.0057  -16.1219   27.5095 O.3     1  UNL1       -0.3306
      5 C          -7.2402  -15.6466   26.8023 C.3     1  UNL1        0.2320
      6 O          -8.5814  -15.4115   27.4314 O.3     1  UNL1       -0.3601
      7 H          -9.2067  -15.1067   26.7554 H       1  UNL1        0.2129
      8 C          -7.8368  -14.9785   24.2838 C.3     1  UNL1        0.0317
      9 C         -10.2850  -18.0565   23.7526 C.ar    1  UNL1        0.1751
     10 C          -9.3550  -17.0828   24.4136 C.ar    1  UNL1        0.0360
     11 C          -8.7668  -15.9522   23.6226 C.ar    1  UNL1       -0.0158
     12 C          -9.1086  -15.7952   22.1706 C.ar    1  UNL1        0.0360
     13 C         -10.0385  -16.7689   21.5095 C.ar    1  UNL1        0.1751
     14 C         -10.6267  -17.8995   22.3005 C.ar    1  UNL1        0.2060
     15 C         -10.1104  -20.4691   24.7006 C.3     1  UNL1        0.2526
     16 O         -10.8732  -19.1871   24.5436 O.3     1  UNL1       -0.4683
     17 O         -10.3804  -16.6119   20.0574 O.3     1  UNL1       -0.4683
     18 C         -11.6447  -15.9118   19.6559 C.3     1  UNL1        0.2526
     19 O         -11.5568  -18.8732   21.6394 O.3     1  UNL1       -0.4654
     20 C         -11.0030  -20.0033   20.8232 C.3     1  UNL1        0.2528
     21 C          -4.6909  -15.7450   23.8771 C.3     1  UNL1        0.0292
     22 C          -4.5456  -16.9807   23.0391 C.ar    1  UNL1       -0.0159
     23 C          -3.1871  -17.4195   22.5791 C.ar    1  UNL1        0.0360
     24 C          -3.0419  -18.6551   21.7411 C.ar    1  UNL1        0.1753
     25 C          -4.2553  -19.4519   21.3632 C.ar    1  UNL1        0.2100
     26 C          -5.6139  -19.0131   21.8232 C.ar    1  UNL1        0.1792
     27 C          -5.7591  -17.7775   22.6612 C.ar    1  UNL1        0.0361
     28 O          -6.6203  -19.9934   21.2977 O.3     1  UNL1       -0.4345
     29 C          -5.8836  -21.0381   20.5129 C.3     1  UNL1        0.4295
     30 O          -4.4220  -20.7034   20.5534 O.3     1  UNL1       -0.4315
     31 O          -1.6833  -19.0939   21.2811 O.3     1  UNL1       -0.4683
     32 C          -0.9374  -18.2821   20.2639 C.3     1  UNL1        0.2526
@<TRIPOS>BOND
     1    15    16    1
     2    16     9    1
     3     9    10   ar
     4    10    11   ar
     5    11     8    1
     6     1     8    1
     7     1     2    1
     8     2    21    1
     9    21    22    1
    10    22    23   ar
    11    23    24   ar
    12    24    31    1
    13    31    32    1
    14    24    25   ar
    15    25    26   ar
    16    26    27   ar
    17    26    28    1
    18    28    29    1
    19    29    30    1
    20     2     3    1
    21     3     4    1
    22     4     5    1
    23     5     6    1
    24    11    12   ar
    25    12    13   ar
    26    13    17    1
    27    17    18    1
    28    13    14   ar
    29    14    19    1
    30    19    20    1
    31    14     9   ar
    32     5     1    1
    33    27    22   ar
    34    30    25    1
    35     6     7    1
@<TRIPOS>MOLECULE
*****
 32 35 0 0 0
SMALL
GASTEIGER

@<TRIPOS>ATOM
      1 C          -6.7724  -15.5694   25.2717 C.3     1  UNL1        0.0634
      2 C          -8.2196  -15.4804   25.6558 C.3     1  UNL1        0.0393
      3 C          -8.3124  -15.6123   27.1471 C.3     1  UNL1        0.1452
      4 O          -6.9225  -15.7829   27.6847 O.3     1  UNL1       -0.3306
      5 C          -5.9706  -15.7564   26.5256 C.3     1  UNL1        0.2320
      6 O          -4.4791  -15.8928   26.6063 O.3     1  UNL1       -0.3601
      7 H          -4.1011  -15.8418   25.7144 H       1  UNL1        0.2129
      8 C          -6.2233  -15.4860   23.8783 C.3     1  UNL1        0.0317
      9 C          -6.0698  -18.9470   21.9422 C.ar    1  UNL1        0.1751
     10 C          -6.6149  -17.7185   22.6082 C.ar    1  UNL1        0.0360
     11 C          -5.6782  -16.7146   23.2122 C.ar    1  UNL1       -0.0158
     12 C          -4.1964  -16.9392   23.1502 C.ar    1  UNL1        0.0360
     13 C          -3.6514  -18.1678   22.4842 C.ar    1  UNL1        0.1751
     14 C          -4.5881  -19.1716   21.8802 C.ar    1  UNL1        0.2060
     15 C          -7.5287  -19.7472   19.9469 C.3     1  UNL1        0.2526
     16 O          -7.0066  -19.9508   21.3382 O.3     1  UNL1       -0.4683
     17 O          -2.1696  -18.3925   22.4222 O.3     1  UNL1       -0.4683
     18 C          -1.4125  -18.0608   21.1705 C.3     1  UNL1        0.2526
     19 O          -4.0430  -20.4002   21.2141 O.3     1  UNL1       -0.4654
     20 C          -3.8856  -20.4376   19.7229 C.3     1  UNL1        0.2528
     21 C          -9.3719  -15.2924   24.7140 C.3     1  UNL1        0.0292
     22 C          -9.7753  -16.4040   23.7911 C.ar    1  UNL1       -0.0159
     23 C         -10.0191  -17.7800   24.3360 C.ar    1  UNL1        0.0360
     24 C         -10.4224  -18.8916   23.4131 C.ar    1  UNL1        0.1753
     25 C         -10.5820  -18.6271   21.9453 C.ar    1  UNL1        0.2100
     26 C         -10.3382  -17.2510   21.4003 C.ar    1  UNL1        0.1792
     27 C          -9.9348  -16.1394   22.3232 C.ar    1  UNL1        0.0361
     28 O         -10.5719  -17.2908   19.9192 O.3     1  UNL1       -0.4345
     29 C         -10.9602  -18.6915   19.5488 C.3     1  UNL1        0.4295
     30 O         -10.9664  -19.5174   20.8009 O.3     1  UNL1       -0.4315
     31 O         -10.6662  -20.2676   23.9581 O.3     1  UNL1       -0.4683
     32 C          -9.5208  -21.0782   24.4882 C.3     1  UNL1        0.2526
@<TRIPOS>BOND
     1    15    16    1
     2    16     9    1
     3     9    10   ar
     4    10    11   ar
     5    11     8    1
     6     1     8    1
     7     1     2    1
     8     2    21    1
     9    21    22    1
    10    22    23   ar
    11    23    24   ar
    12    24    31    1
    13    31    32    1
    14    24    25   ar
    15    25    26   ar
    16    26    27   ar
    17    26    28    1
    18    28    29    1
    19    29    30    1
    20     2     3    1
    21     3     4    1
    22     4     5    1
    23     5     6    1
    24    11    12   ar
    25    12    13   ar
    26    13    17    1
    27    17    18    1
    28    13    14   ar
    29    14    19    1
    30    19    20    1
    31    14     9   ar
    32     5     1    1
    33    27    22   ar
    34    30    25    1
    35     6     7    1
@<TRIPOS>MOLECULE
*****
 32 35 0 0 0
SMALL
GASTEIGER

@<TRIPOS>ATOM
      1 C          -6.8267  -15.5724   25.2724 C.3     1  UNL1        0.0634
      2 C          -8.2655  -15.4931   25.6890 C.3     1  UNL1        0.0393
      3 C          -8.3224  -15.6084   27.1835 C.3     1  UNL1        0.1452
      4 O          -6.9188  -15.7590   27.6906 O.3     1  UNL1       -0.3306
      5 C          -5.9943  -15.7368   26.5095 C.3     1  UNL1        0.2320
      6 O          -4.5000  -15.8577   26.5571 O.3     1  UNL1       -0.3601
      7 H          -4.1432  -15.8135   25.6562 H       1  UNL1        0.2129
      8 C          -6.3108  -15.5001   23.8658 C.3     1  UNL1        0.0317
      9 C          -3.7041  -18.1698   22.5138 C.ar    1  UNL1        0.1751
     10 C          -4.2656  -16.9438   23.1706 C.ar    1  UNL1        0.0360
     11 C          -5.7493  -16.7262   23.2089 C.ar    1  UNL1       -0.0158
     12 C          -6.6714  -17.7347   22.5904 C.ar    1  UNL1        0.0360
     13 C          -6.1099  -18.9607   21.9336 C.ar    1  UNL1        0.1751
     14 C          -4.6262  -19.1783   21.8953 C.ar    1  UNL1        0.2060
     15 C          -1.4470  -18.0646   21.2314 C.3     1  UNL1        0.2526
     16 O          -2.2205  -18.3873   22.4754 O.3     1  UNL1       -0.4683
     17 O          -7.0320  -19.9693   21.3151 O.3     1  UNL1       -0.4683
     18 C          -7.5277  -19.7719   19.9132 C.3     1  UNL1        0.2526
     19 O          -4.0647  -20.4044   21.2384 O.3     1  UNL1       -0.4654
     20 C          -3.8721  -20.4369   19.7512 C.3     1  UNL1        0.2528
     21 C          -9.4410  -15.3275   24.7721 C.3     1  UNL1        0.0292
     22 C          -9.8165  -16.4304   23.8273 C.ar    1  UNL1       -0.0159
     23 C         -10.0452  -17.8184   24.3478 C.ar    1  UNL1        0.0360
     24 C         -10.4206  -18.9213   23.4030 C.ar    1  UNL1        0.1753
     25 C         -10.5674  -18.6362   21.9377 C.ar    1  UNL1        0.2100
     26 C         -10.3388  -17.2481   21.4172 C.ar    1  UNL1        0.1792
     27 C          -9.9633  -16.1452   22.3619 C.ar    1  UNL1        0.0361
     28 O         -10.5548  -17.2681   19.9330 O.3     1  UNL1       -0.4345
     29 C         -10.9171  -18.6686   19.5362 C.3     1  UNL1        0.4295
     30 O         -10.9249  -19.5141   20.7752 O.3     1  UNL1       -0.4315
     31 O         -10.6493  -20.3094   23.9236 O.3     1  UNL1       -0.4683
     32 C          -9.5110  -21.0845   24.5181 C.3     1  UNL1        0.2526
@<TRIPOS>BOND
     1    15    16    1
     2    16     9    1
     3     9    10   ar
     4    10    11   ar
     5    11     8    1
     6     1     8    1
     7     1     2    1
     8     2    21    1
     9    21    22    1
    10    22    23   ar
    11    23    24   ar
    12    24    31    1
    13    31    32    1
    14    24    25   ar
    15    25    26   ar
    16    26    27   ar
    17    26    28    1
    18    28    29    1
    19    29    30    1
    20     2     3    1
    21     3     4    1
    22     4     5    1
    23     5     6    1
    24    11    12   ar
    25    12    13   ar
    26    13    17    1
    27    17    18    1
    28    13    14   ar
    29    14    19    1
    30    19    20    1
    31    14     9   ar
    32     5     1    1
    33    27    22   ar
    34    30    25    1
    35     6     7    1
@<TRIPOS>MOLECULE
*****
 32 35 0 0 0
SMALL
GASTEIGER

@<TRIPOS>ATOM
      1 C          -6.7757  -15.6546   25.3464 C.3     1  UNL1        0.0634
      2 C          -8.2082  -15.5227   25.7716 C.3     1  UNL1        0.0393
      3 C          -8.2691  -15.7071   27.2590 C.3     1  UNL1        0.1452
      4 O          -6.8743  -15.9530   27.7531 O.3     1  UNL1       -0.3306
      5 C          -5.9513  -15.9205   26.5711 C.3     1  UNL1        0.2320
      6 O          -4.4650  -16.1191   26.6073 O.3     1  UNL1       -0.3601
      7 H          -4.1075  -16.0494   25.7083 H       1  UNL1        0.2129
      8 C          -6.2585  -15.5405   23.9430 C.3     1  UNL1        0.0317
      9 C          -3.7205  -18.2171   22.4786 C.ar    1  UNL1        0.1751
     10 C          -4.2505  -17.0037   23.1835 C.ar    1  UNL1        0.0360
     11 C          -5.7285  -16.7539   23.2381 C.ar    1  UNL1       -0.0158
     12 C          -6.6765  -17.7175   22.5879 C.ar    1  UNL1        0.0360
     13 C          -6.1465  -18.9308   21.8831 C.ar    1  UNL1        0.1751
     14 C          -4.6685  -19.1806   21.8284 C.ar    1  UNL1        0.2060
     15 C          -1.4613  -18.0815   21.2028 C.3     1  UNL1        0.2526
     16 O          -2.2424  -18.4669   22.4239 O.3     1  UNL1       -0.4683
     17 O          -7.0946  -19.8944   21.2328 O.3     1  UNL1       -0.4683
     18 C          -7.6715  -19.5838   19.8835 C.3     1  UNL1        0.2526
     19 O          -4.1385  -20.3940   21.1235 O.3     1  UNL1       -0.4654
     20 C          -3.9326  -20.3682   19.6379 C.3     1  UNL1        0.2528
     21 C          -9.3749  -15.2536   24.8680 C.3     1  UNL1        0.0292
     22 C          -9.7756  -16.2682   23.8382 C.ar    1  UNL1       -0.0159
     23 C          -9.9323  -15.8591   22.4037 C.ar    1  UNL1        0.0360
     24 C         -10.3330  -16.8735   21.3740 C.ar    1  UNL1        0.1753
     25 C         -10.5770  -18.2970   21.7789 C.ar    1  UNL1        0.2100
     26 C         -10.4203  -18.7062   23.2135 C.ar    1  UNL1        0.1792
     27 C         -10.0196  -17.6918   24.2432 C.ar    1  UNL1        0.0361
     28 O         -10.7259  -20.1713   23.3137 O.3     1  UNL1       -0.4345
     29 C         -11.0715  -20.6676   21.9411 C.3     1  UNL1        0.4295
     30 O         -10.9794  -19.5093   20.9925 O.3     1  UNL1       -0.4315
     31 O         -10.4897  -16.4644   19.9394 O.3     1  UNL1       -0.4683
     32 C         -11.7532  -15.7967   19.4836 C.3     1  UNL1        0.2526
@<TRIPOS>BOND
     1    15    16    1
     2    16     9    1
     3     9    10   ar
     4    10    11   ar
     5    11     8    1
     6     1     8    1
     7     1     2    1
     8     2    21    1
     9    21    22    1
    10    22    23   ar
    11    23    24   ar
    12    24    31    1
    13    31    32    1
    14    24    25   ar
    15    25    26   ar
    16    26    27   ar
    17    26    28    1
    18    28    29    1
    19    29    30    1
    20     2     3    1
    21     3     4    1
    22     4     5    1
    23     5     6    1
    24    11    12   ar
    25    12    13   ar
    26    13    17    1
    27    17    18    1
    28    13    14   ar
    29    14    19    1
    30    19    20    1
    31    14     9   ar
    32     5     1    1
    33    27    22   ar
    34    30    25    1
    35     6     7    1
@<TRIPOS>MOLECULE
*****
 32 35 0 0 0
SMALL
GASTEIGER

@<TRIPOS>ATOM
      1 C          -6.7344  -15.7009   25.3799 C.3     1  UNL1        0.0634
      2 C          -8.1551  -15.5517   25.8374 C.3     1  UNL1        0.0393
      3 C          -8.1880  -15.7593   27.3227 C.3     1  UNL1        0.1452
      4 O          -6.7876  -16.0368   27.7830 O.3     1  UNL1       -0.3306
      5 C          -5.8892  -16.0007   26.5824 C.3     1  UNL1        0.2320
      6 O          -4.4061  -16.2250   26.5839 O.3     1  UNL1       -0.3601
      7 H          -4.0664  -16.1468   25.6787 H       1  UNL1        0.2129
      8 C          -6.2448  -15.5729   23.9678 C.3     1  UNL1        0.0317
      9 C          -6.1579  -18.9328   21.8576 C.ar    1  UNL1        0.1751
     10 C          -6.6790  -17.7277   22.5829 C.ar    1  UNL1        0.0360
     11 C          -5.7236  -16.7780   23.2425 C.ar    1  UNL1       -0.0158
     12 C          -4.2470  -17.0334   23.1769 C.ar    1  UNL1        0.0360
     13 C          -3.7258  -18.2385   22.4516 C.ar    1  UNL1        0.1751
     14 C          -4.6813  -19.1882   21.7920 C.ar    1  UNL1        0.2060
     15 C          -7.7079  -19.5422   19.8636 C.3     1  UNL1        0.2526
     16 O          -7.1133  -19.8826   21.1980 O.3     1  UNL1       -0.4683
     17 O          -2.2491  -18.4940   22.3860 O.3     1  UNL1       -0.4683
     18 C          -1.4754  -18.1103   21.1596 C.3     1  UNL1        0.2526
     19 O          -4.1600  -20.3934   21.0667 O.3     1  UNL1       -0.4654
     20 C          -3.9807  -20.3534   19.5780 C.3     1  UNL1        0.2528
     21 C          -9.3356  -15.2483   24.9633 C.3     1  UNL1        0.0292
     22 C          -9.7482  -16.2188   23.8965 C.ar    1  UNL1       -0.0159
     23 C          -9.9066  -15.7532   22.4795 C.ar    1  UNL1        0.0360
     24 C         -10.3191  -16.7237   21.4128 C.ar    1  UNL1        0.1753
     25 C         -10.5732  -18.1599   21.7631 C.ar    1  UNL1        0.2100
     26 C         -10.4147  -18.6256   23.1801 C.ar    1  UNL1        0.1792
     27 C         -10.0022  -17.6551   24.2468 C.ar    1  UNL1        0.0361
     28 O         -10.7317  -20.0910   23.2246 O.3     1  UNL1       -0.4345
     29 C         -11.0861  -20.5310   21.8351 C.3     1  UNL1        0.4295
     30 O         -10.9881  -19.3375   20.9318 O.3     1  UNL1       -0.4315
     31 O         -10.4776  -16.2579   19.9957 O.3     1  UNL1       -0.4683
     32 C         -11.8346  -15.8862   19.4757 C.3     1  UNL1        0.2526
@<TRIPOS>BOND
     1    15    16    1
     2    16     9    1
     3     9    10   ar
     4    10    11   ar
     5    11     8    1
     6     1     8    1
     7     1     2    1
     8     2    21    1
     9    21    22    1
    10    22    23   ar
    11    23    24   ar
    12    24    31    1
    13    31    32    1
    14    24    25   ar
    15    25    26   ar
    16    26    27   ar
    17    26    28    1
    18    28    29    1
    19    29    30    1
    20     2     3    1
    21     3     4    1
    22     4     5    1
    23     5     6    1
    24    11    12   ar
    25    12    13   ar
    26    13    17    1
    27    17    18    1
    28    13    14   ar
    29    14    19    1
    30    19    20    1
    31    14     9   ar
    32     5     1    1
    33    27    22   ar
    34    30    25    1
    35     6     7    1
@<TRIPOS>MOLECULE
*****
 32 35 0 0 0
SMALL
GASTEIGER

@<TRIPOS>ATOM
      1 C          -7.1886  -15.4776   25.2772 C.3     1  UNL1        0.0634
      2 C          -5.6969  -15.5035   25.1213 C.3     1  UNL1        0.0393
      3 C          -5.0976  -15.8468   26.4528 C.3     1  UNL1        0.1452
      4 O          -6.2188  -16.0332   27.4316 O.3     1  UNL1       -0.3306
      5 C          -7.5112  -15.8050   26.7051 C.3     1  UNL1        0.2320
      6 O          -8.8848  -15.8894   27.3016 O.3     1  UNL1       -0.3601
      7 H          -9.5463  -15.6982   26.6184 H       1  UNL1        0.2129
      8 C          -8.1831  -15.1771   24.1952 C.3     1  UNL1        0.0317
      9 C          -9.8825  -17.0615   21.1438 C.ar    1  UNL1        0.1751
     10 C          -9.3706  -15.9568   22.0199 C.ar    1  UNL1        0.0360
     11 C          -8.6949  -16.2819   23.3191 C.ar    1  UNL1       -0.0158
     12 C          -8.5312  -17.7116   23.7421 C.ar    1  UNL1        0.0360
     13 C          -9.0430  -18.8163   22.8660 C.ar    1  UNL1        0.1751
     14 C          -9.7187  -18.4912   21.5668 C.ar    1  UNL1        0.2060
     15 C         -11.8313  -15.9435   19.8392 C.3     1  UNL1        0.2526
     16 O         -10.5581  -16.7365   19.8446 O.3     1  UNL1       -0.4683
     17 O          -8.8792  -20.2461   23.2891 O.3     1  UNL1       -0.4683
     18 C          -9.6811  -20.7854   24.4363 C.3     1  UNL1        0.2526
     19 O         -10.2305  -19.5960   20.6907 O.3     1  UNL1       -0.4654
     20 C          -9.5611  -19.8849   19.3799 C.3     1  UNL1        0.2528
     21 C          -4.9379  -15.2334   23.8560 C.3     1  UNL1        0.0292
     22 C          -4.3623  -16.3732   23.0688 C.ar    1  UNL1       -0.0159
     23 C          -5.0932  -17.6811   22.9991 C.ar    1  UNL1        0.0360
     24 C          -4.5177  -18.8209   22.2119 C.ar    1  UNL1        0.1753
     25 C          -3.2113  -18.6527   21.4944 C.ar    1  UNL1        0.2100
     26 C          -2.4803  -17.3447   21.5641 C.ar    1  UNL1        0.1792
     27 C          -3.0558  -16.2049   22.3513 C.ar    1  UNL1        0.0361
     28 O          -1.2210  -17.4740   20.7594 O.3     1  UNL1       -0.4345
     29 C          -1.1737  -18.8619   20.1924 C.3     1  UNL1        0.4295
     30 O          -2.4038  -19.5904   20.6467 O.3     1  UNL1       -0.4315
     31 O          -5.2487  -20.1289   22.1423 O.3     1  UNL1       -0.4683
     32 C          -6.0618  -20.4700   20.9288 C.3     1  UNL1        0.2526
@<TRIPOS>BOND
     1    15    16    1
     2    16     9    1
     3     9    10   ar
     4    10    11   ar
     5    11     8    1
     6     1     8    1
     7     1     2    1
     8     2    21    1
     9    21    22    1
    10    22    23   ar
    11    23    24   ar
    12    24    31    1
    13    31    32    1
    14    24    25   ar
    15    25    26   ar
    16    26    27   ar
    17    26    28    1
    18    28    29    1
    19    29    30    1
    20     2     3    1
    21     3     4    1
    22     4     5    1
    23     5     6    1
    24    11    12   ar
    25    12    13   ar
    26    13    17    1
    27    17    18    1
    28    13    14   ar
    29    14    19    1
    30    19    20    1
    31    14     9   ar
    32     5     1    1
    33    27    22   ar
    34    30    25    1
    35     6     7    1
