@<TRIPOS>MOLECULE
*****
 24 26 0 0 0
SMALL
GASTEIGER

@<TRIPOS>ATOM
      1 C          -4.4604  -19.8804   20.9392 C.3     1  UNL1        0.0838
      2 C          -5.3614  -20.0659   19.7544 C.3     1  UNL1        0.0437
      3 C          -6.7675  -19.7804   20.1920 C.ar    1  UNL1       -0.0247
      4 C          -8.0727  -19.8032   19.4534 C.ar    1  UNL1       -0.0045
      5 C          -9.3460  -19.4641   20.1701 C.ar    1  UNL1       -0.0003
      6 C          -9.3141  -19.1022   21.6254 C.ar    1  UNL1        0.0012
      7 C          -8.0088  -19.0793   22.3640 C.ar    1  UNL1       -0.0045
      8 C          -6.7355  -19.4184   21.6474 C.ar    1  UNL1       -0.0247
      9 C          -5.3096  -19.4803   22.1091 C.3     1  UNL1        0.0437
     10 C         -10.5874  -18.7630   22.3421 C.ar    1  UNL1        0.0193
     11 C         -11.7206  -18.1234   21.5959 C.ar    1  UNL1        0.0055
     12 C         -12.9939  -17.7843   22.3125 C.ar    1  UNL1        0.0497
     13 C         -13.1341  -18.0848   23.7754 C.ar    1  UNL1        0.2223
     14 F         -14.4075  -17.7458   24.4921 F       1  UNL1       -0.1832
     15 N         -12.0010  -18.7245   24.5216 N.ar    1  UNL1       -0.2165
     16 C         -10.7276  -19.0636   23.8049 C.ar    1  UNL1        0.1012
     17 N          -2.9716  -20.0630   20.9519 N.3     1  UNL1       -0.1841
     18 H          -2.7352  -20.4918   21.8467 H       1  UNL1        0.1484
     19 S          -2.0690  -18.8762   20.7885 S.O2    1  UNL1        0.0390
     20 O          -1.7167  -18.9436   22.2450 O.2     1  UNL1       -0.1576
     21 O          -2.4213  -18.8088   19.3320 O.2     1  UNL1       -0.1576
     22 C           0.1188  -17.8237   19.8634 C.3     1  UNL1        0.0270
     23 C          -1.1664  -17.6893   20.6251 C.3     1  UNL1        0.1457
     24 C          -1.5489  -16.3681   21.2235 C.3     1  UNL1        0.0270
@<TRIPOS>BOND
     1    22    23    1
     2    23    24    1
     3    23    19    1
     4    19    20    2
     5    19    21    2
     6    19    17    1
     7     1    17    1
     8     1     2    1
     9     2     3    1
    10     3     4   ar
    11     4     5   ar
    12     5     6   ar
    13     6    10    1
    14    10    11   ar
    15    11    12   ar
    16    12    13   ar
    17    13    14    1
    18    13    15   ar
    19    15    16   ar
    20     6     7   ar
    21     7     8   ar
    22     8     9    1
    23     9     1    1
    24     8     3   ar
    25    16    10   ar
    26    17    18    1
@<TRIPOS>MOLECULE
*****
 24 26 0 0 0
SMALL
GASTEIGER

@<TRIPOS>ATOM
      1 C          -9.0086  -18.4146   23.6102 C.3     1  UNL1        0.0838
      2 C          -8.8559  -19.6664   22.7980 C.3     1  UNL1        0.0437
      3 C          -7.5021  -19.6381   22.1529 C.ar    1  UNL1       -0.0247
      4 C          -6.8038  -20.6042   21.2423 C.ar    1  UNL1       -0.0045
      5 C          -5.4215  -20.3009   20.7452 C.ar    1  UNL1       -0.0003
      6 C          -4.7374  -19.0316   21.1587 C.ar    1  UNL1        0.0012
      7 C          -5.4357  -18.0656   22.0692 C.ar    1  UNL1       -0.0045
      8 C          -6.8180  -18.3688   22.5663 C.ar    1  UNL1       -0.0247
      9 C          -7.7491  -17.6127   23.4670 C.3     1  UNL1        0.0437
     10 C          -3.3550  -18.7284   20.6615 C.ar    1  UNL1        0.0193
     11 C          -3.1489  -18.2799   19.2451 C.ar    1  UNL1        0.0055
     12 C          -1.7665  -17.9766   18.7480 C.ar    1  UNL1        0.0497
     13 C          -0.5902  -18.1220   19.6673 C.ar    1  UNL1        0.2223
     14 F           0.7921  -17.8188   19.1703 F       1  UNL1       -0.1832
     15 N          -0.7963  -18.5705   21.0838 N.ar    1  UNL1       -0.2165
     16 C          -2.1787  -18.8737   21.5809 C.ar    1  UNL1        0.1012
     17 N         -10.2099  -18.0319   24.4230 N.3     1  UNL1       -0.1841
     18 H         -10.2736  -18.7032   25.1884 H       1  UNL1        0.1484
     19 S         -11.5641  -17.9784   23.7803 S.O2    1  UNL1        0.0390
     20 O         -11.1134  -16.8307   22.9261 O.2     1  UNL1       -0.1576
     21 O         -12.0149  -19.1260   24.6344 O.2     1  UNL1       -0.1576
     22 C         -13.0372  -17.7729   21.6500 C.3     1  UNL1        0.0270
     23 C         -12.9185  -17.9247   23.1375 C.3     1  UNL1        0.1457
     24 C         -14.1540  -18.0229   23.9824 C.3     1  UNL1        0.0270
@<TRIPOS>BOND
     1    22    23    1
     2    23    24    1
     3    23    19    1
     4    19    20    2
     5    19    21    2
     6    19    17    1
     7     1    17    1
     8     1     2    1
     9     2     3    1
    10     3     4   ar
    11     4     5   ar
    12     5     6   ar
    13     6    10    1
    14    10    11   ar
    15    11    12   ar
    16    12    13   ar
    17    13    14    1
    18    13    15   ar
    19    15    16   ar
    20     6     7   ar
    21     7     8   ar
    22     8     9    1
    23     9     1    1
    24     8     3   ar
    25    16    10   ar
    26    17    18    1
@<TRIPOS>MOLECULE
*****
 24 26 0 0 0
SMALL
GASTEIGER

@<TRIPOS>ATOM
      1 C         -13.8045   -7.2581   19.0205 C.3     1  UNL1        0.0838
      2 C         -12.4342   -6.6498   19.0703 C.3     1  UNL1        0.0437
      3 C         -12.5874   -5.1582   19.0280 C.ar    1  UNL1       -0.0247
      4 C         -11.5822   -4.0451   19.0488 C.ar    1  UNL1       -0.0045
      5 C         -12.0419   -2.6184   18.9937 C.ar    1  UNL1       -0.0003
      6 C         -13.5068   -2.3048   18.9178 C.ar    1  UNL1        0.0012
      7 C         -14.5120   -3.4179   18.8970 C.ar    1  UNL1       -0.0045
      8 C         -14.0522   -4.8447   18.9521 C.ar    1  UNL1       -0.0247
      9 C         -14.8044   -6.1424   18.9475 C.3     1  UNL1        0.0437
     10 C         -13.9665   -0.8780   18.8626 C.ar    1  UNL1        0.0193
     11 C         -15.3400   -0.5135   19.3427 C.ar    1  UNL1        0.0055
     12 C         -15.7997    0.9133   19.2876 C.ar    1  UNL1        0.0497
     13 C         -14.8858    1.9756   18.7524 C.ar    1  UNL1        0.2223
     14 F         -15.3454    3.4023   18.6973 F       1  UNL1       -0.1832
     15 N         -13.5122    1.6110   18.2724 N.ar    1  UNL1       -0.2165
     16 C         -13.0525    0.1843   18.3275 C.ar    1  UNL1        0.1012
     17 N         -14.1194   -8.7245   19.0403 N.3     1  UNL1       -0.1841
     18 H         -13.4408   -9.1797   18.4298 H       1  UNL1        0.1484
     19 S         -15.4751   -9.2063   18.6161 S.O2    1  UNL1        0.0390
     20 O         -15.8777   -9.3401   20.0548 O.2     1  UNL1       -0.1576
     21 O         -15.0724   -9.0725   17.1774 O.2     1  UNL1       -0.1576
     22 C         -17.7309   -8.7898   17.3963 C.3     1  UNL1        0.0270
     23 C         -16.8308   -9.6881   18.1919 C.3     1  UNL1        0.1457
     24 C         -17.2864  -11.0681   18.5632 C.3     1  UNL1        0.0270
@<TRIPOS>BOND
     1    22    23    1
     2    23    24    1
     3    23    19    1
     4    19    20    2
     5    19    21    2
     6    19    17    1
     7     1    17    1
     8     1     2    1
     9     2     3    1
    10     3     4   ar
    11     4     5   ar
    12     5     6   ar
    13     6    10    1
    14    10    11   ar
    15    11    12   ar
    16    12    13   ar
    17    13    14    1
    18    13    15   ar
    19    15    16   ar
    20     6     7   ar
    21     7     8   ar
    22     8     9    1
    23     9     1    1
    24     8     3   ar
    25    16    10   ar
    26    17    18    1
@<TRIPOS>MOLECULE
*****
 24 26 0 0 0
SMALL
GASTEIGER

@<TRIPOS>ATOM
      1 C         -10.8921   -2.7406   18.2362 C.3     1  UNL1        0.0838
      2 C         -10.9930   -1.3278   17.7426 C.3     1  UNL1        0.0437
      3 C         -12.3132   -0.7736   18.1899 C.ar    1  UNL1       -0.0247
      4 C         -12.9565    0.5673   17.9954 C.ar    1  UNL1       -0.0045
      5 C         -14.3150    0.8379   18.5710 C.ar    1  UNL1       -0.0003
      6 C         -15.0300   -0.2325   19.3411 C.ar    1  UNL1        0.0012
      7 C         -14.3866   -1.5734   19.5356 C.ar    1  UNL1       -0.0045
      8 C         -13.0282   -1.8440   18.9599 C.ar    1  UNL1       -0.0247
      9 C         -12.1499   -3.0597   18.9886 C.3     1  UNL1        0.0437
     10 C         -16.3885    0.0382   19.9168 C.ar    1  UNL1        0.0193
     11 C         -16.7002    1.3830   20.5033 C.ar    1  UNL1        0.0055
     12 C         -18.0587    1.6537   21.0790 C.ar    1  UNL1        0.0497
     13 C         -19.1055    0.5794   21.0680 C.ar    1  UNL1        0.2223
     14 F         -20.4640    0.8500   21.6436 F       1  UNL1       -0.1832
     15 N         -18.7938   -0.7656   20.4814 N.ar    1  UNL1       -0.2165
     16 C         -17.4353   -1.0361   19.9058 C.ar    1  UNL1        0.1012
     17 N          -9.7363   -3.6711   18.0162 N.3     1  UNL1       -0.1841
     18 H          -9.3487   -3.4475   17.0995 H       1  UNL1        0.1484
     19 S          -9.9522   -5.1552   18.0448 S.O2    1  UNL1        0.0390
     20 O          -9.3128   -5.2220   19.4000 O.2     1  UNL1       -0.1576
     21 O         -10.5916   -5.0883   16.6896 O.2     1  UNL1       -0.1576
     22 C          -9.3483   -7.4989   18.9894 C.3     1  UNL1        0.0270
     23 C         -10.1681   -6.6393   18.0734 C.3     1  UNL1        0.1457
     24 C         -11.2038   -7.2638   17.1862 C.3     1  UNL1        0.0270
@<TRIPOS>BOND
     1    22    23    1
     2    23    24    1
     3    23    19    1
     4    19    20    2
     5    19    21    2
     6    19    17    1
     7     1    17    1
     8     1     2    1
     9     2     3    1
    10     3     4   ar
    11     4     5   ar
    12     5     6   ar
    13     6    10    1
    14    10    11   ar
    15    11    12   ar
    16    12    13   ar
    17    13    14    1
    18    13    15   ar
    19    15    16   ar
    20     6     7   ar
    21     7     8   ar
    22     8     9    1
    23     9     1    1
    24     8     3   ar
    25    16    10   ar
    26    17    18    1
@<TRIPOS>MOLECULE
*****
 24 26 0 0 0
SMALL
GASTEIGER

@<TRIPOS>ATOM
      1 C           3.9597    1.3196   36.2359 C.3     1  UNL1        0.0838
      2 C           3.4387    1.7110   34.8849 C.3     1  UNL1        0.0437
      3 C           3.9478    0.7151   33.8854 C.ar    1  UNL1       -0.0247
      4 C           3.7585    0.5950   32.4023 C.ar    1  UNL1       -0.0045
      5 C           4.4047   -0.5320   31.6525 C.ar    1  UNL1       -0.0003
      6 C           5.2403   -1.5389   32.3859 C.ar    1  UNL1        0.0012
      7 C           5.4297   -1.4189   33.8690 C.ar    1  UNL1       -0.0045
      8 C           4.7834   -0.2919   34.6187 C.ar    1  UNL1       -0.0247
      9 C           4.7907    0.0818   36.0715 C.3     1  UNL1        0.0437
     10 C           5.8866   -2.6660   31.6360 C.ar    1  UNL1        0.0193
     11 C           6.1102   -2.5521   30.1572 C.ar    1  UNL1        0.0055
     12 C           6.7565   -3.6791   29.4074 C.ar    1  UNL1        0.0497
     13 C           7.1791   -4.9200   30.1365 C.ar    1  UNL1        0.2223
     14 F           7.8253   -6.0470   29.3867 F       1  UNL1       -0.1832
     15 N           6.9554   -5.0339   31.6154 N.ar    1  UNL1       -0.2165
     16 C           6.3092   -3.9069   32.3651 C.ar    1  UNL1        0.1012
     17 N           3.6959    2.0396   37.5251 N.3     1  UNL1       -0.1841
     18 H           4.5193    1.9044   38.1117 H       1  UNL1        0.1484
     19 S           2.5048    1.6720   38.3594 S.O2    1  UNL1        0.0390
     20 O           1.6249    2.4949   37.4658 O.2     1  UNL1       -0.1576
     21 O           3.3846    0.8490   39.2530 O.2     1  UNL1       -0.1576
     22 C           0.2575    2.3287   39.4856 C.3     1  UNL1        0.0270
     23 C           1.3136    1.3043   39.1937 C.3     1  UNL1        0.1457
     24 C           1.1785   -0.0877   39.7359 C.3     1  UNL1        0.0270
@<TRIPOS>BOND
     1    22    23    1
     2    23    24    1
     3    23    19    1
     4    19    20    2
     5    19    21    2
     6    19    17    1
     7     1    17    1
     8     1     2    1
     9     2     3    1
    10     3     4   ar
    11     4     5   ar
    12     5     6   ar
    13     6    10    1
    14    10    11   ar
    15    11    12   ar
    16    12    13   ar
    17    13    14    1
    18    13    15   ar
    19    15    16   ar
    20     6     7   ar
    21     7     8   ar
    22     8     9    1
    23     9     1    1
    24     8     3   ar
    25    16    10   ar
    26    17    18    1
