@<TRIPOS>MOLECULE
*****
 37 41 0 0 0
SMALL
GASTEIGER

@<TRIPOS>ATOM
      1 C           1.8490    1.2744   27.6006 C.2     1  UNL1        0.2492
      2 O           2.4094    0.6840   28.8605 O.2     1  UNL1       -0.2699
      3 N           2.2246    0.6948   26.2690 N.am    1  UNL1       -0.2761
      4 C           3.1605   -0.4752   26.1973 C.3     1  UNL1        0.0937
      5 C           3.5360   -1.0548   24.8658 C.3     1  UNL1        0.0223
      6 C           2.9756   -0.4643   23.6059 C.3     1  UNL1        0.0148
      7 C           2.0397    0.7056   23.6775 C.3     1  UNL1        0.0223
      8 C           1.6642    1.2852   25.0091 C.3     1  UNL1        0.0937
      9 C           3.9116   -1.6344   23.5342 C.3     1  UNL1        0.0712
     10 C           4.2871   -2.2139   22.2026 C.2     1  UNL1        0.1899
     11 O           5.2231   -3.3839   22.1310 O.2     1  UNL1       -0.2898
     12 C           3.7267   -1.6235   20.9427 C.ar    1  UNL1        0.1099
     13 C           2.7908   -0.4535   21.0144 C.ar    1  UNL1        0.0188
     14 C           2.4001   -0.0860   19.6136 C.ar    1  UNL1        0.1174
     15 N           3.0945   -1.0289   18.6762 N.ar    1  UNL1       -0.1680
     16 N           3.9145   -1.9791   19.4976 N.ar    1  UNL1       -0.2503
     17 C           2.4152    0.1261   22.3460 C.3     1  UNL1        0.0301
     18 C           0.2337    4.7212   28.7230 C.ar    1  UNL1        0.2251
     19 C           1.1697    3.5512   28.6514 C.ar    1  UNL1        0.0622
     20 C           0.9131    2.4443   27.6722 C.ar    1  UNL1        0.0597
     21 C          -0.2796    2.5074   26.7646 C.ar    1  UNL1        0.0239
     22 C          -1.2155    3.6774   26.8362 C.ar    1  UNL1        0.0845
     23 N          -0.9589    4.7843   27.8154 N.ar    1  UNL1       -0.2117
     24 C          -2.4080    3.7405   25.9286 C.ar    1  UNL1        0.0178
     25 C          -2.2324    3.5825   24.4472 C.ar    1  UNL1        0.0015
     26 C          -3.4249    3.6456   23.5396 C.ar    1  UNL1        0.0012
     27 C          -4.7932    3.8666   24.1133 C.ar    1  UNL1        0.0140
     28 C          -4.9689    4.0245   25.5945 C.ar    1  UNL1        0.0012
     29 C          -3.7763    3.9614   26.5022 C.ar    1  UNL1        0.0015
     30 C          -5.9857    3.9296   23.2057 C.2     1  UNL1        0.0729
     31 O          -5.8414    3.5861   21.7527 O.co2   1  UNL1       -0.5446
     32 O          -7.3227    4.3362   23.7510 O.co2   1  UNL1       -0.5446
     33 C          -0.2142    5.8363   31.0266 C.3     1  UNL1        0.2542
     34 O           0.4903    5.8281   29.7023 O.3     1  UNL1       -0.4561
     35 C           4.7717   -3.0899   18.9671 C.3     1  UNL1        0.1054
     36 C           6.1361   -2.7892   18.4216 C.3     1  UNL1        0.0263
     37 C           4.2643   -4.5014   18.9822 C.3     1  UNL1        0.0263
@<TRIPOS>UNITY_ATOM_ATTR
31 1
charge -1
@<TRIPOS>BOND
     1    33    34    1
     2    34    18    1
     3    18    19   ar
     4    19    20   ar
     5    20     1    1
     6     1     2    2
     7     1     3   am
     8     3     4    1
     9     4     5    1
    10     5     6    1
    11     6     7    1
    12     7     8    1
    13     6     9    1
    14     9    10    1
    15    10    11    2
    16    10    12    1
    17    12    13   ar
    18    13    14   ar
    19    14    15   ar
    20    15    16   ar
    21    16    35    1
    22    35    36    1
    23    35    37    1
    24    13    17    1
    25    20    21   ar
    26    21    22   ar
    27    22    24    1
    28    24    25   ar
    29    25    26   ar
    30    26    27   ar
    31    27    30    1
    32    30    31   ar
    33    30    32   ar
    34    27    28   ar
    35    28    29   ar
    36    22    23   ar
    37    23    18   ar
    38     8     3    1
    39    16    12   ar
    40    29    24   ar
    41    17     6    1
@<TRIPOS>MOLECULE
*****
 37 41 0 0 0
SMALL
GASTEIGER

@<TRIPOS>ATOM
      1 C          -0.6596    3.7924   17.6703 C.2     1  UNL1        0.2492
      2 O          -1.0148    3.9575   16.2224 O.2     1  UNL1       -0.2699
      3 N          -1.7126    3.9623   18.7250 N.am    1  UNL1       -0.2761
      4 C          -3.1208    4.2974   18.3318 C.3     1  UNL1        0.0937
      5 C          -4.1737    4.4673   19.3864 C.3     1  UNL1        0.0223
      6 C          -3.8185    4.3022   20.8344 C.3     1  UNL1        0.0148
      7 C          -2.4103    3.9671   21.2276 C.3     1  UNL1        0.0223
      8 C          -1.3573    3.7972   20.1730 C.3     1  UNL1        0.0937
      9 C          -5.2267    4.6372   20.4411 C.3     1  UNL1        0.0712
     10 C          -6.2797    4.8072   21.4958 C.2     1  UNL1        0.1899
     11 O          -7.6880    5.1422   21.1026 O.2     1  UNL1       -0.2898
     12 C          -5.9244    4.6420   22.9438 C.ar    1  UNL1        0.1099
     13 C          -4.5162    4.3070   23.3370 C.ar    1  UNL1        0.0188
     14 C          -4.4641    4.2061   24.8327 C.ar    1  UNL1        0.1174
     15 N          -5.8402    4.4788   25.3638 N.ar    1  UNL1       -0.1680
     16 N          -6.7427    4.7482   24.1964 N.ar    1  UNL1       -0.2503
     17 C          -3.4632    4.1371   22.2823 C.3     1  UNL1        0.0301
     18 C           3.1780    4.2129   18.5905 C.ar    1  UNL1        0.2251
     19 C           1.7697    4.5480   18.1972 C.ar    1  UNL1        0.0622
     20 C           0.7486    3.4574   18.0636 C.ar    1  UNL1        0.0597
     21 C           1.1358    2.0316   18.3233 C.ar    1  UNL1        0.0239
     22 C           2.5440    1.6966   18.7165 C.ar    1  UNL1        0.0845
     23 N           3.5651    2.7872   18.8501 N.ar    1  UNL1       -0.2117
     24 C           2.9311    0.2709   18.9762 C.ar    1  UNL1        0.0178
     25 C           2.6524   -0.3505   20.3127 C.ar    1  UNL1        0.0015
     26 C           3.0395   -1.7762   20.5724 C.ar    1  UNL1        0.0012
     27 C           3.7053   -2.5806   19.4956 C.ar    1  UNL1        0.0140
     28 C           3.9841   -1.9593   18.1591 C.ar    1  UNL1        0.0012
     29 C           3.5970   -0.5335   17.8994 C.ar    1  UNL1        0.0015
     30 C           4.0925   -4.0063   19.7552 C.2     1  UNL1        0.0729
     31 O           4.2860   -4.4864   21.1631 O.co2   1  UNL1       -0.5446
     32 O           4.2861   -4.9520   18.6070 O.co2   1  UNL1       -0.5446
     33 C           4.8551    5.5586   20.0487 C.3     1  UNL1        0.2542
     34 O           4.1991    5.3036   18.7241 O.3     1  UNL1       -0.4561
     35 C          -8.2066    5.0677   24.2689 C.3     1  UNL1        0.1054
     36 C          -8.6583    6.4938   24.3783 C.3     1  UNL1        0.0263
     37 C          -9.2185    3.9611   24.2320 C.3     1  UNL1        0.0263
@<TRIPOS>UNITY_ATOM_ATTR
31 1
charge -1
@<TRIPOS>BOND
     1    33    34    1
     2    34    18    1
     3    18    19   ar
     4    19    20   ar
     5    20     1    1
     6     1     2    2
     7     1     3   am
     8     3     4    1
     9     4     5    1
    10     5     6    1
    11     6     7    1
    12     7     8    1
    13     6     9    1
    14     9    10    1
    15    10    11    2
    16    10    12    1
    17    12    13   ar
    18    13    14   ar
    19    14    15   ar
    20    15    16   ar
    21    16    35    1
    22    35    36    1
    23    35    37    1
    24    13    17    1
    25    20    21   ar
    26    21    22   ar
    27    22    24    1
    28    24    25   ar
    29    25    26   ar
    30    26    27   ar
    31    27    30    1
    32    30    31   ar
    33    30    32   ar
    34    27    28   ar
    35    28    29   ar
    36    22    23   ar
    37    23    18   ar
    38     8     3    1
    39    16    12   ar
    40    29    24   ar
    41    17     6    1
@<TRIPOS>MOLECULE
*****
 37 41 0 0 0
SMALL
GASTEIGER

@<TRIPOS>ATOM
      1 C           1.2525    1.7720   27.0716 C.2     1  UNL1        0.2492
      2 O           0.2482    2.8155   26.6809 O.2     1  UNL1       -0.2699
      3 N           1.9034    0.9258   26.0178 N.am    1  UNL1       -0.2761
      4 C           1.5500    1.1231   24.5735 C.3     1  UNL1        0.0937
      5 C           2.2009    0.2769   23.5198 C.3     1  UNL1        0.0223
      6 C           3.2052   -0.7666   23.9105 C.3     1  UNL1        0.0148
      7 C           3.5586   -0.9638   25.3549 C.3     1  UNL1        0.0223
      8 C           2.9077   -0.1176   26.4085 C.3     1  UNL1        0.0937
      9 C           2.8518   -0.5693   22.4661 C.3     1  UNL1        0.0712
     10 C           3.5027   -1.4155   21.4124 C.2     1  UNL1        0.1899
     11 O           3.1493   -1.2183   19.9680 O.2     1  UNL1       -0.2898
     12 C           4.5070   -2.4590   21.8031 C.ar    1  UNL1        0.1099
     13 C           4.8604   -2.6562   23.2474 C.ar    1  UNL1        0.0188
     14 C           5.8784   -3.7547   23.3298 C.ar    1  UNL1        0.1174
     15 N           6.1542   -4.2364   21.9362 N.ar    1  UNL1       -0.1680
     16 N           5.3066   -3.4356   20.9927 N.ar    1  UNL1       -0.2503
     17 C           4.2095   -1.8100   24.3012 C.3     1  UNL1        0.0301
     18 C           1.2782    2.1950   31.0175 C.ar    1  UNL1        0.2251
     19 C           0.9247    2.3923   29.5731 C.ar    1  UNL1        0.0622
     20 C           1.6059    1.5748   28.5159 C.ar    1  UNL1        0.0597
     21 C           2.6404    0.5599   28.9031 C.ar    1  UNL1        0.0239
     22 C           2.9938    0.3627   30.3475 C.ar    1  UNL1        0.0845
     23 N           2.3127    1.1802   31.4047 N.ar    1  UNL1       -0.2117
     24 C           4.0284   -0.6521   30.7346 C.ar    1  UNL1        0.0178
     25 C           5.0959   -1.0454   29.7569 C.ar    1  UNL1        0.0015
     26 C           6.1304   -2.0602   30.1440 C.ar    1  UNL1        0.0012
     27 C           6.0975   -2.6817   31.5088 C.ar    1  UNL1        0.0140
     28 C           5.0301   -2.2884   32.4865 C.ar    1  UNL1        0.0012
     29 C           3.9955   -1.2736   32.0994 C.ar    1  UNL1        0.0015
     30 C           7.1321   -3.6965   31.8959 C.2     1  UNL1        0.0729
     31 O           8.4657   -3.2474   32.4152 O.co2   1  UNL1       -0.5446
     32 O           6.8330   -5.1605   31.7638 O.co2   1  UNL1       -0.5446
     33 C           1.4004    3.6215   33.1856 C.3     1  UNL1        0.2542
     34 O           0.5970    3.0125   32.0748 O.3     1  UNL1       -0.4561
     35 C           5.2658   -3.5851   19.5007 C.3     1  UNL1        0.1054
     36 C           6.1187   -2.7056   18.6353 C.3     1  UNL1        0.0263
     37 C           4.3722   -4.6142   18.8742 C.3     1  UNL1        0.0263
@<TRIPOS>UNITY_ATOM_ATTR
31 1
charge -1
@<TRIPOS>BOND
     1    33    34    1
     2    34    18    1
     3    18    19   ar
     4    19    20   ar
     5    20     1    1
     6     1     2    2
     7     1     3   am
     8     3     4    1
     9     4     5    1
    10     5     6    1
    11     6     7    1
    12     7     8    1
    13     6     9    1
    14     9    10    1
    15    10    11    2
    16    10    12    1
    17    12    13   ar
    18    13    14   ar
    19    14    15   ar
    20    15    16   ar
    21    16    35    1
    22    35    36    1
    23    35    37    1
    24    13    17    1
    25    20    21   ar
    26    21    22   ar
    27    22    24    1
    28    24    25   ar
    29    25    26   ar
    30    26    27   ar
    31    27    30    1
    32    30    31   ar
    33    30    32   ar
    34    27    28   ar
    35    28    29   ar
    36    22    23   ar
    37    23    18   ar
    38     8     3    1
    39    16    12   ar
    40    29    24   ar
    41    17     6    1
@<TRIPOS>MOLECULE
*****
 37 41 0 0 0
SMALL
GASTEIGER

@<TRIPOS>ATOM
      1 C           2.5988   -0.2315   28.0880 C.2     1  UNL1        0.2492
      2 O           2.5236   -0.5370   29.5546 O.2     1  UNL1       -0.2699
      3 N           1.5228    0.5852   27.4358 N.am    1  UNL1       -0.2761
      4 C           0.3715    1.0963   28.2503 C.3     1  UNL1        0.0937
      5 C          -0.7044    1.9129   27.5981 C.3     1  UNL1        0.0223
      6 C          -0.6292    2.2184   26.1315 C.3     1  UNL1        0.0148
      7 C           0.5221    1.7073   25.3170 C.3     1  UNL1        0.0223
      8 C           1.5981    0.8907   25.9692 C.3     1  UNL1        0.0937
      9 C          -1.7805    2.7296   26.9459 C.3     1  UNL1        0.0712
     10 C          -2.8565    3.5462   26.2937 C.2     1  UNL1        0.1899
     11 O          -4.0078    4.0573   27.1082 O.2     1  UNL1       -0.2898
     12 C          -2.7812    3.8517   24.8271 C.ar    1  UNL1        0.1099
     13 C          -1.6299    3.3406   24.0127 C.ar    1  UNL1        0.0188
     14 C          -1.8236    3.7988   22.5976 C.ar    1  UNL1        0.1174
     15 N          -3.0946    4.5931   22.5374 N.ar    1  UNL1       -0.1680
     16 N          -3.6864    4.6258   23.9154 N.ar    1  UNL1       -0.2503
     17 C          -0.5539    2.5239   24.6648 C.3     1  UNL1        0.0301
     18 C           6.2669   -1.3548   27.0714 C.ar    1  UNL1        0.2251
     19 C           5.1156   -0.8437   27.8860 C.ar    1  UNL1        0.0622
     20 C           3.7501   -0.7426   27.2735 C.ar    1  UNL1        0.0597
     21 C           3.5358   -1.1525   25.8466 C.ar    1  UNL1        0.0239
     22 C           4.6871   -1.6636   25.0321 C.ar    1  UNL1        0.0845
     23 N           6.0526   -1.7648   25.6446 N.ar    1  UNL1       -0.2117
     24 C           4.4728   -2.0735   23.6053 C.ar    1  UNL1        0.0178
     25 C           5.0214   -3.3786   23.1093 C.ar    1  UNL1        0.0015
     26 C           4.8071   -3.7885   21.6825 C.ar    1  UNL1        0.0012
     27 C           4.0442   -2.8934   20.7515 C.ar    1  UNL1        0.0140
     28 C           3.4955   -1.5885   21.2473 C.ar    1  UNL1        0.0012
     29 C           3.7098   -1.1785   22.6743 C.ar    1  UNL1        0.0015
     30 C           3.8299   -3.3034   19.3246 C.2     1  UNL1        0.0729
     31 O           4.2795   -2.4051   18.2106 O.co2   1  UNL1       -0.5446
     32 O           3.1659   -4.6116   19.0117 O.co2   1  UNL1       -0.5446
     33 C           8.4045   -2.7385   27.5876 C.3     1  UNL1        0.2542
     34 O           7.6324   -1.4560   27.6838 O.3     1  UNL1       -0.4561
     35 C          -4.9600    5.3121   24.3120 C.3     1  UNL1        0.1054
     36 C          -6.2667    4.5821   24.2156 C.3     1  UNL1        0.0263
     37 C          -4.9266    6.7285   24.8049 C.3     1  UNL1        0.0263
@<TRIPOS>UNITY_ATOM_ATTR
31 1
charge -1
@<TRIPOS>BOND
     1    33    34    1
     2    34    18    1
     3    18    19   ar
     4    19    20   ar
     5    20     1    1
     6     1     2    2
     7     1     3   am
     8     3     4    1
     9     4     5    1
    10     5     6    1
    11     6     7    1
    12     7     8    1
    13     6     9    1
    14     9    10    1
    15    10    11    2
    16    10    12    1
    17    12    13   ar
    18    13    14   ar
    19    14    15   ar
    20    15    16   ar
    21    16    35    1
    22    35    36    1
    23    35    37    1
    24    13    17    1
    25    20    21   ar
    26    21    22   ar
    27    22    24    1
    28    24    25   ar
    29    25    26   ar
    30    26    27   ar
    31    27    30    1
    32    30    31   ar
    33    30    32   ar
    34    27    28   ar
    35    28    29   ar
    36    22    23   ar
    37    23    18   ar
    38     8     3    1
    39    16    12   ar
    40    29    24   ar
    41    17     6    1
@<TRIPOS>MOLECULE
*****
 37 41 0 0 0
SMALL
GASTEIGER

@<TRIPOS>ATOM
      1 C           4.6512   -1.2990   28.8540 C.2     1  UNL1        0.2492
      2 O           5.7683   -1.8775   29.6710 O.2     1  UNL1       -0.2699
      3 N           4.6393   -1.4803   27.3650 N.am    1  UNL1       -0.2761
      4 C           5.7445   -2.2400   26.6931 C.3     1  UNL1        0.0937
      5 C           5.7326   -2.4212   25.2041 C.3     1  UNL1        0.0223
      6 C           4.6155   -1.8427   24.3871 C.3     1  UNL1        0.0148
      7 C           3.5104   -1.0830   25.0590 C.3     1  UNL1        0.0223
      8 C           3.5223   -0.9018   26.5480 C.3     1  UNL1        0.0937
      9 C           5.7207   -2.6024   23.7151 C.3     1  UNL1        0.0712
     10 C           5.7088   -2.7836   22.2262 C.2     1  UNL1        0.1899
     11 O           6.8140   -3.5433   21.5542 O.2     1  UNL1       -0.2898
     12 C           4.5917   -2.2051   21.4092 C.ar    1  UNL1        0.1099
     13 C           3.4866   -1.4455   22.0811 C.ar    1  UNL1        0.0188
     14 C           2.5251   -0.9926   21.0226 C.ar    1  UNL1        0.1174
     15 N           3.0361   -1.4723   19.6964 N.ar    1  UNL1       -0.1680
     16 N           4.3133   -2.2217   19.9353 N.ar    1  UNL1       -0.2503
     17 C           3.4984   -1.2642   23.5701 C.3     1  UNL1        0.0301
     18 C           1.1390    0.4375   29.4853 C.ar    1  UNL1        0.2251
     19 C           2.2441   -0.3222   28.8133 C.ar    1  UNL1        0.0622
     20 C           3.5461   -0.5394   29.5259 C.ar    1  UNL1        0.0597
     21 C           3.7428    0.0032   30.9105 C.ar    1  UNL1        0.0239
     22 C           2.6377    0.7629   31.5824 C.ar    1  UNL1        0.0845
     23 N           1.3358    0.9800   30.8698 N.ar    1  UNL1       -0.2117
     24 C           2.8345    1.3054   32.9669 C.ar    1  UNL1        0.0178
     25 C           2.0002    2.4557   33.4473 C.ar    1  UNL1        0.0015
     26 C           2.1970    2.9983   34.8318 C.ar    1  UNL1        0.0012
     27 C           3.2281    2.3905   35.7359 C.ar    1  UNL1        0.0140
     28 C           4.0624    1.2403   35.2556 C.ar    1  UNL1        0.0012
     29 C           3.8656    0.6977   33.8710 C.ar    1  UNL1        0.0015
     30 C           3.4249    2.9331   37.1204 C.2     1  UNL1        0.0729
     31 O           4.3425    4.0980   37.3461 O.co2   1  UNL1       -0.5446
     32 O           2.7041    2.3106   38.2794 O.co2   1  UNL1       -0.5446
     33 C          -1.2758   -0.3397   28.9242 C.3     1  UNL1        0.2542
     34 O          -0.1630    0.6547   28.7727 O.3     1  UNL1       -0.4561
     35 C           5.1630   -2.8734   18.8848 C.3     1  UNL1        0.1054
     36 C           4.9569   -4.3196   18.5444 C.3     1  UNL1        0.0263
     37 C           6.2188   -2.0788   18.1749 C.3     1  UNL1        0.0263
@<TRIPOS>UNITY_ATOM_ATTR
31 1
charge -1
@<TRIPOS>BOND
     1    33    34    1
     2    34    18    1
     3    18    19   ar
     4    19    20   ar
     5    20     1    1
     6     1     2    2
     7     1     3   am
     8     3     4    1
     9     4     5    1
    10     5     6    1
    11     6     7    1
    12     7     8    1
    13     6     9    1
    14     9    10    1
    15    10    11    2
    16    10    12    1
    17    12    13   ar
    18    13    14   ar
    19    14    15   ar
    20    15    16   ar
    21    16    35    1
    22    35    36    1
    23    35    37    1
    24    13    17    1
    25    20    21   ar
    26    21    22   ar
    27    22    24    1
    28    24    25   ar
    29    25    26   ar
    30    26    27   ar
    31    27    30    1
    32    30    31   ar
    33    30    32   ar
    34    27    28   ar
    35    28    29   ar
    36    22    23   ar
    37    23    18   ar
    38     8     3    1
    39    16    12   ar
    40    29    24   ar
    41    17     6    1
@<TRIPOS>MOLECULE
*****
 37 41 0 0 0
SMALL
GASTEIGER

@<TRIPOS>ATOM
      1 C          -0.6884    1.9984   26.5601 C.2     1  UNL1        0.2492
      2 O          -1.9583    2.3500   27.2768 O.2     1  UNL1       -0.2699
      3 N           0.4430    1.3586   27.3090 N.am    1  UNL1       -0.2761
      4 C           0.3043    1.0703   28.7744 C.3     1  UNL1        0.0937
      5 C           1.4356    0.4304   29.5232 C.3     1  UNL1        0.0223
      6 C           2.7056    0.0789   28.8065 C.3     1  UNL1        0.0148
      7 C           2.8442    0.3672   27.3411 C.3     1  UNL1        0.0223
      8 C           1.7129    1.0070   26.5923 C.3     1  UNL1        0.0937
      9 C           2.5670   -0.2095   30.2721 C.3     1  UNL1        0.0712
     10 C           3.6983   -0.8493   31.0208 C.2     1  UNL1        0.1899
     11 O           3.5597   -1.1376   32.4864 O.2     1  UNL1       -0.2898
     12 C           4.9683   -1.2008   30.3041 C.ar    1  UNL1        0.1099
     13 C           5.1069   -0.9125   28.8387 C.ar    1  UNL1        0.0188
     14 C           6.4682   -1.3677   28.4034 C.ar    1  UNL1        0.1174
     15 N           7.1710   -1.9374   29.5999 N.ar    1  UNL1       -0.1680
     16 N           6.2439   -1.8343   30.7746 N.ar    1  UNL1       -0.2503
     17 C           3.9756   -0.2726   28.0898 C.3     1  UNL1        0.0301
     18 C          -1.0340    3.8082   23.0451 C.ar    1  UNL1        0.2251
     19 C          -1.1727    3.5200   24.5107 C.ar    1  UNL1        0.0622
     20 C          -0.5497    2.2867   25.0947 C.ar    1  UNL1        0.0597
     21 C           0.2119    1.3418   24.2131 C.ar    1  UNL1        0.0239
     22 C           0.3506    1.6301   22.7477 C.ar    1  UNL1        0.0845
     23 N          -0.2724    2.8633   22.1637 N.ar    1  UNL1       -0.2117
     24 C           1.1122    0.6852   21.8662 C.ar    1  UNL1        0.0178
     25 C           2.4117    0.1025   22.3374 C.ar    1  UNL1        0.0015
     26 C           3.1733   -0.8424   21.4559 C.ar    1  UNL1        0.0012
     27 C           2.6355   -1.2047   20.1033 C.ar    1  UNL1        0.0140
     28 C           1.3361   -0.6221   19.6321 C.ar    1  UNL1        0.0012
     29 C           0.5744    0.3229   20.5136 C.ar    1  UNL1        0.0015
     30 C           3.3971   -2.1496   19.2218 C.2     1  UNL1        0.0729
     31 O           3.4865   -3.6032   19.5811 O.co2   1  UNL1       -0.5446
     32 O           4.0694   -1.6410   17.9811 O.co2   1  UNL1       -0.5446
     33 C          -2.6685    4.9213   21.3600 C.3     1  UNL1        0.2542
     34 O          -1.6570    5.0415   22.4611 O.3     1  UNL1       -0.4561
     35 C           6.5405   -2.2854   32.1742 C.3     1  UNL1        0.1054
     36 C           7.0258   -1.2977   33.1934 C.3     1  UNL1        0.0263
     37 C           6.3517   -3.7241   32.5543 C.3     1  UNL1        0.0263
@<TRIPOS>UNITY_ATOM_ATTR
31 1
charge -1
@<TRIPOS>BOND
     1    33    34    1
     2    34    18    1
     3    18    19   ar
     4    19    20   ar
     5    20     1    1
     6     1     2    2
     7     1     3   am
     8     3     4    1
     9     4     5    1
    10     5     6    1
    11     6     7    1
    12     7     8    1
    13     6     9    1
    14     9    10    1
    15    10    11    2
    16    10    12    1
    17    12    13   ar
    18    13    14   ar
    19    14    15   ar
    20    15    16   ar
    21    16    35    1
    22    35    36    1
    23    35    37    1
    24    13    17    1
    25    20    21   ar
    26    21    22   ar
    27    22    24    1
    28    24    25   ar
    29    25    26   ar
    30    26    27   ar
    31    27    30    1
    32    30    31   ar
    33    30    32   ar
    34    27    28   ar
    35    28    29   ar
    36    22    23   ar
    37    23    18   ar
    38     8     3    1
    39    16    12   ar
    40    29    24   ar
    41    17     6    1
@<TRIPOS>MOLECULE
*****
 37 41 0 0 0
SMALL
GASTEIGER

@<TRIPOS>ATOM
      1 C           1.2760    1.7252   27.6082 C.2     1  UNL1        0.2492
      2 O           0.2923    2.7808   27.1984 O.2     1  UNL1       -0.2699
      3 N           1.9593    0.8914   26.5652 N.am    1  UNL1       -0.2761
      4 C           1.6589    1.1132   25.1124 C.3     1  UNL1        0.0937
      5 C           2.3422    0.2794   24.0695 C.3     1  UNL1        0.0223
      6 C           3.3260   -0.7763   24.4793 C.3     1  UNL1        0.0148
      7 C           3.6263   -0.9981   25.9320 C.3     1  UNL1        0.0223
      8 C           2.9430   -0.1643   26.9750 C.3     1  UNL1        0.0937
      9 C           3.0256   -0.5545   23.0265 C.3     1  UNL1        0.0712
     10 C           3.7089   -1.3883   21.9835 C.2     1  UNL1        0.1899
     11 O           3.4085   -1.1665   20.5307 O.2     1  UNL1       -0.2898
     12 C           4.6926   -2.4439   22.3933 C.ar    1  UNL1        0.1099
     13 C           4.9930   -2.6658   23.8461 C.ar    1  UNL1        0.0188
     14 C           6.0011   -3.7718   23.9474 C.ar    1  UNL1        0.1174
     15 N           6.3239   -4.2335   22.5572 N.ar    1  UNL1       -0.1680
     16 N           5.5151   -3.4129   21.5967 N.ar    1  UNL1       -0.2503
     17 C           4.3097   -1.8319   24.8891 C.3     1  UNL1        0.0301
     18 C           2.5427    0.0126   30.9567 C.ar    1  UNL1        0.2251
     19 C           2.2423    0.2344   29.5039 C.ar    1  UNL1        0.0622
     20 C           1.5764    1.5034   29.0610 C.ar    1  UNL1        0.0597
     21 C           1.2108    2.5506   30.0709 C.ar    1  UNL1        0.0239
     22 C           1.5112    2.3287   31.5236 C.ar    1  UNL1        0.0845
     23 N           2.1771    1.0597   31.9665 N.ar    1  UNL1       -0.2117
     24 C           1.1456    3.3759   32.5334 C.ar    1  UNL1        0.0178
     25 C           1.8665    3.4347   33.8476 C.ar    1  UNL1        0.0015
     26 C           1.5009    4.4818   34.8574 C.ar    1  UNL1        0.0012
     27 C           0.4145    5.4702   34.5531 C.ar    1  UNL1        0.0140
     28 C          -0.3065    5.4115   33.2391 C.ar    1  UNL1        0.0012
     29 C           0.0591    4.3643   32.2292 C.ar    1  UNL1        0.0015
     30 C           0.0489    6.5174   35.5630 C.2     1  UNL1        0.0729
     31 O          -1.2663    7.2315   35.4604 O.co2   1  UNL1       -0.5446
     32 O           0.9985    6.8505   36.6754 O.co2   1  UNL1       -0.5446
     33 C           4.7028   -1.3779   31.3449 C.3     1  UNL1        0.2542
     34 O           3.2087   -1.2564   31.3997 O.3     1  UNL1       -0.4561
     35 C           5.5269   -3.5390   20.1020 C.3     1  UNL1        0.1054
     36 C           6.4674   -2.7025   19.2862 C.3     1  UNL1        0.0263
     37 C           4.5981   -4.5017   19.4233 C.3     1  UNL1        0.0263
@<TRIPOS>UNITY_ATOM_ATTR
31 1
charge -1
@<TRIPOS>BOND
     1    33    34    1
     2    34    18    1
     3    18    19   ar
     4    19    20   ar
     5    20     1    1
     6     1     2    2
     7     1     3   am
     8     3     4    1
     9     4     5    1
    10     5     6    1
    11     6     7    1
    12     7     8    1
    13     6     9    1
    14     9    10    1
    15    10    11    2
    16    10    12    1
    17    12    13   ar
    18    13    14   ar
    19    14    15   ar
    20    15    16   ar
    21    16    35    1
    22    35    36    1
    23    35    37    1
    24    13    17    1
    25    20    21   ar
    26    21    22   ar
    27    22    24    1
    28    24    25   ar
    29    25    26   ar
    30    26    27   ar
    31    27    30    1
    32    30    31   ar
    33    30    32   ar
    34    27    28   ar
    35    28    29   ar
    36    22    23   ar
    37    23    18   ar
    38     8     3    1
    39    16    12   ar
    40    29    24   ar
    41    17     6    1
@<TRIPOS>MOLECULE
*****
 37 41 0 0 0
SMALL
GASTEIGER

@<TRIPOS>ATOM
      1 C           5.3985   -1.7778   28.9345 C.2     1  UNL1        0.2492
      2 O           6.5084   -2.4585   29.6792 O.2     1  UNL1       -0.2699
      3 N           5.2677   -1.9609   27.4514 N.am    1  UNL1       -0.2761
      4 C           6.2469   -2.8247   26.7132 C.3     1  UNL1        0.0937
      5 C           6.1161   -3.0078   25.2302 C.3     1  UNL1        0.0223
      6 C           5.0062   -2.3270   24.4854 C.3     1  UNL1        0.0148
      7 C           4.0270   -1.4632   25.2236 C.3     1  UNL1        0.0223
      8 C           4.1578   -1.2802   26.7066 C.3     1  UNL1        0.0937
      9 C           5.9854   -3.1909   23.7471 C.3     1  UNL1        0.0712
     10 C           5.8546   -3.3739   22.2641 C.2     1  UNL1        0.1899
     11 O           6.8338   -4.2378   21.5257 O.2     1  UNL1       -0.2898
     12 C           4.7447   -2.6932   21.5193 C.ar    1  UNL1        0.1099
     13 C           3.7655   -1.8294   22.2576 C.ar    1  UNL1        0.0188
     14 C           2.7817   -1.2892   21.2625 C.ar    1  UNL1        0.1174
     15 N           3.1528   -1.8192   19.9092 N.ar    1  UNL1       -0.1680
     16 N           4.3660   -2.6869   20.0679 N.ar    1  UNL1       -0.2503
     17 C           3.8962   -1.6463   23.7406 C.3     1  UNL1        0.0301
     18 C           3.5163    0.0620   31.9048 C.ar    1  UNL1        0.2251
     19 C           4.4956   -0.8019   31.1666 C.ar    1  UNL1        0.0622
     20 C           4.4193   -0.9140   29.6727 C.ar    1  UNL1        0.0597
     21 C           3.3638   -0.1622   28.9171 C.ar    1  UNL1        0.0239
     22 C           2.3847    0.7016   29.6554 C.ar    1  UNL1        0.0845
     23 N           2.4609    0.8137   31.1492 N.ar    1  UNL1       -0.2117
     24 C           1.3292    1.4533   28.8997 C.ar    1  UNL1        0.0178
     25 C           0.1413    0.7244   28.3450 C.ar    1  UNL1        0.0015
     26 C          -0.9141    1.4761   27.5894 C.ar    1  UNL1        0.0012
     27 C          -0.7817    2.9567   27.3885 C.ar    1  UNL1        0.0140
     28 C           0.4062    3.6855   27.9432 C.ar    1  UNL1        0.0012
     29 C           1.4617    2.9338   28.6988 C.ar    1  UNL1        0.0015
     30 C          -1.8371    3.7084   26.6328 C.2     1  UNL1        0.0729
     31 O          -2.4204    4.9646   27.2086 O.co2   1  UNL1       -0.5446
     32 O          -2.3092    3.2038   25.3014 O.co2   1  UNL1       -0.5446
     33 C           4.3564   -0.8465   34.1894 C.3     1  UNL1        0.2542
     34 O           3.5926    0.1741   33.3987 O.3     1  UNL1       -0.4561
     35 C           5.0759   -3.4197   18.9683 C.3     1  UNL1        0.1054
     36 C           6.2007   -2.7569   18.2298 C.3     1  UNL1        0.0263
     37 C           4.6609   -4.8152   18.6072 C.3     1  UNL1        0.0263
@<TRIPOS>UNITY_ATOM_ATTR
31 1
charge -1
@<TRIPOS>BOND
     1    33    34    1
     2    34    18    1
     3    18    19   ar
     4    19    20   ar
     5    20     1    1
     6     1     2    2
     7     1     3   am
     8     3     4    1
     9     4     5    1
    10     5     6    1
    11     6     7    1
    12     7     8    1
    13     6     9    1
    14     9    10    1
    15    10    11    2
    16    10    12    1
    17    12    13   ar
    18    13    14   ar
    19    14    15   ar
    20    15    16   ar
    21    16    35    1
    22    35    36    1
    23    35    37    1
    24    13    17    1
    25    20    21   ar
    26    21    22   ar
    27    22    24    1
    28    24    25   ar
    29    25    26   ar
    30    26    27   ar
    31    27    30    1
    32    30    31   ar
    33    30    32   ar
    34    27    28   ar
    35    28    29   ar
    36    22    23   ar
    37    23    18   ar
    38     8     3    1
    39    16    12   ar
    40    29    24   ar
    41    17     6    1
@<TRIPOS>MOLECULE
*****
 37 41 0 0 0
SMALL
GASTEIGER

@<TRIPOS>ATOM
      1 C           0.5458    0.7973   29.3344 C.2     1  UNL1        0.2492
      2 O          -0.8793    0.6686   29.7844 O.2     1  UNL1       -0.2699
      3 N           0.8594    0.9740   27.8781 N.am    1  UNL1       -0.2761
      4 C          -0.2521    1.0218   26.8720 C.3     1  UNL1        0.0937
      5 C           0.0615    1.1985   25.4159 C.3     1  UNL1        0.0223
      6 C           1.4866    1.3272   24.9658 C.3     1  UNL1        0.0148
      7 C           2.5981    1.2794   25.9719 C.3     1  UNL1        0.0223
      8 C           2.2845    1.1027   27.4281 C.3     1  UNL1        0.0937
      9 C           0.3751    1.3751   23.9596 C.3     1  UNL1        0.0712
     10 C           0.6887    1.5518   22.5035 C.2     1  UNL1        0.1899
     11 O          -0.4228    1.5997   21.4973 O.2     1  UNL1       -0.2898
     12 C           2.1138    1.6805   22.0534 C.ar    1  UNL1        0.1099
     13 C           3.2252    1.6326   23.0595 C.ar    1  UNL1        0.0188
     14 C           4.5234    1.7855   22.3238 C.ar    1  UNL1        0.1174
     15 N           4.2142    1.9279   20.8629 N.ar    1  UNL1       -0.1680
     16 N           2.7250    1.8630   20.6958 N.ar    1  UNL1       -0.2503
     17 C           2.9117    1.4560   24.5158 C.3     1  UNL1        0.0301
     18 C           2.8563    1.7477   32.4179 C.ar    1  UNL1        0.2251
     19 C           1.7447    1.7956   31.4118 C.ar    1  UNL1        0.0622
     20 C           1.6573    0.7494   30.3404 C.ar    1  UNL1        0.0597
     21 C           2.6814   -0.3447   30.2752 C.ar    1  UNL1        0.0239
     22 C           3.7929   -0.3926   31.2813 C.ar    1  UNL1        0.0845
     23 N           3.8804    0.6536   32.3526 N.ar    1  UNL1       -0.2117
     24 C           4.8170   -1.4866   31.2160 C.ar    1  UNL1        0.0178
     25 C           5.0950   -2.3270   32.4270 C.ar    1  UNL1        0.0015
     26 C           6.1190   -3.4210   32.3617 C.ar    1  UNL1        0.0012
     27 C           6.8651   -3.6748   31.0854 C.ar    1  UNL1        0.0140
     28 C           6.5871   -2.8345   29.8744 C.ar    1  UNL1        0.0012
     29 C           5.5630   -1.7404   29.9396 C.ar    1  UNL1        0.0015
     30 C           7.8891   -4.7689   31.0201 C.2     1  UNL1        0.0729
     31 O           7.5732   -6.0503   30.3073 O.co2   1  UNL1       -0.5446
     32 O           9.2292   -4.5815   31.6677 O.co2   1  UNL1       -0.5446
     33 C           2.5013    2.4751   34.8868 C.3     1  UNL1        0.2542
     34 O           2.9438    2.7939   33.4893 O.3     1  UNL1       -0.4561
     35 C           1.9780    1.9630   19.3988 C.3     1  UNL1        0.1054
     36 C           1.6400    3.3091   18.8300 C.3     1  UNL1        0.0263
     37 C           1.5692    0.7169   18.6707 C.3     1  UNL1        0.0263
@<TRIPOS>UNITY_ATOM_ATTR
31 1
charge -1
@<TRIPOS>BOND
     1    33    34    1
     2    34    18    1
     3    18    19   ar
     4    19    20   ar
     5    20     1    1
     6     1     2    2
     7     1     3   am
     8     3     4    1
     9     4     5    1
    10     5     6    1
    11     6     7    1
    12     7     8    1
    13     6     9    1
    14     9    10    1
    15    10    11    2
    16    10    12    1
    17    12    13   ar
    18    13    14   ar
    19    14    15   ar
    20    15    16   ar
    21    16    35    1
    22    35    36    1
    23    35    37    1
    24    13    17    1
    25    20    21   ar
    26    21    22   ar
    27    22    24    1
    28    24    25   ar
    29    25    26   ar
    30    26    27   ar
    31    27    30    1
    32    30    31   ar
    33    30    32   ar
    34    27    28   ar
    35    28    29   ar
    36    22    23   ar
    37    23    18   ar
    38     8     3    1
    39    16    12   ar
    40    29    24   ar
    41    17     6    1
