@<TRIPOS>MOLECULE
*****
 23 24 0 0 0
SMALL
GASTEIGER

@<TRIPOS>ATOM
      1 C          -8.6099  -17.9665   22.7125 C.ar    1  UNL1        0.2224
      2 N          -8.2723  -16.7496   23.5220 N.ar    1  UNL1       -0.1810
      3 C          -6.8412  -16.3309   23.6854 C.ar    1  UNL1        0.2219
      4 N          -5.7478  -17.1291   23.0394 N.ar    1  UNL1       -0.1771
      5 C          -6.0854  -18.3459   22.2300 C.ar    1  UNL1        0.2592
      6 N          -7.5165  -18.7646   22.0665 N.ar    1  UNL1       -0.1770
      7 N          -4.9920  -19.1441   21.5839 N.ar    1  UNL1       -0.1739
      8 C          -3.5993  -19.3210   22.1124 C.ar    1  UNL1        0.2045
      9 N          -2.8458  -20.1917   21.1511 N.ar    1  UNL1       -0.2004
     10 C          -3.7729  -20.5530   20.0285 C.ar    1  UNL1        0.2215
     11 N          -5.0992  -19.9055   20.2960 N.ar    1  UNL1       -0.1383
     12 N          -6.5036  -15.1140   24.4950 N.pl3   1  UNL1       -0.3012
     13 C          -5.6010  -15.2330   25.6871 C.3     1  UNL1        0.1108
     14 H          -6.8744  -14.2373   24.2438 H       1  UNL1        0.1497
     15 N         -10.0410  -18.3852   22.5490 N.pl3   1  UNL1       -0.2943
     16 H         -10.3765  -19.1842   23.0161 H       1  UNL1        0.1505
     17 C         -10.9609  -17.5864   21.6740 C.3     1  UNL1        0.1364
     18 C         -10.5527  -19.3356   19.7968 C.3     1  UNL1        0.0028
     19 C         -10.2007  -18.0382   20.4624 C.3     1  UNL1        0.0326
     20 C         -11.8808  -16.7876   20.7989 C.1     1  UNL1        0.0896
     21 N         -12.8007  -15.9887   19.9240 N.1     1  UNL1       -0.1943
     22 C         -11.7211  -17.1346   22.8856 C.3     1  UNL1        0.0326
     23 C         -12.9956  -17.8249   23.2719 C.3     1  UNL1        0.0028
@<TRIPOS>BOND
     1    18    19    1
     2    19    17    1
     3    17    20    1
     4    20    21    3
     5    17    22    1
     6    22    23    1
     7    17    15    1
     8    15     1    1
     9     1     2   ar
    10     2     3   ar
    11     3    12    1
    12    12    13    1
    13     3     4   ar
    14     4     5   ar
    15     5     7    1
    16     7     8   ar
    17     8     9   ar
    18     9    10   ar
    19    10    11   ar
    20     5     6   ar
    21     6     1   ar
    22    11     7   ar
    23    15    16    1
    24    12    14    1
@<TRIPOS>MOLECULE
*****
 23 24 0 0 0
SMALL
GASTEIGER

@<TRIPOS>ATOM
      1 C          -5.2751  -18.0545   22.4970 C.ar    1  UNL1        0.2224
      2 N          -5.1970  -16.8966   23.4473 N.ar    1  UNL1       -0.1810
      3 C          -6.4260  -16.0929   23.7530 C.ar    1  UNL1        0.2219
      4 N          -7.7333  -16.4471   23.1084 N.ar    1  UNL1       -0.1771
      5 C          -7.8115  -17.6051   22.1582 C.ar    1  UNL1        0.2592
      6 N          -6.5824  -18.4087   21.8525 N.ar    1  UNL1       -0.1770
      7 N          -9.1188  -17.9594   21.5136 N.ar    1  UNL1       -0.1739
      8 C          -9.7588  -19.3160   21.5055 C.ar    1  UNL1        0.2045
      9 N         -11.0511  -19.2144   20.7508 N.ar    1  UNL1       -0.2004
     10 C         -11.2099  -17.7950   20.2925 C.ar    1  UNL1        0.2215
     11 N         -10.0157  -17.0193   20.7640 N.ar    1  UNL1       -0.1383
     12 N          -6.3478  -14.9349   24.7033 N.pl3   1  UNL1       -0.3012
     13 C          -5.7311  -15.1172   26.0585 C.3     1  UNL1        0.1108
     14 H          -6.7012  -14.0553   24.4376 H       1  UNL1        0.1497
     15 N          -4.0460  -18.8582   22.1913 N.pl3   1  UNL1       -0.2943
     16 H          -3.7785  -19.5945   22.7875 H       1  UNL1        0.1505
     17 C          -3.2246  -18.5399   20.9773 C.3     1  UNL1        0.1364
     18 C          -4.1336  -20.7531   19.9647 C.3     1  UNL1        0.0028
     19 C          -4.2171  -19.2631   20.1161 C.3     1  UNL1        0.0326
     20 C          -2.4030  -18.2216   19.7633 C.1     1  UNL1        0.0896
     21 N          -1.5815  -17.9032   18.5493 N.1     1  UNL1       -0.1943
     22 C          -2.2320  -17.8167   21.8386 C.3     1  UNL1        0.0326
     23 C          -2.0821  -16.3287   21.7225 C.3     1  UNL1        0.0028
@<TRIPOS>BOND
     1    18    19    1
     2    19    17    1
     3    17    20    1
     4    20    21    3
     5    17    22    1
     6    22    23    1
     7    17    15    1
     8    15     1    1
     9     1     2   ar
    10     2     3   ar
    11     3    12    1
    12    12    13    1
    13     3     4   ar
    14     4     5   ar
    15     5     7    1
    16     7     8   ar
    17     8     9   ar
    18     9    10   ar
    19    10    11   ar
    20     5     6   ar
    21     6     1   ar
    22    11     7   ar
    23    15    16    1
    24    12    14    1
@<TRIPOS>MOLECULE
*****
 23 24 0 0 0
SMALL
GASTEIGER

@<TRIPOS>ATOM
      1 C          -5.2602  -18.0723   22.4716 C.ar    1  UNL1        0.2224
      2 N          -5.1845  -16.9201   23.4290 N.ar    1  UNL1       -0.1810
      3 C          -6.4152  -16.1208   23.7395 C.ar    1  UNL1        0.2219
      4 N          -7.7217  -16.4736   23.0925 N.ar    1  UNL1       -0.1771
      5 C          -7.7974  -17.6257   22.1351 C.ar    1  UNL1        0.2592
      6 N          -6.5667  -18.4251   21.8246 N.ar    1  UNL1       -0.1770
      7 N          -9.1039  -17.9786   21.4881 N.ar    1  UNL1       -0.1739
      8 C          -9.7228  -19.3441   21.4384 C.ar    1  UNL1        0.2045
      9 N         -11.0223  -19.2374   20.6968 N.ar    1  UNL1       -0.2004
     10 C         -11.2065  -17.8059   20.2881 C.ar    1  UNL1        0.2215
     11 N         -10.0209  -17.0280   20.7772 N.ar    1  UNL1       -0.1383
     12 N          -6.3394  -14.9686   24.6970 N.pl3   1  UNL1       -0.3012
     13 C          -5.6346  -15.1306   26.0111 C.3     1  UNL1        0.1108
     14 H          -6.7522  -14.1060   24.4629 H       1  UNL1        0.1497
     15 N          -4.0295  -18.8717   22.1611 N.pl3   1  UNL1       -0.2943
     16 H          -3.7621  -19.6129   22.7513 H       1  UNL1        0.1505
     17 C          -3.2063  -18.5417   20.9515 C.3     1  UNL1        0.1364
     18 C          -2.0545  -16.3334   21.6910 C.3     1  UNL1        0.0028
     19 C          -2.2199  -17.8187   21.8199 C.3     1  UNL1        0.0326
     20 C          -2.3830  -18.2118   19.7417 C.1     1  UNL1        0.0896
     21 N          -1.5598  -17.8818   18.5320 N.1     1  UNL1       -0.1943
     22 C          -4.1927  -19.2647   20.0830 C.3     1  UNL1        0.0326
     23 C          -4.1721  -20.7629   20.0115 C.3     1  UNL1        0.0028
@<TRIPOS>BOND
     1    18    19    1
     2    19    17    1
     3    17    20    1
     4    20    21    3
     5    17    22    1
     6    22    23    1
     7    17    15    1
     8    15     1    1
     9     1     2   ar
    10     2     3   ar
    11     3    12    1
    12    12    13    1
    13     3     4   ar
    14     4     5   ar
    15     5     7    1
    16     7     8   ar
    17     8     9   ar
    18     9    10   ar
    19    10    11   ar
    20     5     6   ar
    21     6     1   ar
    22    11     7   ar
    23    15    16    1
    24    12    14    1
@<TRIPOS>MOLECULE
*****
 23 24 0 0 0
SMALL
GASTEIGER

@<TRIPOS>ATOM
      1 C          -8.7474  -17.9960   21.1827 C.ar    1  UNL1        0.2224
      2 N          -7.7411  -18.9053   20.5421 N.ar    1  UNL1       -0.1810
      3 C          -6.3325  -18.9458   21.0562 C.ar    1  UNL1        0.2219
      4 N          -5.9302  -18.0770   22.2109 N.ar    1  UNL1       -0.1771
      5 C          -6.9365  -17.1677   22.8514 C.ar    1  UNL1        0.2592
      6 N          -8.3451  -17.1272   22.3374 N.ar    1  UNL1       -0.1770
      7 N          -6.5343  -16.2988   24.0062 N.ar    1  UNL1       -0.1739
      8 C          -5.2179  -15.5975   24.1652 C.ar    1  UNL1        0.2045
      9 N          -5.2478  -14.8440   25.4619 N.ar    1  UNL1       -0.2004
     10 C          -6.5827  -15.0796   26.1042 C.ar    1  UNL1        0.2215
     11 N          -7.3778  -15.9787   25.2045 N.ar    1  UNL1       -0.1383
     12 N          -5.3261  -19.8552   20.4155 N.pl3   1  UNL1       -0.3012
     13 C          -4.0872  -19.2828   19.7931 C.3     1  UNL1        0.1108
     14 H          -5.4788  -20.8278   20.4036 H       1  UNL1        0.1497
     15 N         -10.1559  -17.9555   20.6686 N.pl3   1  UNL1       -0.2943
     16 H         -10.3256  -17.9313   19.6992 H       1  UNL1        0.1505
     17 C         -11.3060  -17.9518   21.6316 C.3     1  UNL1        0.1364
     18 C         -11.6776  -16.0285   19.9250 C.3     1  UNL1        0.0028
     19 C         -11.5431  -16.4991   21.3429 C.3     1  UNL1        0.0326
     20 C         -12.4560  -17.9482   22.5947 C.1     1  UNL1        0.0896
     21 N         -13.6061  -17.9446   23.5576 N.1     1  UNL1       -0.1943
     22 C         -11.0688  -19.4045   21.9203 C.3     1  UNL1        0.0326
     23 C         -10.7377  -19.8478   23.3146 C.3     1  UNL1        0.0028
@<TRIPOS>BOND
     1    18    19    1
     2    19    17    1
     3    17    20    1
     4    20    21    3
     5    17    22    1
     6    22    23    1
     7    17    15    1
     8    15     1    1
     9     1     2   ar
    10     2     3   ar
    11     3    12    1
    12    12    13    1
    13     3     4   ar
    14     4     5   ar
    15     5     7    1
    16     7     8   ar
    17     8     9   ar
    18     9    10   ar
    19    10    11   ar
    20     5     6   ar
    21     6     1   ar
    22    11     7   ar
    23    15    16    1
    24    12    14    1
@<TRIPOS>MOLECULE
*****
 23 24 0 0 0
SMALL
GASTEIGER

@<TRIPOS>ATOM
      1 C          -9.2484  -17.9082   21.5300 C.ar    1  UNL1        0.2224
      2 N          -8.2932  -18.7267   20.7129 N.ar    1  UNL1       -0.1810
      3 C          -6.8276  -18.7092   21.0317 C.ar    1  UNL1        0.2219
      4 N          -6.3171  -17.8731   22.1677 N.ar    1  UNL1       -0.1771
      5 C          -7.2723  -17.0546   22.9848 C.ar    1  UNL1        0.2592
      6 N          -8.7379  -17.0722   22.6659 N.ar    1  UNL1       -0.1770
      7 N          -6.7619  -16.2185   24.1208 N.ar    1  UNL1       -0.1739
      8 C          -5.4530  -15.4868   24.1583 C.ar    1  UNL1        0.2045
      9 N          -5.3528  -14.7834   25.4793 N.ar    1  UNL1       -0.2004
     10 C          -6.5999  -15.0804   26.2583 C.ar    1  UNL1        0.2215
     11 N          -7.4707  -15.9674   25.4187 N.ar    1  UNL1       -0.1383
     12 N          -5.8724  -19.5278   20.2146 N.pl3   1  UNL1       -0.3012
     13 C          -5.8877  -21.0241   20.3189 C.3     1  UNL1        0.1108
     14 H          -5.2355  -19.0829   19.6098 H       1  UNL1        0.1497
     15 N         -10.7140  -17.9258   21.2111 N.pl3   1  UNL1       -0.2943
     16 H         -11.0147  -17.8760   20.2750 H       1  UNL1        0.1505
     17 C         -11.7214  -18.0193   22.3185 C.3     1  UNL1        0.1364
     18 C         -10.7677  -19.7702   23.9844 C.3     1  UNL1        0.0028
     19 C         -11.2665  -19.4177   22.6143 C.3     1  UNL1        0.0326
     20 C         -12.7288  -18.1127   23.4260 C.1     1  UNL1        0.0896
     21 N         -13.7362  -18.2062   24.5334 N.1     1  UNL1       -0.1943
     22 C         -12.1763  -16.6209   22.0228 C.3     1  UNL1        0.0326
     23 C         -12.3673  -16.1790   20.6021 C.3     1  UNL1        0.0028
@<TRIPOS>BOND
     1    18    19    1
     2    19    17    1
     3    17    20    1
     4    20    21    3
     5    17    22    1
     6    22    23    1
     7    17    15    1
     8    15     1    1
     9     1     2   ar
    10     2     3   ar
    11     3    12    1
    12    12    13    1
    13     3     4   ar
    14     4     5   ar
    15     5     7    1
    16     7     8   ar
    17     8     9   ar
    18     9    10   ar
    19    10    11   ar
    20     5     6   ar
    21     6     1   ar
    22    11     7   ar
    23    15    16    1
    24    12    14    1
@<TRIPOS>MOLECULE
*****
 23 24 0 0 0
SMALL
GASTEIGER

@<TRIPOS>ATOM
      1 C          -8.7204  -17.8643   21.4818 C.ar    1  UNL1        0.2224
      2 N          -9.4068  -18.6126   20.3778 N.ar    1  UNL1       -0.1810
      3 C          -8.6261  -19.5592   19.5150 C.ar    1  UNL1        0.2219
      4 N          -7.1590  -19.7575   19.7562 N.ar    1  UNL1       -0.1771
      5 C          -6.4726  -19.0092   20.8602 C.ar    1  UNL1        0.2592
      6 N          -7.2533  -18.0626   21.7230 N.ar    1  UNL1       -0.1770
      7 N          -5.0054  -19.2075   21.1015 N.ar    1  UNL1       -0.1739
      8 C          -4.1509  -20.2845   20.5015 C.ar    1  UNL1        0.2045
      9 N          -2.7526  -20.1063   21.0142 N.ar    1  UNL1       -0.2004
     10 C          -2.7429  -18.9192   21.9312 C.ar    1  UNL1        0.2215
     11 N          -4.1353  -18.3638   21.9851 N.ar    1  UNL1       -0.1383
     12 N          -9.3126  -20.3076   18.4110 N.pl3   1  UNL1       -0.3012
     13 C          -8.6872  -21.5472   17.8433 C.3     1  UNL1        0.1108
     14 H         -10.1736  -19.9851   18.0589 H       1  UNL1        0.1497
     15 N          -9.5012  -16.9177   22.3446 N.pl3   1  UNL1       -0.2943
     16 H          -9.1226  -16.0398   22.5797 H       1  UNL1        0.1505
     17 C         -10.8586  -17.3086   22.8491 C.3     1  UNL1        0.1364
     18 C         -12.2384  -16.4444   20.8243 C.3     1  UNL1        0.0028
     19 C         -11.4701  -16.1727   22.0837 C.3     1  UNL1        0.0326
     20 C         -12.2161  -17.6995   23.3536 C.1     1  UNL1        0.0896
     21 N         -13.5735  -18.0905   23.8581 N.1     1  UNL1       -0.1943
     22 C         -10.2470  -18.4445   23.6144 C.3     1  UNL1        0.0326
     23 C          -9.9528  -18.2909   25.0772 C.3     1  UNL1        0.0028
@<TRIPOS>BOND
     1    18    19    1
     2    19    17    1
     3    17    20    1
     4    20    21    3
     5    17    22    1
     6    22    23    1
     7    17    15    1
     8    15     1    1
     9     1     2   ar
    10     2     3   ar
    11     3    12    1
    12    12    13    1
    13     3     4   ar
    14     4     5   ar
    15     5     7    1
    16     7     8   ar
    17     8     9   ar
    18     9    10   ar
    19    10    11   ar
    20     5     6   ar
    21     6     1   ar
    22    11     7   ar
    23    15    16    1
    24    12    14    1
@<TRIPOS>MOLECULE
*****
 23 24 0 0 0
SMALL
GASTEIGER

@<TRIPOS>ATOM
      1 C          -8.0925  -18.1594   22.3105 C.ar    1  UNL1        0.2224
      2 N          -8.2440  -16.9813   23.2264 N.ar    1  UNL1       -0.1810
      3 C          -7.0277  -16.3075   23.7891 C.ar    1  UNL1        0.2219
      4 N          -5.6599  -16.8119   23.4358 N.ar    1  UNL1       -0.1771
      5 C          -5.5085  -17.9900   22.5198 C.ar    1  UNL1        0.2592
      6 N          -6.7248  -18.6638   21.9572 N.ar    1  UNL1       -0.1770
      7 N          -4.1407  -18.4944   22.1665 N.ar    1  UNL1       -0.1739
      8 C          -2.8392  -17.9211   22.6434 C.ar    1  UNL1        0.2045
      9 N          -1.7284  -18.7330   22.0459 N.ar    1  UNL1       -0.2004
     10 C          -2.3434  -19.8081   21.1998 C.ar    1  UNL1        0.2215
     11 N          -3.8343  -19.6607   21.2743 N.ar    1  UNL1       -0.1383
     12 N          -7.1791  -15.1293   24.7051 N.pl3   1  UNL1       -0.3012
     13 C          -7.8372  -15.2987   26.0423 C.3     1  UNL1        0.1108
     14 H          -6.8467  -14.2449   24.4285 H       1  UNL1        0.1497
     15 N          -9.3089  -18.8332   21.7478 N.pl3   1  UNL1       -0.2943
     16 H          -9.2190  -19.4656   20.9986 H       1  UNL1        0.1505
     17 C         -10.6620  -18.5436   22.3266 C.3     1  UNL1        0.1364
     18 C         -10.4581  -19.5936   24.6943 C.3     1  UNL1        0.0028
     19 C         -10.5451  -19.7535   23.2054 C.3     1  UNL1        0.0326
     20 C         -12.0152  -18.2538   22.9054 C.1     1  UNL1        0.0896
     21 N         -13.3684  -17.9642   23.4842 N.1     1  UNL1       -0.1943
     22 C         -10.7789  -17.3336   21.4479 C.3     1  UNL1        0.0326
     23 C         -11.5633  -17.4066   20.1714 C.3     1  UNL1        0.0028
@<TRIPOS>BOND
     1    18    19    1
     2    19    17    1
     3    17    20    1
     4    20    21    3
     5    17    22    1
     6    22    23    1
     7    17    15    1
     8    15     1    1
     9     1     2   ar
    10     2     3   ar
    11     3    12    1
    12    12    13    1
    13     3     4   ar
    14     4     5   ar
    15     5     7    1
    16     7     8   ar
    17     8     9   ar
    18     9    10   ar
    19    10    11   ar
    20     5     6   ar
    21     6     1   ar
    22    11     7   ar
    23    15    16    1
    24    12    14    1
@<TRIPOS>MOLECULE
*****
 23 24 0 0 0
SMALL
GASTEIGER

@<TRIPOS>ATOM
      1 C          -6.9633  -17.9788   21.2418 C.ar    1  UNL1        0.2224
      2 N          -6.3308  -17.2473   22.3884 N.ar    1  UNL1       -0.1810
      3 C          -7.1915  -16.6310   23.4511 C.ar    1  UNL1        0.2219
      4 N          -8.6847  -16.7461   23.3671 N.ar    1  UNL1       -0.1771
      5 C          -9.3172  -17.4775   22.2205 C.ar    1  UNL1        0.2592
      6 N          -8.4565  -18.0939   21.1578 N.ar    1  UNL1       -0.1770
      7 N         -10.8105  -17.5927   22.1364 N.ar    1  UNL1       -0.1739
      8 C         -11.6269  -17.5723   20.8783 C.ar    1  UNL1        0.2045
      9 N         -13.0704  -17.7154   21.2600 N.ar    1  UNL1       -0.2004
     10 C         -13.1461  -17.8243   22.7542 C.ar    1  UNL1        0.2215
     11 N         -11.7494  -17.7484   23.2958 N.ar    1  UNL1       -0.1383
     12 N          -6.5590  -15.8995   24.5978 N.pl3   1  UNL1       -0.3012
     13 C          -5.1288  -15.4562   24.5072 C.3     1  UNL1        0.1108
     14 H          -7.0825  -15.7103   25.4099 H       1  UNL1        0.1497
     15 N          -6.1026  -18.5951   20.1791 N.pl3   1  UNL1       -0.2943
     16 H          -6.4075  -18.6050   19.2430 H       1  UNL1        0.1505
     17 C          -4.7773  -19.1964   20.5425 C.3     1  UNL1        0.1364
     18 C          -6.0368  -21.4588   20.3295 C.3     1  UNL1        0.0028
     19 C          -5.4795  -20.3574   21.1819 C.3     1  UNL1        0.0326
     20 C          -3.4520  -19.7976   20.9060 C.1     1  UNL1        0.0896
     21 N          -2.1267  -20.3988   21.2694 N.1     1  UNL1       -0.1943
     22 C          -4.0752  -18.0353   19.9032 C.3     1  UNL1        0.0326
     23 C          -2.8353  -18.2637   19.0905 C.3     1  UNL1        0.0028
@<TRIPOS>BOND
     1    18    19    1
     2    19    17    1
     3    17    20    1
     4    20    21    3
     5    17    22    1
     6    22    23    1
     7    17    15    1
     8    15     1    1
     9     1     2   ar
    10     2     3   ar
    11     3    12    1
    12    12    13    1
    13     3     4   ar
    14     4     5   ar
    15     5     7    1
    16     7     8   ar
    17     8     9   ar
    18     9    10   ar
    19    10    11   ar
    20     5     6   ar
    21     6     1   ar
    22    11     7   ar
    23    15    16    1
    24    12    14    1
@<TRIPOS>MOLECULE
*****
 23 24 0 0 0
SMALL
GASTEIGER

@<TRIPOS>ATOM
      1 C          -6.8347  -17.8869   21.3982 C.ar    1  UNL1        0.2224
      2 N          -6.2002  -17.1169   22.5182 N.ar    1  UNL1       -0.1810
      3 C          -7.0569  -16.4991   23.5833 C.ar    1  UNL1        0.2219
      4 N          -8.5481  -16.6513   23.5284 N.ar    1  UNL1       -0.1771
      5 C          -9.1826  -17.4213   22.4084 C.ar    1  UNL1        0.2592
      6 N          -8.3259  -18.0391   21.3433 N.ar    1  UNL1       -0.1770
      7 N         -10.6739  -17.5736   22.3535 N.ar    1  UNL1       -0.1739
      8 C         -11.5642  -17.9532   23.4995 C.ar    1  UNL1        0.2045
      9 N         -12.9772  -17.9872   22.9972 N.ar    1  UNL1       -0.2004
     10 C         -12.9601  -17.6286   21.5408 C.ar    1  UNL1        0.2215
     11 N         -11.5366  -17.3730   21.1430 N.ar    1  UNL1       -0.1383
     12 N          -6.4223  -15.7290   24.7033 N.pl3   1  UNL1       -0.3012
     13 C          -6.9957  -15.8082   26.0871 C.3     1  UNL1        0.1108
     14 H          -5.6294  -15.1717   24.5302 H       1  UNL1        0.1497
     15 N          -5.9780  -18.5047   20.3332 N.pl3   1  UNL1       -0.2943
     16 H          -6.2824  -18.5078   19.3969 H       1  UNL1        0.1505
     17 C          -4.6576  -19.1177   20.6946 C.3     1  UNL1        0.1364
     18 C          -2.8890  -18.1114   19.0790 C.3     1  UNL1        0.0028
     19 C          -3.9481  -17.9252   20.1249 C.3     1  UNL1        0.0326
     20 C          -3.3371  -19.7307   21.0560 C.1     1  UNL1        0.0896
     21 N          -2.0167  -20.3438   21.4174 N.1     1  UNL1       -0.1943
     22 C          -5.3671  -20.3102   21.2642 C.3     1  UNL1        0.0326
     23 C          -5.9521  -21.3434   20.3475 C.3     1  UNL1        0.0028
@<TRIPOS>BOND
     1    18    19    1
     2    19    17    1
     3    17    20    1
     4    20    21    3
     5    17    22    1
     6    22    23    1
     7    17    15    1
     8    15     1    1
     9     1     2   ar
    10     2     3   ar
    11     3    12    1
    12    12    13    1
    13     3     4   ar
    14     4     5   ar
    15     5     7    1
    16     7     8   ar
    17     8     9   ar
    18     9    10   ar
    19    10    11   ar
    20     5     6   ar
    21     6     1   ar
    22    11     7   ar
    23    15    16    1
    24    12    14    1
