@<TRIPOS>MOLECULE
*****
 13 13 0 0 0
SMALL
GASTEIGER

@<TRIPOS>ATOM
      1 C         -12.5682  -18.3627   23.8263 C.3     1  UNL1        0.0448
      2 C         -11.9468  -18.4346   22.4630 C.ar    1  UNL1       -0.0208
      3 C         -12.1506  -17.3150   21.4859 C.ar    1  UNL1       -0.0042
      4 C         -11.5292  -17.3869   20.1225 C.ar    1  UNL1       -0.0003
      5 C         -10.7040  -18.5785   19.7363 C.ar    1  UNL1       -0.0000
      6 C         -10.5002  -19.6981   20.7135 C.ar    1  UNL1       -0.0003
      7 C         -11.1216  -19.6262   22.0768 C.ar    1  UNL1       -0.0042
      8 C         -13.9857  -17.8973   23.9808 C.3     1  UNL1        0.0885
      9 N         -14.4974  -18.6727   26.4072 N.3     1  UNL1       -0.2698
     10 N         -14.8944  -18.5740   24.9640 N.3     1  UNL1       -0.2484
     11 H         -15.2270  -19.1594   26.9280 H       1  UNL1        0.1368
     12 H         -14.3736  -17.7356   26.7906 H       1  UNL1        0.1368
     13 H         -15.7828  -18.0736   24.9365 H       1  UNL1        0.1411
@<TRIPOS>BOND
     1     9    10    1
     2    10     8    1
     3     8     1    1
     4     1     2    1
     5     2     3   ar
     6     3     4   ar
     7     4     5   ar
     8     5     6   ar
     9     6     7   ar
    10     7     2   ar
    11     9    11    1
    12     9    12    1
    13    10    13    1
@<TRIPOS>MOLECULE
*****
 13 13 0 0 0
SMALL
GASTEIGER

@<TRIPOS>ATOM
      1 C           4.0641  -12.1058   28.8902 C.3     1  UNL1        0.0448
      2 C           2.8847  -13.0152   28.7109 C.ar    1  UNL1       -0.0208
      3 C           1.4958  -12.4953   28.9358 C.ar    1  UNL1       -0.0042
      4 C           0.3164  -13.4047   28.7565 C.ar    1  UNL1       -0.0003
      5 C           0.5259  -14.8339   28.3523 C.ar    1  UNL1       -0.0000
      6 C           1.9148  -15.3538   28.1275 C.ar    1  UNL1       -0.0003
      7 C           3.0942  -14.4444   28.3068 C.ar    1  UNL1       -0.0042
      8 C           4.7580  -11.5321   27.6905 C.3     1  UNL1        0.0885
      9 N           3.5117  -10.8769   25.5070 N.3     1  UNL1       -0.2698
     10 N           4.0690  -10.5001   26.8478 N.3     1  UNL1       -0.2484
     11 H           3.0816  -10.0589   25.0755 H       1  UNL1        0.1368
     12 H           2.8102  -11.6081   25.6237 H       1  UNL1        0.1368
     13 H           3.2902  -10.1411   27.4000 H       1  UNL1        0.1411
@<TRIPOS>BOND
     1     9    10    1
     2    10     8    1
     3     8     1    1
     4     1     2    1
     5     2     3   ar
     6     3     4   ar
     7     4     5   ar
     8     5     6   ar
     9     6     7   ar
    10     7     2   ar
    11     9    11    1
    12     9    12    1
    13    10    13    1
@<TRIPOS>MOLECULE
*****
 13 13 0 0 0
SMALL
GASTEIGER

@<TRIPOS>ATOM
      1 C         -10.8345  -20.3128   22.8069 C.3     1  UNL1        0.0448
      2 C         -11.3076  -19.0258   22.1987 C.ar    1  UNL1       -0.0208
      3 C         -11.0099  -18.7219   20.7603 C.ar    1  UNL1       -0.0042
      4 C         -11.4831  -17.4350   20.1522 C.ar    1  UNL1       -0.0003
      5 C         -12.2540  -16.4519   20.9824 C.ar    1  UNL1       -0.0000
      6 C         -12.5517  -16.7559   22.4208 C.ar    1  UNL1       -0.0003
      7 C         -12.0786  -18.0428   23.0289 C.ar    1  UNL1       -0.0042
      8 C          -9.7514  -20.2984   23.8444 C.3     1  UNL1        0.0885
      9 N          -9.8645  -18.7287   25.9116 N.3     1  UNL1       -0.2698
     10 N         -10.0971  -20.0723   25.2864 N.3     1  UNL1       -0.2484
     11 H         -10.1538  -18.7540   26.8894 H       1  UNL1        0.1368
     12 H         -10.4085  -18.0235   25.4143 H       1  UNL1        0.1368
     13 H         -11.0917  -20.2753   25.3861 H       1  UNL1        0.1411
@<TRIPOS>BOND
     1     9    10    1
     2    10     8    1
     3     8     1    1
     4     1     2    1
     5     2     3   ar
     6     3     4   ar
     7     4     5   ar
     8     5     6   ar
     9     6     7   ar
    10     7     2   ar
    11     9    11    1
    12     9    12    1
    13    10    13    1
@<TRIPOS>MOLECULE
*****
 13 13 0 0 0
SMALL
GASTEIGER

@<TRIPOS>ATOM
      1 C           4.2866  -12.2255   29.0171 C.3     1  UNL1        0.0448
      2 C           3.0510  -13.0484   28.8019 C.ar    1  UNL1       -0.0208
      3 C           3.1680  -14.4698   28.3374 C.ar    1  UNL1       -0.0042
      4 C           1.9325  -15.2926   28.1222 C.ar    1  UNL1       -0.0003
      5 C           0.5799  -14.6941   28.3715 C.ar    1  UNL1       -0.0000
      6 C           0.4629  -13.2726   28.8360 C.ar    1  UNL1       -0.0003
      7 C           1.6985  -12.4498   29.0512 C.ar    1  UNL1       -0.0042
      8 C           5.6409  -12.8482   28.8498 C.3     1  UNL1        0.0885
      9 N           5.8301  -13.4913   26.3397 N.3     1  UNL1       -0.2698
     10 N           6.3542  -12.7501   27.5339 N.3     1  UNL1       -0.2484
     11 H           6.4333  -13.3123   25.5368 H       1  UNL1        0.1368
     12 H           4.8834  -13.1739   26.1311 H       1  UNL1        0.1368
     13 H           6.3730  -11.7618   27.2822 H       1  UNL1        0.1411
@<TRIPOS>BOND
     1     9    10    1
     2    10     8    1
     3     8     1    1
     4     1     2    1
     5     2     3   ar
     6     3     4   ar
     7     4     5   ar
     8     5     6   ar
     9     6     7   ar
    10     7     2   ar
    11     9    11    1
    12     9    12    1
    13    10    13    1
@<TRIPOS>MOLECULE
*****
 13 13 0 0 0
SMALL
GASTEIGER

@<TRIPOS>ATOM
      1 C          -8.7626  -16.9252   23.5140 C.3     1  UNL1        0.0448
      2 C         -10.2371  -17.1968   23.4690 C.ar    1  UNL1       -0.0208
      3 C         -11.1285  -16.3564   22.6033 C.ar    1  UNL1       -0.0042
      4 C         -12.6030  -16.6280   22.5583 C.ar    1  UNL1       -0.0003
      5 C         -13.1862  -17.7399   23.3790 C.ar    1  UNL1       -0.0000
      6 C         -12.2949  -18.5803   24.2446 C.ar    1  UNL1       -0.0003
      7 C         -10.8203  -18.3087   24.2896 C.ar    1  UNL1       -0.0042
      8 C          -8.1100  -16.1438   22.4124 C.3     1  UNL1        0.0885
      9 N          -7.5779  -14.2259   24.0823 N.3     1  UNL1       -0.2698
     10 N          -7.5685  -14.7718   22.6851 N.3     1  UNL1       -0.2484
     11 H          -7.1757  -13.2885   24.0838 H       1  UNL1        0.1368
     12 H          -7.0265  -14.8334   24.6884 H       1  UNL1        0.1368
     13 H          -6.5966  -14.7719   22.3755 H       1  UNL1        0.1411
@<TRIPOS>BOND
     1     9    10    1
     2    10     8    1
     3     8     1    1
     4     1     2    1
     5     2     3   ar
     6     3     4   ar
     7     4     5   ar
     8     5     6   ar
     9     6     7   ar
    10     7     2   ar
    11     9    11    1
    12     9    12    1
    13    10    13    1
@<TRIPOS>MOLECULE
*****
 13 13 0 0 0
SMALL
GASTEIGER

@<TRIPOS>ATOM
      1 C          -8.7063  -16.5726   23.7499 C.3     1  UNL1        0.0448
      2 C         -10.1320  -17.0272   23.6462 C.ar    1  UNL1       -0.0208
      3 C         -10.5977  -18.2198   24.4277 C.ar    1  UNL1       -0.0042
      4 C         -12.0234  -18.6744   24.3239 C.ar    1  UNL1       -0.0003
      5 C         -12.9834  -17.9364   23.4387 C.ar    1  UNL1       -0.0000
      6 C         -12.5177  -16.7437   22.6573 C.ar    1  UNL1       -0.0003
      7 C         -11.0920  -16.2892   22.7610 C.ar    1  UNL1       -0.0042
      8 C          -8.3517  -15.4106   24.6296 C.3     1  UNL1        0.0885
      9 N          -6.1543  -14.7497   23.4111 N.3     1  UNL1       -0.2698
     10 N          -7.4081  -14.3551   24.1339 N.3     1  UNL1       -0.2484
     11 H          -5.6356  -13.9118   23.1479 H       1  UNL1        0.1368
     12 H          -6.3970  -15.2769   22.5723 H       1  UNL1        0.1368
     13 H          -7.9395  -13.7600   23.4984 H       1  UNL1        0.1411
@<TRIPOS>BOND
     1     9    10    1
     2    10     8    1
     3     8     1    1
     4     1     2    1
     5     2     3   ar
     6     3     4   ar
     7     4     5   ar
     8     5     6   ar
     9     6     7   ar
    10     7     2   ar
    11     9    11    1
    12     9    12    1
    13    10    13    1
@<TRIPOS>MOLECULE
*****
 13 13 0 0 0
SMALL
GASTEIGER

@<TRIPOS>ATOM
      1 C          -9.3003  -16.5326   23.8341 C.3     1  UNL1        0.0448
      2 C          -8.2238  -16.1234   24.7952 C.ar    1  UNL1       -0.0208
      3 C          -6.8633  -15.7525   24.2839 C.ar    1  UNL1       -0.0042
      4 C          -5.7868  -15.3433   25.2450 C.ar    1  UNL1       -0.0003
      5 C          -6.0707  -15.3051   26.7173 C.ar    1  UNL1       -0.0000
      6 C          -7.4312  -15.6760   27.2286 C.ar    1  UNL1       -0.0003
      7 C          -8.5077  -16.0852   26.2675 C.ar    1  UNL1       -0.0042
      8 C          -8.9965  -16.6403   22.3691 C.3     1  UNL1        0.0885
      9 N          -8.0958  -14.5135   21.1793 N.3     1  UNL1       -0.2698
     10 N          -9.2212  -15.4623   21.4680 N.3     1  UNL1       -0.2484
     11 H          -8.4236  -13.7776   20.5537 H       1  UNL1        0.1368
     12 H          -7.3293  -15.0200   20.7363 H       1  UNL1        0.1368
     13 H          -9.5312  -15.8335   20.5700 H       1  UNL1        0.1411
@<TRIPOS>BOND
     1     9    10    1
     2    10     8    1
     3     8     1    1
     4     1     2    1
     5     2     3   ar
     6     3     4   ar
     7     4     5   ar
     8     5     6   ar
     9     6     7   ar
    10     7     2   ar
    11     9    11    1
    12     9    12    1
    13    10    13    1
@<TRIPOS>MOLECULE
*****
 13 13 0 0 0
SMALL
GASTEIGER

@<TRIPOS>ATOM
      1 C         -10.1280  -19.7757   19.4599 C.3     1  UNL1        0.0448
      2 C         -10.8669  -18.9702   20.4871 C.ar    1  UNL1       -0.0208
      3 C         -11.4295  -17.6277   20.1249 C.ar    1  UNL1       -0.0042
      4 C         -12.1684  -16.8222   21.1521 C.ar    1  UNL1       -0.0003
      5 C         -12.3448  -17.3592   22.5415 C.ar    1  UNL1       -0.0000
      6 C         -11.7823  -18.7017   22.9037 C.ar    1  UNL1       -0.0003
      7 C         -11.0433  -19.5072   21.8765 C.ar    1  UNL1       -0.0042
      8 C          -8.6557  -19.5688   19.2616 C.3     1  UNL1        0.0885
      9 N          -6.4077  -18.5173   20.0305 N.3     1  UNL1       -0.2698
     10 N          -7.8759  -18.7419   20.2405 N.3     1  UNL1       -0.2484
     11 H          -6.0411  -17.9374   20.7853 H       1  UNL1        0.1368
     12 H          -6.2600  -18.0467   19.1377 H       1  UNL1        0.1368
     13 H          -8.3144  -17.8212   20.2632 H       1  UNL1        0.1411
@<TRIPOS>BOND
     1     9    10    1
     2    10     8    1
     3     8     1    1
     4     1     2    1
     5     2     3   ar
     6     3     4   ar
     7     4     5   ar
     8     5     6   ar
     9     6     7   ar
    10     7     2   ar
    11     9    11    1
    12     9    12    1
    13    10    13    1
@<TRIPOS>MOLECULE
*****
 13 13 0 0 0
SMALL
GASTEIGER

@<TRIPOS>ATOM
      1 C           4.5214  -12.1132   29.3344 C.3     1  UNL1        0.0448
      2 C           3.3107  -12.9317   28.9965 C.ar    1  UNL1       -0.0208
      3 C           1.9705  -12.5539   29.5541 C.ar    1  UNL1       -0.0042
      4 C           0.7597  -13.3723   29.2161 C.ar    1  UNL1       -0.0003
      5 C           0.8892  -14.5686   28.3205 C.ar    1  UNL1       -0.0000
      6 C           2.2294  -14.9464   27.7629 C.ar    1  UNL1       -0.0003
      7 C           3.4402  -14.1279   28.1009 C.ar    1  UNL1       -0.0042
      8 C           5.8783  -12.5551   28.8724 C.3     1  UNL1        0.0885
      9 N           8.0613  -13.9015   29.2873 N.3     1  UNL1       -0.2698
     10 N           6.6512  -13.5626   29.6708 N.3     1  UNL1       -0.2484
     11 H           8.4311  -14.5987   29.9334 H       1  UNL1        0.1368
     12 H           8.6365  -13.0602   29.3291 H       1  UNL1        0.1368
     13 H           6.6819  -13.2172   30.6301 H       1  UNL1        0.1411
@<TRIPOS>BOND
     1     9    10    1
     2    10     8    1
     3     8     1    1
     4     1     2    1
     5     2     3   ar
     6     3     4   ar
     7     4     5   ar
     8     5     6   ar
     9     6     7   ar
    10     7     2   ar
    11     9    11    1
    12     9    12    1
    13    10    13    1
