@<TRIPOS>MOLECULE
*****
 32 38 0 0 0
SMALL
GASTEIGER

@<TRIPOS>ATOM
      1 C          -4.9723  -18.8143   21.9396 C.ar    1  UNL1        0.2409
      2 N          -5.1615  -17.6864   22.9101 N.ar    1  UNL1       -0.1111
      3 N          -6.5669  -17.1822   22.7665 N.ar    1  UNL1       -0.1270
      4 C          -7.2463  -17.9985   21.7072 C.ar    1  UNL1        0.1744
      5 C          -8.6350  -17.9536   21.1421 C.ar    1  UNL1        0.0758
      6 C          -9.0382  -18.9175   20.0658 C.ar    1  UNL1        0.1390
      7 C          -8.0527  -19.9263   19.5547 C.ar    1  UNL1        0.0292
      8 C          -6.6640  -19.9711   20.1199 C.ar    1  UNL1        0.0828
      9 N          -6.2608  -19.0073   21.1962 N.ar    1  UNL1       -0.2599
     10 C          -8.4559  -20.8902   18.4784 C.3     1  UNL1        0.0268
     11 C          -8.4803  -22.2844   17.9257 C.3     1  UNL1        0.0048
     12 C          -9.1299  -21.1654   17.1670 C.3     1  UNL1        0.0048
     13 N          -3.7153  -19.6098   21.7463 N.pl3   1  UNL1       -0.1873
     14 H          -3.6282  -20.5001   22.1574 H       1  UNL1        0.1764
     15 O          -3.4982  -17.9645   20.4251 O.2     1  UNL1       -0.1545
     16 S          -2.5912  -19.0486   20.9268 S.O2    1  UNL1        0.0544
     17 O          -1.6842  -20.1328   21.4286 O.2     1  UNL1       -0.1545
     18 C          -1.4671  -18.4875   20.1074 C.3     1  UNL1        0.1490
     19 C          -0.0508  -18.0046   20.0030 C.3     1  UNL1        0.0273
     20 C          -0.9364  -17.9984   18.7924 C.3     1  UNL1        0.0273
     21 O         -10.4269  -18.8727   19.5006 O.3     1  UNL1       -0.4756
     22 C         -11.5909  -19.3196   20.3345 C.3     1  UNL1        0.2051
     23 C         -11.5169  -19.2381   21.8305 C.3     1  UNL1        0.0404
     24 C         -12.2016  -18.1175   22.5553 C.3     1  UNL1        0.0036
     25 C         -12.1276  -18.0360   24.0512 C.3     1  UNL1        0.0001
     26 C         -11.3690  -19.0752   24.8223 C.3     1  UNL1        0.0000
     27 C         -10.6844  -20.1958   24.0975 C.3     1  UNL1        0.0001
     28 C         -12.1269  -18.3253   21.8108 C.3     1  UNL1        0.0000
     29 C         -12.9602  -17.0783   21.7841 C.3     1  UNL1        0.0001
     30 C         -12.8862  -16.9969   23.2801 C.3     1  UNL1        0.0000
     31 C         -12.2755  -18.1990   21.0593 C.3     1  UNL1        0.0036
     32 C         -10.7583  -20.2773   22.6016 C.3     1  UNL1        0.0036
@<TRIPOS>BOND
     1    15    16    2
     2    16    17    2
     3    16    13    1
     4    13     1    1
     5     1     2   ar
     6     2     3   ar
     7     3     4   ar
     8     4     5   ar
     9     5     6   ar
    10     6    21    1
    11    21    22    1
    12    22    23    1
    13    23    24    1
    14    24    25    1
    15    25    26    1
    16    26    27    1
    17    27    28    1
    18    28    29    1
    19    29    30    1
    20    29    31    1
    21    27    32    1
    22     6     7   ar
    23     7    10    1
    24    10    11    1
    25    11    12    1
    26     7     8   ar
    27     8     9   ar
    28    16    18    1
    29    18    19    1
    30    19    20    1
    31     9     1   ar
    32    20    18    1
    33     9     4   ar
    34    31    23    1
    35    12    10    1
    36    32    23    1
    37    30    25    1
    38    13    14    1
@<TRIPOS>MOLECULE
*****
 32 38 0 0 0
SMALL
GASTEIGER

@<TRIPOS>ATOM
      1 C         -10.4646  -17.7448   20.8340 C.ar    1  UNL1        0.2409
      2 N         -10.1954  -18.6585   19.6753 N.ar    1  UNL1       -0.1111
      3 N          -8.7560  -19.0757   19.7387 N.ar    1  UNL1       -0.1270
      4 C          -8.1356  -18.4199   20.9366 C.ar    1  UNL1        0.1744
      5 C          -6.7456  -18.4654   21.4984 C.ar    1  UNL1        0.0758
      6 C          -6.4115  -17.6884   22.7372 C.ar    1  UNL1        0.1390
      7 C          -7.4675  -16.8658   23.4141 C.ar    1  UNL1        0.0292
      8 C          -8.8576  -16.8203   22.8523 C.ar    1  UNL1        0.0828
      9 N          -9.1916  -17.5973   21.6136 N.ar    1  UNL1       -0.2599
     10 C          -7.1334  -16.0888   24.6530 C.3     1  UNL1        0.0268
     11 C          -6.1581  -15.2794   25.4552 C.3     1  UNL1        0.0048
     12 C          -7.5301  -15.5524   25.9964 C.3     1  UNL1        0.0048
     13 N         -11.7765  -17.0930   21.1566 N.pl3   1  UNL1       -0.1873
     14 H         -12.1307  -16.3840   20.5726 H       1  UNL1        0.1764
     15 O         -12.8996  -16.0907   22.6513 O.2     1  UNL1       -0.1545
     16 S         -12.5488  -17.5215   22.3692 S.O2    1  UNL1        0.0544
     17 O         -12.1980  -18.9524   22.0869 O.2     1  UNL1       -0.1545
     18 C         -13.3211  -17.9499   23.5816 C.3     1  UNL1        0.1490
     19 C         -14.6328  -18.1810   24.2715 C.3     1  UNL1        0.0273
     20 C         -13.3471  -18.4609   24.9917 C.3     1  UNL1        0.0273
     21 O          -5.0214  -17.7339   23.2990 O.3     1  UNL1       -0.4756
     22 C          -4.0609  -18.7903   22.8394 C.3     1  UNL1        0.2051
     23 C          -3.3592  -18.6440   21.5217 C.3     1  UNL1        0.0404
     24 C          -2.4383  -17.4834   21.2872 C.3     1  UNL1        0.0036
     25 C          -1.7367  -17.3371   19.9695 C.3     1  UNL1        0.0001
     26 C          -1.9560  -18.3513   18.8864 C.3     1  UNL1        0.0000
     27 C          -2.8769  -19.5119   19.1208 C.3     1  UNL1        0.0001
     28 C          -2.8773  -17.7248   21.8804 C.3     1  UNL1        0.0000
     29 C          -2.2190  -16.4692   22.3704 C.3     1  UNL1        0.0001
     30 C          -1.5174  -16.3229   21.0527 C.3     1  UNL1        0.0000
     31 C          -3.1399  -17.6297   22.6048 C.3     1  UNL1        0.0036
     32 C          -3.5785  -19.6582   20.4385 C.3     1  UNL1        0.0036
@<TRIPOS>BOND
     1    15    16    2
     2    16    17    2
     3    16    13    1
     4    13     1    1
     5     1     2   ar
     6     2     3   ar
     7     3     4   ar
     8     4     5   ar
     9     5     6   ar
    10     6    21    1
    11    21    22    1
    12    22    23    1
    13    23    24    1
    14    24    25    1
    15    25    26    1
    16    26    27    1
    17    27    28    1
    18    28    29    1
    19    29    30    1
    20    29    31    1
    21    27    32    1
    22     6     7   ar
    23     7    10    1
    24    10    11    1
    25    11    12    1
    26     7     8   ar
    27     8     9   ar
    28    16    18    1
    29    18    19    1
    30    19    20    1
    31     9     1   ar
    32    20    18    1
    33     9     4   ar
    34    31    23    1
    35    12    10    1
    36    32    23    1
    37    30    25    1
    38    13    14    1
@<TRIPOS>MOLECULE
*****
 32 38 0 0 0
SMALL
GASTEIGER

@<TRIPOS>ATOM
      1 C          -4.4843  -17.5900   23.1647 C.ar    1  UNL1        0.2409
      2 N          -4.7729  -16.4492   24.0949 N.ar    1  UNL1       -0.1111
      3 N          -6.1975  -16.0291   23.8851 N.ar    1  UNL1       -0.1270
      4 C          -6.7894  -16.9102   22.8253 C.ar    1  UNL1        0.1744
      5 C          -8.1556  -16.9588   22.2082 C.ar    1  UNL1        0.0758
      6 C          -8.4631  -17.9720   21.1458 C.ar    1  UNL1        0.1390
      7 C          -7.4043  -18.9367   20.7005 C.ar    1  UNL1        0.0292
      8 C          -6.0380  -18.8882   21.3176 C.ar    1  UNL1        0.0828
      9 N          -5.7306  -17.8749   22.3800 N.ar    1  UNL1       -0.2599
     10 C          -7.7118  -19.9500   19.6380 C.3     1  UNL1        0.0268
     11 C          -8.5930  -20.4421   18.5283 C.3     1  UNL1        0.0048
     12 C          -7.3633  -21.2129   18.9076 C.3     1  UNL1        0.0048
     13 N          -3.1787  -18.3180   23.0409 N.pl3   1  UNL1       -0.1873
     14 H          -2.8541  -18.8765   23.7838 H       1  UNL1        0.1764
     15 O          -2.0865  -19.6681   21.8225 O.2     1  UNL1       -0.1545
     16 S          -2.3676  -18.1951   21.7850 S.O2    1  UNL1        0.0544
     17 O          -2.6488  -16.7222   21.7475 O.2     1  UNL1       -0.1545
     18 C          -1.5566  -18.0724   20.5292 C.3     1  UNL1        0.1490
     19 C          -1.4850  -17.9393   19.0368 C.3     1  UNL1        0.0273
     20 C          -0.2234  -17.9927   19.8463 C.3     1  UNL1        0.0273
     21 O          -9.8294  -18.0206   20.5286 O.3     1  UNL1       -0.4756
     22 C         -10.8285  -19.0365   20.9974 C.3     1  UNL1        0.2051
     23 C         -11.5846  -18.8115   22.2733 C.3     1  UNL1        0.0404
     24 C         -11.0966  -19.4246   23.5523 C.3     1  UNL1        0.0036
     25 C         -11.8527  -19.1996   24.8281 C.3     1  UNL1        0.0001
     26 C         -13.0967  -18.3616   24.8249 C.3     1  UNL1        0.0000
     27 C         -13.5847  -17.7485   23.5458 C.3     1  UNL1        0.0001
     28 C         -10.8525  -19.4248   22.8152 C.3     1  UNL1        0.0000
     29 C          -9.8525  -20.2626   23.5556 C.3     1  UNL1        0.0001
     30 C         -10.6086  -20.0377   24.8313 C.3     1  UNL1        0.0000
     31 C         -10.3405  -19.6495   22.2765 C.3     1  UNL1        0.0036
     32 C         -12.8286  -17.9735   22.2700 C.3     1  UNL1        0.0036
@<TRIPOS>BOND
     1    15    16    2
     2    16    17    2
     3    16    13    1
     4    13     1    1
     5     1     2   ar
     6     2     3   ar
     7     3     4   ar
     8     4     5   ar
     9     5     6   ar
    10     6    21    1
    11    21    22    1
    12    22    23    1
    13    23    24    1
    14    24    25    1
    15    25    26    1
    16    26    27    1
    17    27    28    1
    18    28    29    1
    19    29    30    1
    20    29    31    1
    21    27    32    1
    22     6     7   ar
    23     7    10    1
    24    10    11    1
    25    11    12    1
    26     7     8   ar
    27     8     9   ar
    28    16    18    1
    29    18    19    1
    30    19    20    1
    31     9     1   ar
    32    20    18    1
    33     9     4   ar
    34    31    23    1
    35    12    10    1
    36    32    23    1
    37    30    25    1
    38    13    14    1
@<TRIPOS>MOLECULE
*****
 32 38 0 0 0
SMALL
GASTEIGER

@<TRIPOS>ATOM
      1 C         -10.3025  -17.1552   22.0482 C.ar    1  UNL1        0.2409
      2 N          -9.5241  -16.3642   23.0573 N.ar    1  UNL1       -0.1111
      3 N          -8.0819  -16.7609   22.9446 N.ar    1  UNL1       -0.1270
      4 C          -7.9690  -17.7971   21.8659 C.ar    1  UNL1        0.1744
      5 C          -6.7938  -18.5502   21.3165 C.ar    1  UNL1        0.0758
      6 C          -6.9911  -19.5469   20.2132 C.ar    1  UNL1        0.1390
      7 C          -8.3636  -19.7906   19.6591 C.ar    1  UNL1        0.0292
      8 C          -9.5388  -19.0375   20.2084 C.ar    1  UNL1        0.0828
      9 N          -9.3415  -18.0408   21.3118 N.ar    1  UNL1       -0.2599
     10 C          -8.5609  -20.7874   18.5557 C.3     1  UNL1        0.0268
     11 C          -8.3184  -22.1500   17.9773 C.3     1  UNL1        0.0048
     12 C          -9.1449  -21.1512   17.2229 C.3     1  UNL1        0.0048
     13 N         -11.7823  -17.0748   21.8161 N.pl3   1  UNL1       -0.1873
     14 H         -12.1287  -16.7135   20.9683 H       1  UNL1        0.1764
     15 O         -13.2854  -16.1550   22.9971 O.2     1  UNL1       -0.1545
     16 S         -12.7343  -17.5448   22.8758 S.O2    1  UNL1        0.0544
     17 O         -12.1832  -18.9346   22.7544 O.2     1  UNL1       -0.1545
     18 C         -13.6863  -18.0148   23.9354 C.3     1  UNL1        0.1490
     19 C         -15.0634  -18.4444   24.3464 C.3     1  UNL1        0.0273
     20 C         -13.9582  -18.3992   25.3596 C.3     1  UNL1        0.0273
     21 O          -5.8159  -20.3001   19.6638 O.3     1  UNL1       -0.4756
     22 C          -4.6173  -20.5546   20.5289 C.3     1  UNL1        0.2051
     23 C          -3.8747  -19.4030   21.1392 C.3     1  UNL1        0.0404
     24 C          -2.9732  -18.5572   20.2897 C.3     1  UNL1        0.0036
     25 C          -2.2306  -17.4057   20.9001 C.3     1  UNL1        0.0001
     26 C          -2.3896  -17.1000   22.3600 C.3     1  UNL1        0.0000
     27 C          -3.2910  -17.9459   23.2095 C.3     1  UNL1        0.0001
     28 C          -3.4265  -19.1747   20.1631 C.3     1  UNL1        0.0000
     29 C          -2.8143  -18.8628   18.8298 C.3     1  UNL1        0.0001
     30 C          -2.0717  -17.7113   19.4402 C.3     1  UNL1        0.0000
     31 C          -3.7158  -19.7087   19.6793 C.3     1  UNL1        0.0036
     32 C          -4.0336  -19.0974   22.5992 C.3     1  UNL1        0.0036
@<TRIPOS>BOND
     1    15    16    2
     2    16    17    2
     3    16    13    1
     4    13     1    1
     5     1     2   ar
     6     2     3   ar
     7     3     4   ar
     8     4     5   ar
     9     5     6   ar
    10     6    21    1
    11    21    22    1
    12    22    23    1
    13    23    24    1
    14    24    25    1
    15    25    26    1
    16    26    27    1
    17    27    28    1
    18    28    29    1
    19    29    30    1
    20    29    31    1
    21    27    32    1
    22     6     7   ar
    23     7    10    1
    24    10    11    1
    25    11    12    1
    26     7     8   ar
    27     8     9   ar
    28    16    18    1
    29    18    19    1
    30    19    20    1
    31     9     1   ar
    32    20    18    1
    33     9     4   ar
    34    31    23    1
    35    12    10    1
    36    32    23    1
    37    30    25    1
    38    13    14    1
@<TRIPOS>MOLECULE
*****
 32 38 0 0 0
SMALL
GASTEIGER

@<TRIPOS>ATOM
      1 C          -9.9968  -18.8524   20.1139 C.ar    1  UNL1        0.2409
      2 N          -9.3533  -19.7970   19.1426 N.ar    1  UNL1       -0.1111
      3 N          -7.8915  -19.8741   19.4702 N.ar    1  UNL1       -0.1270
      4 C          -7.6316  -18.9771   20.6440 C.ar    1  UNL1        0.1744
      5 C          -6.3783  -18.6537   21.4020 C.ar    1  UNL1        0.0758
      6 C          -6.4261  -17.6988   22.5578 C.ar    1  UNL1        0.1390
      7 C          -7.7272  -17.0674   22.9556 C.ar    1  UNL1        0.0292
      8 C          -8.9806  -17.3907   22.1977 C.ar    1  UNL1        0.0828
      9 N          -8.9328  -18.3456   21.0419 N.ar    1  UNL1       -0.2599
     10 C          -7.7750  -16.1125   24.1115 C.3     1  UNL1        0.0268
     11 C          -8.3944  -15.6654   25.4024 C.3     1  UNL1        0.0048
     12 C          -7.2383  -14.9057   24.8226 C.3     1  UNL1        0.0048
     13 N         -11.4493  -18.4798   20.1509 N.pl3   1  UNL1       -0.1873
     14 H         -11.9429  -18.3390   19.3108 H       1  UNL1        0.1764
     15 O         -12.7126  -17.0087   21.0109 O.2     1  UNL1       -0.1545
     16 S         -12.1498  -18.3218   21.4679 S.O2    1  UNL1        0.0544
     17 O         -11.5870  -19.6350   21.9248 O.2     1  UNL1       -0.1545
     18 C         -12.8503  -18.1638   22.7848 C.3     1  UNL1        0.1490
     19 C         -12.7939  -17.9693   24.2711 C.3     1  UNL1        0.0273
     20 C         -14.1200  -18.0845   23.5796 C.3     1  UNL1        0.0273
     21 O          -5.1727  -17.3754   23.3158 O.3     1  UNL1       -0.4756
     22 C          -3.9490  -18.2246   23.1389 C.3     1  UNL1        0.2051
     23 C          -2.8923  -17.8213   22.1535 C.3     1  UNL1        0.0404
     24 C          -2.3678  -18.8204   21.1653 C.3     1  UNL1        0.0036
     25 C          -1.3112  -18.4171   20.1800 C.3     1  UNL1        0.0001
     26 C          -0.7791  -17.0147   20.1829 C.3     1  UNL1        0.0000
     27 C          -1.3036  -16.0155   21.1711 C.3     1  UNL1        0.0001
     28 C          -2.8956  -18.8363   21.7346 C.3     1  UNL1        0.0000
     29 C          -2.8999  -20.2229   21.1624 C.3     1  UNL1        0.0001
     30 C          -1.8433  -19.8196   20.1771 C.3     1  UNL1        0.0000
     31 C          -3.4244  -19.2237   22.1506 C.3     1  UNL1        0.0036
     32 C          -2.3602  -16.4188   22.1564 C.3     1  UNL1        0.0036
@<TRIPOS>BOND
     1    15    16    2
     2    16    17    2
     3    16    13    1
     4    13     1    1
     5     1     2   ar
     6     2     3   ar
     7     3     4   ar
     8     4     5   ar
     9     5     6   ar
    10     6    21    1
    11    21    22    1
    12    22    23    1
    13    23    24    1
    14    24    25    1
    15    25    26    1
    16    26    27    1
    17    27    28    1
    18    28    29    1
    19    29    30    1
    20    29    31    1
    21    27    32    1
    22     6     7   ar
    23     7    10    1
    24    10    11    1
    25    11    12    1
    26     7     8   ar
    27     8     9   ar
    28    16    18    1
    29    18    19    1
    30    19    20    1
    31     9     1   ar
    32    20    18    1
    33     9     4   ar
    34    31    23    1
    35    12    10    1
    36    32    23    1
    37    30    25    1
    38    13    14    1
@<TRIPOS>MOLECULE
*****
 32 38 0 0 0
SMALL
GASTEIGER

@<TRIPOS>ATOM
      1 C          -9.1524  -17.3473   22.9290 C.ar    1  UNL1        0.2409
      2 N         -10.2068  -18.2756   22.4032 N.ar    1  UNL1       -0.1111
      3 N          -9.5192  -19.4694   21.8098 N.ar    1  UNL1       -0.1270
      4 C          -8.0399  -19.2789   21.9688 C.ar    1  UNL1        0.1744
      5 C          -6.8700  -20.1302   21.5732 C.ar    1  UNL1        0.0758
      6 C          -5.4734  -19.6699   21.8693 C.ar    1  UNL1        0.1390
      7 C          -5.2467  -18.3584   22.5610 C.ar    1  UNL1        0.0292
      8 C          -6.4166  -17.5071   22.9566 C.ar    1  UNL1        0.0828
      9 N          -7.8132  -17.9673   22.6606 N.ar    1  UNL1       -0.2599
     10 C          -3.8501  -17.8982   22.8571 C.3     1  UNL1        0.0268
     11 C          -2.7387  -16.9101   22.6604 C.3     1  UNL1        0.0048
     12 C          -2.5424  -18.0892   23.5665 C.3     1  UNL1        0.0048
     13 N          -9.3947  -16.0302   23.6046 N.pl3   1  UNL1       -0.1873
     14 H          -9.9561  -15.3491   23.1684 H       1  UNL1        0.1764
     15 O          -9.4905  -16.9422   25.5175 O.2     1  UNL1       -0.1545
     16 S          -8.7816  -15.7507   24.9448 S.O2    1  UNL1        0.0544
     17 O          -8.0728  -14.5593   24.3721 O.2     1  UNL1       -0.1545
     18 C          -8.1686  -15.4714   26.2850 C.3     1  UNL1        0.1490
     19 C          -8.3055  -15.0067   27.7046 C.3     1  UNL1        0.0273
     20 C          -6.9700  -15.4521   27.1867 C.3     1  UNL1        0.0273
     21 O          -4.3034  -20.5213   21.4736 O.3     1  UNL1       -0.4756
     22 C          -3.6601  -20.3349   20.1315 C.3     1  UNL1        0.2051
     23 C          -2.5294  -19.3624   19.9703 C.3     1  UNL1        0.0404
     24 C          -2.7323  -18.0994   19.1870 C.3     1  UNL1        0.0036
     25 C          -1.6017  -17.1270   19.0258 C.3     1  UNL1        0.0001
     26 C          -0.2681  -17.4176   19.6480 C.3     1  UNL1        0.0000
     27 C          -0.0652  -18.6806   20.4313 C.3     1  UNL1        0.0001
     28 C          -3.1789  -18.7058   19.3762 C.3     1  UNL1        0.0000
     29 C          -4.0659  -17.8089   18.5648 C.3     1  UNL1        0.0001
     30 C          -2.9353  -16.8365   18.4036 C.3     1  UNL1        0.0000
     31 C          -3.8630  -19.0718   19.3481 C.3     1  UNL1        0.0036
     32 C          -1.1958  -19.6530   20.5925 C.3     1  UNL1        0.0036
@<TRIPOS>BOND
     1    15    16    2
     2    16    17    2
     3    16    13    1
     4    13     1    1
     5     1     2   ar
     6     2     3   ar
     7     3     4   ar
     8     4     5   ar
     9     5     6   ar
    10     6    21    1
    11    21    22    1
    12    22    23    1
    13    23    24    1
    14    24    25    1
    15    25    26    1
    16    26    27    1
    17    27    28    1
    18    28    29    1
    19    29    30    1
    20    29    31    1
    21    27    32    1
    22     6     7   ar
    23     7    10    1
    24    10    11    1
    25    11    12    1
    26     7     8   ar
    27     8     9   ar
    28    16    18    1
    29    18    19    1
    30    19    20    1
    31     9     1   ar
    32    20    18    1
    33     9     4   ar
    34    31    23    1
    35    12    10    1
    36    32    23    1
    37    30    25    1
    38    13    14    1
@<TRIPOS>MOLECULE
*****
 32 38 0 0 0
SMALL
GASTEIGER

@<TRIPOS>ATOM
      1 C          -8.1727  -15.6272   22.4991 C.ar    1  UNL1        0.2409
      2 N          -7.6144  -14.7539   23.5833 N.ar    1  UNL1       -0.1111
      3 N          -6.3868  -15.4207   24.1295 N.ar    1  UNL1       -0.1270
      4 C          -6.1864  -16.7062   23.3829 C.ar    1  UNL1        0.1744
      5 C          -5.1415  -17.7769   23.4904 C.ar    1  UNL1        0.0758
      6 C          -5.2003  -18.9753   22.5903 C.ar    1  UNL1        0.1390
      7 C          -6.3041  -19.1029   21.5826 C.ar    1  UNL1        0.0292
      8 C          -7.3490  -18.0322   21.4751 C.ar    1  UNL1        0.0828
      9 N          -7.2902  -16.8338   22.3752 N.ar    1  UNL1       -0.2599
     10 C          -6.3629  -20.3014   20.6824 C.3     1  UNL1        0.0268
     11 C          -5.8331  -21.6422   20.2682 C.3     1  UNL1        0.0048
     12 C          -6.9946  -21.0363   19.5375 C.3     1  UNL1        0.0048
     13 N          -9.3983  -15.3438   21.6821 N.pl3   1  UNL1       -0.1873
     14 H          -9.3996  -14.5985   21.0389 H       1  UNL1        0.1764
     15 O         -10.8418  -16.1641   20.3618 O.2     1  UNL1       -0.1545
     16 S         -10.6220  -16.1959   21.8453 S.O2    1  UNL1        0.0544
     17 O         -10.4022  -16.2276   23.3287 O.2     1  UNL1       -0.1545
     18 C         -11.8457  -17.0480   22.0083 C.3     1  UNL1        0.1490
     19 C         -13.0242  -17.4856   22.8265 C.3     1  UNL1        0.0273
     20 C         -12.7866  -18.0862   21.4726 C.3     1  UNL1        0.0273
     21 O          -4.1554  -20.0461   22.6978 O.3     1  UNL1       -0.4756
     22 C          -2.7783  -19.8076   22.1533 C.3     1  UNL1        0.2051
     23 C          -2.5939  -18.9801   20.9158 C.3     1  UNL1        0.0404
     24 C          -2.0747  -17.5769   21.0223 C.3     1  UNL1        0.0036
     25 C          -1.8904  -16.7495   19.7849 C.3     1  UNL1        0.0001
     26 C          -2.2253  -17.3253   18.4409 C.3     1  UNL1        0.0000
     27 C          -2.7445  -18.7285   18.3344 C.3     1  UNL1        0.0001
     28 C          -2.2329  -18.1437   21.5289 C.3     1  UNL1        0.0000
     29 C          -1.7398  -17.0011   22.3663 C.3     1  UNL1        0.0001
     30 C          -1.5555  -16.1737   21.1288 C.3     1  UNL1        0.0000
     31 C          -2.2590  -18.4043   22.2598 C.3     1  UNL1        0.0036
     32 C          -2.9288  -19.5559   19.5718 C.3     1  UNL1        0.0036
@<TRIPOS>BOND
     1    15    16    2
     2    16    17    2
     3    16    13    1
     4    13     1    1
     5     1     2   ar
     6     2     3   ar
     7     3     4   ar
     8     4     5   ar
     9     5     6   ar
    10     6    21    1
    11    21    22    1
    12    22    23    1
    13    23    24    1
    14    24    25    1
    15    25    26    1
    16    26    27    1
    17    27    28    1
    18    28    29    1
    19    29    30    1
    20    29    31    1
    21    27    32    1
    22     6     7   ar
    23     7    10    1
    24    10    11    1
    25    11    12    1
    26     7     8   ar
    27     8     9   ar
    28    16    18    1
    29    18    19    1
    30    19    20    1
    31     9     1   ar
    32    20    18    1
    33     9     4   ar
    34    31    23    1
    35    12    10    1
    36    32    23    1
    37    30    25    1
    38    13    14    1
@<TRIPOS>MOLECULE
*****
 32 38 0 0 0
SMALL
GASTEIGER

@<TRIPOS>ATOM
      1 C           3.1658   -0.0250   26.7630 C.ar    1  UNL1        0.2409
      2 N           4.1616   -0.7844   27.5886 N.ar    1  UNL1       -0.1111
      3 N           4.8941   -1.7270   26.6803 N.ar    1  UNL1       -0.1270
      4 C           4.3510   -1.5501   25.2933 C.ar    1  UNL1        0.1744
      5 C           4.6912   -2.2110   23.9904 C.ar    1  UNL1        0.0758
      6 C           3.9632   -1.8199   22.7386 C.ar    1  UNL1        0.1390
      7 C           2.8950   -0.7680   22.7897 C.ar    1  UNL1        0.0292
      8 C           2.5549   -0.1071   24.0926 C.ar    1  UNL1        0.0828
      9 N           3.2829   -0.4982   25.3444 N.ar    1  UNL1       -0.2599
     10 C           2.1670   -0.3770   21.5378 C.3     1  UNL1        0.0268
     11 C           1.3361   -0.7531   20.3469 C.3     1  UNL1        0.0048
     12 C           1.7370    0.6764   20.5604 C.3     1  UNL1        0.0048
     13 N           2.2192    1.0236   27.2673 N.pl3   1  UNL1       -0.1873
     14 H           2.4677    1.9750   27.2198 H       1  UNL1        0.1764
     15 O           0.2260    0.9601   26.5441 O.2     1  UNL1       -0.1545
     16 S           0.8938    0.6225   27.8441 S.O2    1  UNL1        0.0544
     17 O           1.5616    0.2850   29.1441 O.2     1  UNL1       -0.1545
     18 C          -0.4316    0.2215   28.4207 C.3     1  UNL1        0.1490
     19 C          -1.7134    0.5878   29.1083 C.3     1  UNL1        0.0273
     20 C          -1.4455   -0.8393   28.7319 C.3     1  UNL1        0.0273
     21 O           4.3033   -2.4808   21.4357 O.3     1  UNL1       -0.4756
     22 C           5.4069   -1.9311   20.5815 C.3     1  UNL1        0.2051
     23 C           5.1998   -0.6575   19.8164 C.3     1  UNL1        0.0404
     24 C           4.5549   -0.6923   18.4626 C.3     1  UNL1        0.0036
     25 C           4.3478    0.5812   17.6976 C.3     1  UNL1        0.0001
     26 C           4.7856    1.8895   18.2864 C.3     1  UNL1        0.0000
     27 C           5.4306    1.9243   19.6402 C.3     1  UNL1        0.0001
     28 C           4.7422   -1.2252   18.9954 C.3     1  UNL1        0.0000
     29 C           4.1171   -2.0006   17.8738 C.3     1  UNL1        0.0001
     30 C           3.9100   -0.7271   17.1088 C.3     1  UNL1        0.0000
     31 C           4.7620   -1.9658   19.2276 C.3     1  UNL1        0.0036
     32 C           5.6377    0.6508   20.4052 C.3     1  UNL1        0.0036
@<TRIPOS>BOND
     1    15    16    2
     2    16    17    2
     3    16    13    1
     4    13     1    1
     5     1     2   ar
     6     2     3   ar
     7     3     4   ar
     8     4     5   ar
     9     5     6   ar
    10     6    21    1
    11    21    22    1
    12    22    23    1
    13    23    24    1
    14    24    25    1
    15    25    26    1
    16    26    27    1
    17    27    28    1
    18    28    29    1
    19    29    30    1
    20    29    31    1
    21    27    32    1
    22     6     7   ar
    23     7    10    1
    24    10    11    1
    25    11    12    1
    26     7     8   ar
    27     8     9   ar
    28    16    18    1
    29    18    19    1
    30    19    20    1
    31     9     1   ar
    32    20    18    1
    33     9     4   ar
    34    31    23    1
    35    12    10    1
    36    32    23    1
    37    30    25    1
    38    13    14    1
@<TRIPOS>MOLECULE
*****
 32 38 0 0 0
SMALL
GASTEIGER

@<TRIPOS>ATOM
      1 C          -7.3352  -15.6791   23.7087 C.ar    1  UNL1        0.2409
      2 N          -6.4526  -14.8711   24.6133 N.ar    1  UNL1       -0.1111
      3 N          -5.1168  -15.5497   24.6846 N.ar    1  UNL1       -0.1270
      4 C          -5.1738  -16.7770   23.8241 C.ar    1  UNL1        0.1744
      5 C          -4.1543  -17.8321   23.5119 C.ar    1  UNL1        0.0758
      6 C          -4.5060  -18.9671   22.5965 C.ar    1  UNL1        0.1390
      7 C          -5.8770  -19.0471   21.9933 C.ar    1  UNL1        0.0292
      8 C          -6.8964  -17.9920   22.3055 C.ar    1  UNL1        0.0828
      9 N          -6.5448  -16.8570   23.2209 N.ar    1  UNL1       -0.2599
     10 C          -6.2286  -20.1822   21.0778 C.3     1  UNL1        0.0268
     11 C          -7.0036  -20.7172   19.9103 C.3     1  UNL1        0.0048
     12 C          -6.0626  -21.6131   20.6598 C.3     1  UNL1        0.0048
     13 N          -8.7583  -15.3644   23.3540 N.pl3   1  UNL1       -0.1873
     14 H          -9.1590  -14.5109   23.6373 H       1  UNL1        0.1764
     15 O          -9.9564  -17.0463   23.8393 O.2     1  UNL1       -0.1545
     16 S          -9.5709  -16.3502   22.5678 S.O2    1  UNL1        0.0544
     17 O          -9.1853  -15.6540   21.2964 O.2     1  UNL1       -0.1545
     18 C         -10.3835  -17.3359   21.7817 C.3     1  UNL1        0.1490
     19 C         -10.6452  -18.7458   21.3415 C.3     1  UNL1        0.0273
     20 C         -11.5291  -17.6335   20.8603 C.3     1  UNL1        0.0273
     21 O          -3.4865  -20.0223   22.2842 O.3     1  UNL1       -0.4756
     22 C          -2.9054  -20.1188   20.9047 C.3     1  UNL1        0.2051
     23 C          -1.9690  -19.0567   20.4093 C.3     1  UNL1        0.0404
     24 C          -2.4109  -18.1098   19.3332 C.3     1  UNL1        0.0036
     25 C          -1.4746  -17.0478   18.8378 C.3     1  UNL1        0.0001
     26 C          -0.0964  -16.9327   19.4186 C.3     1  UNL1        0.0000
     27 C           0.3455  -17.8796   20.4947 C.3     1  UNL1        0.0001
     28 C          -2.7384  -18.7052   19.7090 C.3     1  UNL1        0.0000
     29 C          -3.7892  -18.2249   18.7524 C.3     1  UNL1        0.0001
     30 C          -2.8528  -17.1629   18.2571 C.3     1  UNL1        0.0000
     31 C          -3.3473  -19.1718   19.8285 C.3     1  UNL1        0.0036
     32 C          -0.5908  -18.9416   20.9901 C.3     1  UNL1        0.0036
@<TRIPOS>BOND
     1    15    16    2
     2    16    17    2
     3    16    13    1
     4    13     1    1
     5     1     2   ar
     6     2     3   ar
     7     3     4   ar
     8     4     5   ar
     9     5     6   ar
    10     6    21    1
    11    21    22    1
    12    22    23    1
    13    23    24    1
    14    24    25    1
    15    25    26    1
    16    26    27    1
    17    27    28    1
    18    28    29    1
    19    29    30    1
    20    29    31    1
    21    27    32    1
    22     6     7   ar
    23     7    10    1
    24    10    11    1
    25    11    12    1
    26     7     8   ar
    27     8     9   ar
    28    16    18    1
    29    18    19    1
    30    19    20    1
    31     9     1   ar
    32    20    18    1
    33     9     4   ar
    34    31    23    1
    35    12    10    1
    36    32    23    1
    37    30    25    1
    38    13    14    1
