@<TRIPOS>MOLECULE
*****
 31 35 0 0 0
SMALL
GASTEIGER

@<TRIPOS>ATOM
      1 C          -8.9125  -20.5666   18.2905 C.3     1  UNL1        0.0899
      2 N          -9.1839  -19.6738   19.4650 N.3     1  UNL1       -0.2674
      3 C         -10.5925  -19.4578   19.9332 C.3     1  UNL1        0.0989
      4 C         -10.8639  -18.5650   21.1076 C.ar    1  UNL1       -0.0089
      5 C         -12.2724  -18.3489   21.5758 C.ar    1  UNL1       -0.0031
      6 C         -12.5438  -17.4562   22.7502 C.ar    1  UNL1        0.0010
      7 C         -11.4066  -16.7794   23.4565 C.ar    1  UNL1        0.0142
      8 C          -9.9980  -16.9955   22.9883 C.ar    1  UNL1        0.0436
      9 C          -9.7267  -17.8882   21.8139 C.ar    1  UNL1       -0.0101
     10 C          -8.3180  -18.1043   21.3456 C.3     1  UNL1        0.0447
     11 C          -8.0467  -18.9971   20.1712 C.3     1  UNL1        0.0782
     12 N          -8.8608  -16.3187   23.6945 N.pl3   1  UNL1       -0.3049
     13 C          -8.7639  -16.3799   25.1901 C.3     1  UNL1        0.1079
     14 C          -7.6267  -15.7032   25.8963 C.3     1  UNL1        0.0903
     15 N          -6.5863  -14.9653   25.1070 N.3     1  UNL1       -0.2946
     16 C          -6.6832  -14.9041   23.6114 C.3     1  UNL1        0.0903
     17 C          -7.8204  -15.5808   22.9052 C.3     1  UNL1        0.1079
     18 H          -5.6888  -15.3973   25.3265 H       1  UNL1        0.1233
     19 C          -6.6381  -19.2131   19.7029 C.3     1  UNL1        0.0888
     20 N          -5.6400  -19.8732   20.6074 N.3     1  UNL1       -0.2667
     21 C          -5.6336  -21.3660   20.7547 C.3     1  UNL1        0.0899
     22 C          -4.6484  -19.0407   21.3647 C.3     1  UNL1        0.0978
     23 C          -4.8855  -18.7229   22.8113 C.3     1  UNL1        0.0224
     24 C          -3.8939  -17.8903   23.5686 C.3     1  UNL1        0.0065
     25 C          -2.6652  -17.3754   22.8793 C.3     1  UNL1        0.0277
     26 C          -2.4281  -17.6933   21.4326 C.ar    1  UNL1       -0.0073
     27 C          -1.1994  -17.1784   20.7432 C.ar    1  UNL1       -0.0015
     28 C          -0.9623  -17.4962   19.2966 C.ar    1  UNL1        0.0203
     29 C          -1.9539  -18.3288   18.5393 C.ar    1  UNL1        0.0985
     30 N          -3.1826  -18.8436   19.2287 N.ar    1  UNL1       -0.2471
     31 C          -3.4197  -18.5258   20.6753 C.ar    1  UNL1        0.0695
@<TRIPOS>BOND
     1     1     2    1
     2     2     3    1
     3     3     4    1
     4     4     5   ar
     5     5     6   ar
     6     6     7   ar
     7     7     8   ar
     8     8    12    1
     9    12    13    1
    10    13    14    1
    11    14    15    1
    12    15    16    1
    13    16    17    1
    14     8     9   ar
    15     9    10    1
    16    10    11    1
    17    11    19    1
    18    19    20    1
    19    20    21    1
    20    22    20    1
    21    22    23    1
    22    23    24    1
    23    24    25    1
    24    25    26    1
    25    26    27   ar
    26    27    28   ar
    27    28    29   ar
    28    29    30   ar
    29    30    31   ar
    30    11     2    1
    31    31    22    1
    32     9     4   ar
    33    31    26   ar
    34    17    12    1
    35    15    18    1
@<TRIPOS>MOLECULE
*****
 31 35 0 0 0
SMALL
GASTEIGER

@<TRIPOS>ATOM
      1 C          -5.0223  -15.4106   25.0491 C.3     1  UNL1        0.0899
      2 N          -5.2682  -16.4380   23.9840 N.3     1  UNL1       -0.2674
      3 C          -4.1487  -17.3240   23.5240 C.3     1  UNL1        0.0989
      4 C          -4.3946  -18.3514   22.4589 C.ar    1  UNL1       -0.0089
      5 C          -3.2752  -19.2374   21.9989 C.ar    1  UNL1       -0.0031
      6 C          -3.5211  -20.2647   20.9339 C.ar    1  UNL1        0.0010
      7 C          -4.8865  -20.4059   20.3290 C.ar    1  UNL1        0.0142
      8 C          -6.0059  -19.5199   20.7891 C.ar    1  UNL1        0.0436
      9 C          -5.7600  -18.4926   21.8541 C.ar    1  UNL1       -0.0101
     10 C          -6.8795  -17.6064   22.3142 C.3     1  UNL1        0.0447
     11 C          -6.6335  -16.5792   23.3792 C.3     1  UNL1        0.0782
     12 N          -7.3713  -19.6611   20.1843 N.pl3   1  UNL1       -0.3049
     13 C          -8.5353  -18.9264   20.7803 C.3     1  UNL1        0.1079
     14 C          -9.9006  -19.0676   20.1754 C.3     1  UNL1        0.0903
     15 N         -10.1020  -19.9435   18.9745 N.3     1  UNL1       -0.2946
     16 C          -8.9380  -20.6782   18.3785 C.3     1  UNL1        0.0903
     17 C          -7.5726  -20.5370   18.9834 C.3     1  UNL1        0.1079
     18 H         -10.4841  -19.3502   18.2381 H       1  UNL1        0.1233
     19 C          -7.7530  -15.6930   23.8393 C.3     1  UNL1        0.0888
     20 N          -8.6909  -16.1647   24.9107 N.3     1  UNL1       -0.2667
     21 C          -8.7125  -15.4779   26.2442 C.3     1  UNL1        0.0899
     22 C          -9.6071  -17.3230   24.6488 C.3     1  UNL1        0.0978
     23 C          -9.4891  -18.5731   25.4693 C.3     1  UNL1        0.0224
     24 C         -10.4054  -19.7315   25.2074 C.3     1  UNL1        0.0065
     25 C         -11.4397  -19.6398   24.1249 C.3     1  UNL1        0.0277
     26 C         -11.5577  -18.3896   23.3043 C.ar    1  UNL1       -0.0073
     27 C         -12.5920  -18.2979   22.2218 C.ar    1  UNL1       -0.0015
     28 C         -12.7100  -17.0478   21.4013 C.ar    1  UNL1        0.0203
     29 C         -11.7938  -15.8895   21.6632 C.ar    1  UNL1        0.0985
     30 N         -10.7595  -15.9812   22.7457 N.ar    1  UNL1       -0.2471
     31 C         -10.6414  -17.2313   23.5663 C.ar    1  UNL1        0.0695
@<TRIPOS>BOND
     1     1     2    1
     2     2     3    1
     3     3     4    1
     4     4     5   ar
     5     5     6   ar
     6     6     7   ar
     7     7     8   ar
     8     8    12    1
     9    12    13    1
    10    13    14    1
    11    14    15    1
    12    15    16    1
    13    16    17    1
    14     8     9   ar
    15     9    10    1
    16    10    11    1
    17    11    19    1
    18    19    20    1
    19    20    21    1
    20    22    20    1
    21    22    23    1
    22    23    24    1
    23    24    25    1
    24    25    26    1
    25    26    27   ar
    26    27    28   ar
    27    28    29   ar
    28    29    30   ar
    29    30    31   ar
    30    11     2    1
    31    31    22    1
    32     9     4   ar
    33    31    26   ar
    34    17    12    1
    35    15    18    1
@<TRIPOS>MOLECULE
*****
 31 35 0 0 0
SMALL
GASTEIGER

@<TRIPOS>ATOM
      1 C          -9.9647   -5.6501   18.9502 C.3     1  UNL1        0.0899
      2 N         -10.8824   -4.4846   18.7275 N.3     1  UNL1       -0.2674
      3 C         -10.3357   -3.1880   18.2083 C.3     1  UNL1        0.0989
      4 C         -11.2535   -2.0225   17.9856 C.ar    1  UNL1       -0.0089
      5 C         -10.7068   -0.7259   17.4663 C.ar    1  UNL1       -0.0031
      6 C         -11.6245    0.4395   17.2436 C.ar    1  UNL1        0.0010
      7 C         -13.0890    0.3081   17.5402 C.ar    1  UNL1        0.0142
      8 C         -13.6358   -0.9885   18.0595 C.ar    1  UNL1        0.0436
      9 C         -12.7180   -2.1539   18.2822 C.ar    1  UNL1       -0.0101
     10 C         -13.2647   -3.4506   18.8014 C.3     1  UNL1        0.0447
     11 C         -12.3469   -4.6160   19.0241 C.3     1  UNL1        0.0782
     12 N         -15.1003   -1.1199   18.3561 N.pl3   1  UNL1       -0.3049
     13 C         -16.0302   -1.6682   17.3147 C.3     1  UNL1        0.1079
     14 C         -17.4947   -1.7996   17.6113 C.3     1  UNL1        0.0903
     15 N         -18.0293   -1.3825   18.9492 N.3     1  UNL1       -0.2946
     16 C         -17.0994   -0.8342   19.9906 C.3     1  UNL1        0.0903
     17 C         -15.6349   -0.7028   19.6940 C.3     1  UNL1        0.1079
     18 H         -18.4763   -2.2038   19.3567 H       1  UNL1        0.1233
     19 C         -12.8937   -5.9127   19.5434 C.3     1  UNL1        0.0888
     20 N         -13.7253   -6.7867   18.6519 N.3     1  UNL1       -0.2667
     21 C         -13.0931   -7.4842   17.4841 C.3     1  UNL1        0.0899
     22 C         -15.1889   -6.9631   18.9283 C.3     1  UNL1        0.0978
     23 C         -16.0266   -5.7811   19.3169 C.3     1  UNL1        0.0224
     24 C         -17.4904   -5.9575   19.5933 C.3     1  UNL1        0.0065
     25 C         -18.1164   -7.3160   19.4811 C.3     1  UNL1        0.0277
     26 C         -17.2787   -8.4980   19.0925 C.ar    1  UNL1       -0.0073
     27 C         -17.9047   -9.8565   18.9803 C.ar    1  UNL1       -0.0015
     28 C         -17.0670  -11.0386   18.5917 C.ar    1  UNL1        0.0203
     29 C         -15.6033  -10.8621   18.3153 C.ar    1  UNL1        0.0985
     30 N         -14.9773   -9.5036   18.4275 N.ar    1  UNL1       -0.2471
     31 C         -15.8150   -8.3216   18.8161 C.ar    1  UNL1        0.0695
@<TRIPOS>BOND
     1     1     2    1
     2     2     3    1
     3     3     4    1
     4     4     5   ar
     5     5     6   ar
     6     6     7   ar
     7     7     8   ar
     8     8    12    1
     9    12    13    1
    10    13    14    1
    11    14    15    1
    12    15    16    1
    13    16    17    1
    14     8     9   ar
    15     9    10    1
    16    10    11    1
    17    11    19    1
    18    19    20    1
    19    20    21    1
    20    22    20    1
    21    22    23    1
    22    23    24    1
    23    24    25    1
    24    25    26    1
    25    26    27   ar
    26    27    28   ar
    27    28    29   ar
    28    29    30   ar
    29    30    31   ar
    30    11     2    1
    31    31    22    1
    32     9     4   ar
    33    31    26   ar
    34    17    12    1
    35    15    18    1
@<TRIPOS>MOLECULE
*****
 31 35 0 0 0
SMALL
GASTEIGER

@<TRIPOS>ATOM
      1 C         -10.4431   -6.4523   18.9696 C.3     1  UNL1        0.0899
      2 N         -11.3667   -5.2785   18.8296 N.3     1  UNL1       -0.2674
      3 C         -10.8048   -3.8990   18.6532 C.3     1  UNL1        0.0989
      4 C         -11.7283   -2.7253   18.5132 C.ar    1  UNL1       -0.0089
      5 C         -11.1665   -1.3457   18.3368 C.ar    1  UNL1       -0.0031
      6 C         -12.0900   -0.1721   18.1968 C.ar    1  UNL1        0.0010
      7 C         -13.5753   -0.3780   18.2333 C.ar    1  UNL1        0.0142
      8 C         -14.1372   -1.7575   18.4096 C.ar    1  UNL1        0.0436
      9 C         -13.2137   -2.9312   18.5496 C.ar    1  UNL1       -0.0101
     10 C         -13.7755   -4.3108   18.7260 C.3     1  UNL1        0.0447
     11 C         -12.8520   -5.4844   18.8660 C.3     1  UNL1        0.0782
     12 N         -15.6225   -1.9634   18.4460 N.pl3   1  UNL1       -0.3049
     13 C         -16.3583   -2.3410   17.1946 C.3     1  UNL1        0.1079
     14 C         -17.8436   -2.5469   17.2310 C.3     1  UNL1        0.0903
     15 N         -18.5933   -2.3752   18.5189 N.3     1  UNL1       -0.2946
     16 C         -17.8575   -1.9976   19.7703 C.3     1  UNL1        0.0903
     17 C         -16.3722   -1.7917   19.7339 C.3     1  UNL1        0.1079
     18 H         -19.0604   -3.2620   18.7081 H       1  UNL1        0.1233
     19 C         -13.4138   -6.8641   19.0424 C.3     1  UNL1        0.0888
     20 N         -14.1820   -7.5093   17.9272 N.3     1  UNL1       -0.2667
     21 C         -13.7802   -7.2683   16.5022 C.3     1  UNL1        0.0899
     22 C         -15.3519   -8.3954   18.2369 C.3     1  UNL1        0.0978
     23 C         -15.2440   -9.8778   18.0351 C.3     1  UNL1        0.0224
     24 C         -16.4140  -10.7641   18.3449 C.3     1  UNL1        0.0065
     25 C         -17.6918  -10.1678   18.8564 C.3     1  UNL1        0.0277
     26 C         -17.7997   -8.6853   19.0582 C.ar    1  UNL1       -0.0073
     27 C         -19.0775   -8.0890   19.5697 C.ar    1  UNL1       -0.0015
     28 C         -19.1854   -6.6066   19.7715 C.ar    1  UNL1        0.0203
     29 C         -18.0154   -5.7205   19.4617 C.ar    1  UNL1        0.0985
     30 N         -16.7376   -6.3167   18.9502 N.ar    1  UNL1       -0.2471
     31 C         -16.6297   -7.7991   18.7484 C.ar    1  UNL1        0.0695
@<TRIPOS>BOND
     1     1     2    1
     2     2     3    1
     3     3     4    1
     4     4     5   ar
     5     5     6   ar
     6     6     7   ar
     7     7     8   ar
     8     8    12    1
     9    12    13    1
    10    13    14    1
    11    14    15    1
    12    15    16    1
    13    16    17    1
    14     8     9   ar
    15     9    10    1
    16    10    11    1
    17    11    19    1
    18    19    20    1
    19    20    21    1
    20    22    20    1
    21    22    23    1
    22    23    24    1
    23    24    25    1
    24    25    26    1
    25    26    27   ar
    26    27    28   ar
    27    28    29   ar
    28    29    30   ar
    29    30    31   ar
    30    11     2    1
    31    31    22    1
    32     9     4   ar
    33    31    26   ar
    34    17    12    1
    35    15    18    1
@<TRIPOS>MOLECULE
*****
 31 35 0 0 0
SMALL
GASTEIGER

@<TRIPOS>ATOM
      1 C           6.1799   -3.6844   25.0722 C.3     1  UNL1        0.0899
      2 N           5.5459   -3.1825   23.8087 N.3     1  UNL1       -0.2674
      3 C           5.8746   -3.8299   22.4962 C.3     1  UNL1        0.0989
      4 C           5.2407   -3.3280   21.2327 C.ar    1  UNL1       -0.0089
      5 C           5.5694   -3.9754   19.9202 C.ar    1  UNL1       -0.0031
      6 C           4.9355   -3.4734   18.6568 C.ar    1  UNL1        0.0010
      7 C           3.9728   -2.3241   18.7060 C.ar    1  UNL1        0.0142
      8 C           3.6441   -1.6768   20.0185 C.ar    1  UNL1        0.0436
      9 C           4.2780   -2.1787   21.2819 C.ar    1  UNL1       -0.0101
     10 C           3.9493   -1.5313   22.5945 C.3     1  UNL1        0.0447
     11 C           4.5833   -2.0332   23.8579 C.3     1  UNL1        0.0782
     12 N           2.6815   -0.5275   20.0677 N.pl3   1  UNL1       -0.3049
     13 C           3.1826    0.8778   19.9123 C.3     1  UNL1        0.1079
     14 C           2.2199    2.0271   19.9614 C.3     1  UNL1        0.0903
     15 N           0.7562    1.7711   20.1660 N.3     1  UNL1       -0.2946
     16 C           0.2551    0.3659   20.3214 C.3     1  UNL1        0.0903
     17 C           1.2177   -0.7834   20.2722 C.3     1  UNL1        0.1079
     18 H           0.2724    2.1689   19.3610 H       1  UNL1        0.1233
     19 C           4.2546   -1.3858   25.1705 C.3     1  UNL1        0.0888
     20 N           3.9939    0.0900   25.2345 N.3     1  UNL1       -0.2667
     21 C           5.1429    1.0533   25.2780 C.3     1  UNL1        0.0899
     22 C           2.5843    0.6024   25.2548 C.3     1  UNL1        0.0978
     23 C           1.9022    0.9724   23.9712 C.3     1  UNL1        0.0224
     24 C           0.4925    1.4848   23.9915 C.3     1  UNL1        0.0065
     25 C          -0.2349    1.6273   25.2955 C.3     1  UNL1        0.0277
     26 C           0.4472    1.2573   26.5792 C.ar    1  UNL1       -0.0073
     27 C          -0.2803    1.3997   27.8832 C.ar    1  UNL1       -0.0015
     28 C           0.4018    1.0298   29.1669 C.ar    1  UNL1        0.0203
     29 C           1.8114    0.5173   29.1465 C.ar    1  UNL1        0.0985
     30 N           2.5389    0.3749   27.8425 N.ar    1  UNL1       -0.2471
     31 C           1.8568    0.7448   26.5588 C.ar    1  UNL1        0.0695
@<TRIPOS>BOND
     1     1     2    1
     2     2     3    1
     3     3     4    1
     4     4     5   ar
     5     5     6   ar
     6     6     7   ar
     7     7     8   ar
     8     8    12    1
     9    12    13    1
    10    13    14    1
    11    14    15    1
    12    15    16    1
    13    16    17    1
    14     8     9   ar
    15     9    10    1
    16    10    11    1
    17    11    19    1
    18    19    20    1
    19    20    21    1
    20    22    20    1
    21    22    23    1
    22    23    24    1
    23    24    25    1
    24    25    26    1
    25    26    27   ar
    26    27    28   ar
    27    28    29   ar
    28    29    30   ar
    29    30    31   ar
    30    11     2    1
    31    31    22    1
    32     9     4   ar
    33    31    26   ar
    34    17    12    1
    35    15    18    1
@<TRIPOS>MOLECULE
*****
 31 35 0 0 0
SMALL
GASTEIGER

@<TRIPOS>ATOM
      1 C         -11.8675   -7.6578   17.4831 C.3     1  UNL1        0.0899
      2 N         -13.2642   -7.3185   17.9122 N.3     1  UNL1       -0.2674
      3 C         -14.1439   -8.3773   18.5080 C.3     1  UNL1        0.0989
      4 C         -15.5406   -8.0380   18.9370 C.ar    1  UNL1       -0.0089
      5 C         -16.4203   -9.0968   19.5328 C.ar    1  UNL1       -0.0031
      6 C         -17.8170   -8.7574   19.9618 C.ar    1  UNL1        0.0010
      7 C         -18.3340   -7.3593   19.7950 C.ar    1  UNL1        0.0142
      8 C         -17.4543   -6.3005   19.1992 C.ar    1  UNL1        0.0436
      9 C         -16.0577   -6.6398   18.7702 C.ar    1  UNL1       -0.0101
     10 C         -15.1779   -5.5810   18.1743 C.3     1  UNL1        0.0447
     11 C         -13.7812   -5.9203   17.7453 C.3     1  UNL1        0.0782
     12 N         -17.9714   -4.9023   19.0323 N.pl3   1  UNL1       -0.3049
     13 C         -17.7985   -3.9020   20.1366 C.3     1  UNL1        0.1079
     14 C         -18.3155   -2.5038   19.9698 C.3     1  UNL1        0.0903
     15 N         -19.0054   -2.1060   18.6987 N.3     1  UNL1       -0.2946
     16 C         -19.1783   -3.1063   17.5944 C.3     1  UNL1        0.0903
     17 C         -18.6612   -4.5044   17.7613 C.3     1  UNL1        0.1079
     18 H         -18.4771   -1.3253   18.3089 H       1  UNL1        0.1233
     19 C         -12.9015   -4.8615   17.1495 C.3     1  UNL1        0.0888
     20 N         -12.0736   -3.9848   18.0417 N.3     1  UNL1       -0.2667
     21 C         -11.4263   -4.5596   19.2668 C.3     1  UNL1        0.0899
     22 C         -11.8929   -2.5334   17.7088 C.3     1  UNL1        0.0978
     23 C         -10.6859   -2.0850   16.9394 C.3     1  UNL1        0.0224
     24 C         -10.5052   -0.6336   16.6066 C.3     1  UNL1        0.0065
     25 C         -11.5315    0.3694   17.0431 C.3     1  UNL1        0.0277
     26 C         -12.7386   -0.0790   17.8126 C.ar    1  UNL1       -0.0073
     27 C         -13.7649    0.9240   18.2491 C.ar    1  UNL1       -0.0015
     28 C         -14.9719    0.4756   19.0186 C.ar    1  UNL1        0.0203
     29 C         -15.1526   -0.9758   19.3514 C.ar    1  UNL1        0.0985
     30 N         -14.1263   -1.9788   18.9148 N.ar    1  UNL1       -0.2471
     31 C         -12.9193   -1.5304   18.1454 C.ar    1  UNL1        0.0695
@<TRIPOS>BOND
     1     1     2    1
     2     2     3    1
     3     3     4    1
     4     4     5   ar
     5     5     6   ar
     6     6     7   ar
     7     7     8   ar
     8     8    12    1
     9    12    13    1
    10    13    14    1
    11    14    15    1
    12    15    16    1
    13    16    17    1
    14     8     9   ar
    15     9    10    1
    16    10    11    1
    17    11    19    1
    18    19    20    1
    19    20    21    1
    20    22    20    1
    21    22    23    1
    22    23    24    1
    23    24    25    1
    24    25    26    1
    25    26    27   ar
    26    27    28   ar
    27    28    29   ar
    28    29    30   ar
    29    30    31   ar
    30    11     2    1
    31    31    22    1
    32     9     4   ar
    33    31    26   ar
    34    17    12    1
    35    15    18    1
@<TRIPOS>MOLECULE
*****
 31 35 0 0 0
SMALL
GASTEIGER

@<TRIPOS>ATOM
      1 C           3.8953   -0.4422   26.8012 C.3     1  UNL1        0.0899
      2 N           4.4669   -1.2570   25.6789 N.3     1  UNL1       -0.2674
      3 C           5.6443   -2.1527   25.9264 C.3     1  UNL1        0.0989
      4 C           6.2158   -2.9675   24.8040 C.ar    1  UNL1       -0.0089
      5 C           7.3933   -3.8632   25.0515 C.ar    1  UNL1       -0.0031
      6 C           7.9648   -4.6779   23.9292 C.ar    1  UNL1        0.0010
      7 C           7.3589   -4.5969   22.5594 C.ar    1  UNL1        0.0142
      8 C           6.1814   -3.7011   22.3120 C.ar    1  UNL1        0.0436
      9 C           5.6099   -2.8864   23.4342 C.ar    1  UNL1       -0.0101
     10 C           4.4324   -1.9906   23.1868 C.3     1  UNL1        0.0447
     11 C           3.8609   -1.1759   24.3091 C.3     1  UNL1        0.0782
     12 N           5.5755   -3.6201   20.9422 N.pl3   1  UNL1       -0.3049
     13 C           6.2874   -2.8786   19.8498 C.3     1  UNL1        0.1079
     14 C           5.6815   -2.7975   18.4801 C.3     1  UNL1        0.0903
     15 N           4.3637   -3.4580   18.2026 N.3     1  UNL1       -0.2946
     16 C           3.6518   -4.1996   19.2949 C.3     1  UNL1        0.0903
     17 C           4.2577   -4.2806   20.6647 C.3     1  UNL1        0.1079
     18 H           4.5221   -4.1259   17.4481 H       1  UNL1        0.1233
     19 C           2.6835   -0.2801   24.0616 C.3     1  UNL1        0.0888
     20 N           2.8050    0.8725   23.1094 N.3     1  UNL1       -0.2667
     21 C           3.4471    2.1517   23.5583 C.3     1  UNL1        0.0899
     22 C           2.2845    0.7460   21.7084 C.3     1  UNL1        0.0978
     23 C           0.8089    0.6328   21.4639 C.3     1  UNL1        0.0224
     24 C           0.2883    0.5063   20.0628 C.3     1  UNL1        0.0065
     25 C           1.2434    0.4929   18.9062 C.3     1  UNL1        0.0277
     26 C           2.7191    0.6061   19.1507 C.ar    1  UNL1       -0.0073
     27 C           3.6741    0.5927   17.9942 C.ar    1  UNL1       -0.0015
     28 C           5.1497    0.7058   18.2386 C.ar    1  UNL1        0.0203
     29 C           5.6702    0.8323   19.6397 C.ar    1  UNL1        0.0985
     30 N           4.7151    0.8457   20.7963 N.ar    1  UNL1       -0.2471
     31 C           3.2396    0.7326   20.5518 C.ar    1  UNL1        0.0695
@<TRIPOS>BOND
     1     1     2    1
     2     2     3    1
     3     3     4    1
     4     4     5   ar
     5     5     6   ar
     6     6     7   ar
     7     7     8   ar
     8     8    12    1
     9    12    13    1
    10    13    14    1
    11    14    15    1
    12    15    16    1
    13    16    17    1
    14     8     9   ar
    15     9    10    1
    16    10    11    1
    17    11    19    1
    18    19    20    1
    19    20    21    1
    20    22    20    1
    21    22    23    1
    22    23    24    1
    23    24    25    1
    24    25    26    1
    25    26    27   ar
    26    27    28   ar
    27    28    29   ar
    28    29    30   ar
    29    30    31   ar
    30    11     2    1
    31    31    22    1
    32     9     4   ar
    33    31    26   ar
    34    17    12    1
    35    15    18    1
@<TRIPOS>MOLECULE
*****
 31 35 0 0 0
SMALL
GASTEIGER

@<TRIPOS>ATOM
      1 C           2.2209    0.9336   25.7991 C.3     1  UNL1        0.0899
      2 N           2.4072    0.4111   24.4054 N.3     1  UNL1       -0.2674
      3 C           1.7034    1.0709   23.2568 C.3     1  UNL1        0.0989
      4 C           1.8897    0.5484   21.8630 C.ar    1  UNL1       -0.0089
      5 C           1.1859    1.2082   20.7144 C.ar    1  UNL1       -0.0031
      6 C           1.3722    0.6857   19.3208 C.ar    1  UNL1        0.0010
      7 C           2.2622   -0.4966   19.0758 C.ar    1  UNL1        0.0142
      8 C           2.9659   -1.1564   20.2244 C.ar    1  UNL1        0.0436
      9 C           2.7797   -0.6339   21.6180 C.ar    1  UNL1       -0.0101
     10 C           3.4835   -1.2937   22.7667 C.3     1  UNL1        0.0447
     11 C           3.2972   -0.7712   24.1603 C.3     1  UNL1        0.0782
     12 N           3.8560   -2.3387   19.9794 N.pl3   1  UNL1       -0.3049
     13 C           5.3331   -2.2271   20.2152 C.3     1  UNL1        0.1079
     14 C           6.2231   -3.4094   19.9701 C.3     1  UNL1        0.0903
     15 N           5.6360   -4.7033   19.4893 N.3     1  UNL1       -0.2946
     16 C           4.1589   -4.8148   19.2535 C.3     1  UNL1        0.0903
     17 C           3.2689   -3.6325   19.4985 C.3     1  UNL1        0.1079
     18 H           5.8780   -5.4118   20.1820 H       1  UNL1        0.1233
     19 C           4.0010   -1.4310   25.3090 C.3     1  UNL1        0.0888
     20 N           5.4986   -1.5148   25.3227 N.3     1  UNL1       -0.2667
     21 C           6.3162   -0.2851   25.5864 C.3     1  UNL1        0.0899
     22 C           6.1785   -2.8282   25.0727 C.3     1  UNL1        0.0978
     23 C           6.5147   -3.2439   23.6712 C.3     1  UNL1        0.0224
     24 C           7.1947   -4.5574   23.4212 C.3     1  UNL1        0.0065
     25 C           7.5385   -5.4551   24.5727 C.3     1  UNL1        0.0277
     26 C           7.2023   -5.0394   25.9742 C.ar    1  UNL1       -0.0073
     27 C           7.5461   -5.9371   27.1257 C.ar    1  UNL1       -0.0015
     28 C           7.2099   -5.5214   28.5271 C.ar    1  UNL1        0.0203
     29 C           6.5300   -4.2080   28.7771 C.ar    1  UNL1        0.0985
     30 N           6.1862   -3.3103   27.6256 N.ar    1  UNL1       -0.2471
     31 C           6.5223   -3.7260   26.2242 C.ar    1  UNL1        0.0695
@<TRIPOS>BOND
     1     1     2    1
     2     2     3    1
     3     3     4    1
     4     4     5   ar
     5     5     6   ar
     6     6     7   ar
     7     7     8   ar
     8     8    12    1
     9    12    13    1
    10    13    14    1
    11    14    15    1
    12    15    16    1
    13    16    17    1
    14     8     9   ar
    15     9    10    1
    16    10    11    1
    17    11    19    1
    18    19    20    1
    19    20    21    1
    20    22    20    1
    21    22    23    1
    22    23    24    1
    23    24    25    1
    24    25    26    1
    25    26    27   ar
    26    27    28   ar
    27    28    29   ar
    28    29    30   ar
    29    30    31   ar
    30    11     2    1
    31    31    22    1
    32     9     4   ar
    33    31    26   ar
    34    17    12    1
    35    15    18    1
