@<TRIPOS>MOLECULE
*****
 58 63 0 0 0
SMALL
GASTEIGER

@<TRIPOS>ATOM
      1 N           0.4954    1.7940   25.3090 N.3     1  UNL1       -0.2663
      2 C           1.3326    1.4468   26.5042 C.3     1  UNL1        0.0899
      3 C           2.6762    0.8063   26.3182 C.3     1  UNL1        0.0901
      4 N           3.1826    0.5131   24.9371 N.3     1  UNL1       -0.2621
      5 C           2.3454    0.8603   23.7418 C.3     1  UNL1        0.1510
      6 C           1.0018    1.5008   23.9278 C.3     1  UNL1        0.0980
      7 C           2.8518    0.5671   22.3607 C.2     1  UNL1        0.2386
      8 O           3.7503    1.5479   21.6674 O.2     1  UNL1       -0.2736
      9 N           2.4597   -0.7070   21.6729 N.am    1  UNL1       -0.2961
     10 H           1.8700   -1.3507   22.1279 H       1  UNL1        0.1497
     11 C           2.9661   -1.0002   20.2918 C.3     1  UNL1        0.1939
     12 C           2.3188   -0.3543   19.1028 C.3     1  UNL1        0.4154
     13 F           1.6713    0.2916   17.9138 F       1  UNL1       -0.1682
     14 F           0.9678   -0.5893   19.7107 F       1  UNL1       -0.1682
     15 F           3.6697   -0.1193   18.4949 F       1  UNL1       -0.1682
     16 C          -0.9363    1.8494   26.8733 C.3     1  UNL1        0.0238
     17 C          -0.8482    2.4345   25.4949 C.3     1  UNL1        0.0969
     18 C          -0.7600    3.0195   24.1166 C.3     1  UNL1        0.0238
     19 C          -2.1917    3.0749   25.6809 C.ar    1  UNL1        0.1355
     20 C          -2.7661    3.5581   26.9796 C.ar    1  UNL1        0.0374
     21 C          -4.1262    4.1264   26.7022 C.ar    1  UNL1        0.0403
     22 C          -4.3925    3.9946   25.2319 C.ar    1  UNL1        0.1450
     23 O          -3.1970    3.3447   24.6006 O.2     1  UNL1       -0.4565
     24 C          -5.6360    4.4353   24.5181 C.ar    1  UNL1        0.0376
     25 C          -6.5919    5.3769   25.1886 C.ar    1  UNL1        0.0237
     26 C          -7.8354    5.8175   24.4748 C.ar    1  UNL1        0.0990
     27 N          -8.1230    5.3165   23.0905 N.ar    1  UNL1       -0.2423
     28 C          -7.1671    4.3749   22.4200 C.ar    1  UNL1        0.0990
     29 C          -5.9236    3.9343   23.1338 C.ar    1  UNL1        0.0237
     30 C           4.5262   -0.1274   24.7512 C.3     1  UNL1        0.1021
     31 C           4.6955   -1.5984   24.9907 C.3     1  UNL1        0.1269
     32 O           4.6414   -2.1418   26.3878 O.3     1  UNL1       -0.3830
     33 H           4.4916   -1.4146   27.0120 H       1  UNL1        0.2104
     34 C           4.9187   -2.5260   23.8333 C.3     1  UNL1        0.0401
     35 C           6.3126   -2.9296   23.4536 C.3     1  UNL1        0.0833
     36 C           7.0762   -3.8908   24.3156 C.2     1  UNL1        0.2226
     37 O           8.5560   -4.0520   24.1302 O.2     1  UNL1       -0.2751
     38 N           6.3600   -4.6908   25.3630 N.am    1  UNL1       -0.2999
     39 H           5.3888   -4.5850   25.4847 H       1  UNL1        0.1498
     40 C           7.1236   -5.6520   26.2250 C.3     1  UNL1        0.1278
     41 C           7.1889   -5.4402   27.7085 C.ar    1  UNL1        0.0320
     42 C           6.4906   -4.2671   28.3301 C.ar    1  UNL1        0.0004
     43 C           6.5559   -4.0553   29.8136 C.ar    1  UNL1       -0.0001
     44 C           7.3194   -5.0166   30.6756 C.ar    1  UNL1        0.0031
     45 C           8.0177   -6.1896   30.0541 C.ar    1  UNL1        0.0366
     46 C           7.9525   -6.4014   28.5705 C.ar    1  UNL1        0.1362
     47 O           8.6508   -7.5745   27.9490 O.3     1  UNL1       -0.4730
     48 C           8.5855   -7.7863   26.4655 C.3     1  UNL1        0.2364
     49 C           7.8219   -6.8251   25.6035 C.3     1  UNL1        0.1762
     50 O           7.7567   -7.0369   24.1199 O.3     1  UNL1       -0.3788
     51 H           8.2572   -7.8339   23.8848 H       1  UNL1        0.2106
     52 C           6.9430   -2.3719   22.2120 C.3     1  UNL1        0.0355
     53 C           6.3581   -2.6875   20.8672 C.ar    1  UNL1       -0.0217
     54 C           6.7770   -1.8973   19.6630 C.ar    1  UNL1       -0.0043
     55 C           6.1921   -2.2130   18.3182 C.ar    1  UNL1       -0.0003
     56 C           5.1884   -3.3187   18.1778 C.ar    1  UNL1       -0.0000
     57 C           4.7695   -4.1089   19.3820 C.ar    1  UNL1       -0.0003
     58 C           5.3543   -3.7933   20.7267 C.ar    1  UNL1       -0.0043
@<TRIPOS>BOND
     1    16    17    1
     2    17    18    1
     3    17    19    1
     4    19    20   ar
     5    20    21   ar
     6    21    22   ar
     7    22    24    1
     8    24    25   ar
     9    25    26   ar
    10    26    27   ar
    11    27    28   ar
    12    28    29   ar
    13    22    23   ar
    14    17     1    1
    15     1     2    1
    16     2     3    1
    17     3     4    1
    18     4    30    1
    19    30    31    1
    20    31    32    1
    21    31    34    1
    22    35    34    1
    23    35    52    1
    24    52    53    1
    25    53    54   ar
    26    54    55   ar
    27    55    56   ar
    28    56    57   ar
    29    57    58   ar
    30    35    36    1
    31    36    37    2
    32    36    38   am
    33    40    38    1
    34    40    41    1
    35    41    42   ar
    36    42    43   ar
    37    43    44   ar
    38    44    45   ar
    39    45    46   ar
    40    46    47    1
    41    47    48    1
    42    48    49    1
    43    49    50    1
    44     4     5    1
    45     5     7    1
    46     7     8    2
    47     7     9   am
    48     9    11    1
    49    11    12    1
    50    12    13    1
    51    12    14    1
    52    12    15    1
    53     5     6    1
    54    23    19   ar
    55     6     1    1
    56    29    24   ar
    57    58    53   ar
    58    49    40    1
    59    46    41   ar
    60    32    33    1
    61    38    39    1
    62    50    51    1
    63     9    10    1
@<TRIPOS>MOLECULE
*****
 58 63 0 0 0
SMALL
GASTEIGER

@<TRIPOS>ATOM
      1 N           5.5070   -0.5023   31.5466 N.3     1  UNL1       -0.2663
      2 C           6.4600   -1.4136   30.8316 C.3     1  UNL1        0.0899
      3 C           6.1773   -1.8365   29.4204 C.3     1  UNL1        0.0901
      4 N           4.9417   -1.3481   28.7243 N.3     1  UNL1       -0.2621
      5 C           3.9886   -0.4367   29.4394 C.3     1  UNL1        0.1510
      6 C           4.2713   -0.0139   30.8505 C.3     1  UNL1        0.0980
      7 C           2.7530    0.0517   28.7433 C.2     1  UNL1        0.2386
      8 O           2.8443    1.1746   27.7529 O.2     1  UNL1       -0.2736
      9 N           1.4259   -0.5828   29.0376 N.am    1  UNL1       -0.2961
     10 H           1.3660   -1.3198   29.6876 H       1  UNL1        0.1497
     11 C           0.1903   -0.0944   28.3415 C.3     1  UNL1        0.1939
     12 C          -1.0899    0.0617   29.1074 C.3     1  UNL1        0.4154
     13 F          -2.3702    0.2177   29.8734 F       1  UNL1       -0.1682
     14 F          -1.6658   -1.1204   28.3856 F       1  UNL1       -0.1682
     15 F          -0.5140    1.2437   29.8292 F       1  UNL1       -0.1682
     16 C           5.2926    1.3005   32.6438 C.3     1  UNL1        0.0238
     17 C           5.7896   -0.0795   32.9577 C.3     1  UNL1        0.0969
     18 C           6.2867   -1.4595   33.2717 C.3     1  UNL1        0.0238
     19 C           6.0723    0.3434   34.3689 C.ar    1  UNL1        0.1355
     20 C           7.3173    0.0387   35.1480 C.ar    1  UNL1        0.0374
     21 C           7.1740    0.6522   36.5093 C.ar    1  UNL1        0.0403
     22 C           5.8405    1.3361   36.5715 C.ar    1  UNL1        0.1450
     23 O           5.1595    1.1453   35.2486 O.2     1  UNL1       -0.4565
     24 C           5.2853    2.0802   37.7497 C.ar    1  UNL1        0.0376
     25 C           6.1793    2.4383   38.8997 C.ar    1  UNL1        0.0237
     26 C           5.6241    3.1824   40.0778 C.ar    1  UNL1        0.0990
     27 N           4.1749    3.5684   40.1060 N.ar    1  UNL1       -0.2423
     28 C           3.2809    3.2102   38.9559 C.ar    1  UNL1        0.0990
     29 C           3.8361    2.4661   37.7778 C.ar    1  UNL1        0.0237
     30 C           4.6590   -1.7709   27.3132 C.3     1  UNL1        0.1021
     31 C           5.6458   -1.4634   26.2262 C.3     1  UNL1        0.1269
     32 O           6.3071   -0.1182   26.1723 O.3     1  UNL1       -0.3830
     33 H           5.9878    0.4288   26.9070 H       1  UNL1        0.2104
     34 C           5.9711   -2.5010   25.1930 C.3     1  UNL1        0.0401
     35 C           5.7683   -2.1997   23.7377 C.3     1  UNL1        0.0833
     36 C           4.8525   -1.0865   23.3227 C.2     1  UNL1        0.2226
     37 O           5.3988    0.2943   23.1102 O.2     1  UNL1       -0.2751
     38 N           3.3906   -1.3541   23.1203 N.am    1  UNL1       -0.2999
     39 H           3.0321   -2.2604   23.2597 H       1  UNL1        0.1498
     40 C           2.4748   -0.2409   22.7053 C.3     1  UNL1        0.1278
     41 C           2.2828    0.0694   21.2504 C.ar    1  UNL1        0.0320
     42 C           3.0067   -0.7334   20.2104 C.ar    1  UNL1        0.0004
     43 C           2.8148   -0.4230   18.7555 C.ar    1  UNL1       -0.0001
     44 C           1.8990    0.6902   18.3405 C.ar    1  UNL1        0.0031
     45 C           1.1751    1.4930   19.3805 C.ar    1  UNL1        0.0366
     46 C           1.3670    1.1826   20.8355 C.ar    1  UNL1        0.1362
     47 O           0.6432    1.9854   21.8754 O.3     1  UNL1       -0.4730
     48 C           0.8351    1.6750   23.3303 C.3     1  UNL1        0.2364
     49 C           1.7509    0.5618   23.7452 C.3     1  UNL1        0.1762
     50 O           1.9429    0.2515   25.2002 O.3     1  UNL1       -0.3788
     51 H           1.4071    0.8590   25.7338 H       1  UNL1        0.2106
     52 C           6.4814   -3.0116   22.6972 C.3     1  UNL1        0.0355
     53 C           5.8250   -3.2798   21.3754 C.ar    1  UNL1       -0.0217
     54 C           6.4061   -2.7030   20.1186 C.ar    1  UNL1       -0.0043
     55 C           5.7497   -2.9713   18.7968 C.ar    1  UNL1       -0.0003
     56 C           4.5121   -3.8163   18.7318 C.ar    1  UNL1       -0.0000
     57 C           3.9309   -4.3931   19.9886 C.ar    1  UNL1       -0.0003
     58 C           4.5873   -4.1249   21.3104 C.ar    1  UNL1       -0.0043
@<TRIPOS>BOND
     1    16    17    1
     2    17    18    1
     3    17    19    1
     4    19    20   ar
     5    20    21   ar
     6    21    22   ar
     7    22    24    1
     8    24    25   ar
     9    25    26   ar
    10    26    27   ar
    11    27    28   ar
    12    28    29   ar
    13    22    23   ar
    14    17     1    1
    15     1     2    1
    16     2     3    1
    17     3     4    1
    18     4    30    1
    19    30    31    1
    20    31    32    1
    21    31    34    1
    22    35    34    1
    23    35    52    1
    24    52    53    1
    25    53    54   ar
    26    54    55   ar
    27    55    56   ar
    28    56    57   ar
    29    57    58   ar
    30    35    36    1
    31    36    37    2
    32    36    38   am
    33    40    38    1
    34    40    41    1
    35    41    42   ar
    36    42    43   ar
    37    43    44   ar
    38    44    45   ar
    39    45    46   ar
    40    46    47    1
    41    47    48    1
    42    48    49    1
    43    49    50    1
    44     4     5    1
    45     5     7    1
    46     7     8    2
    47     7     9   am
    48     9    11    1
    49    11    12    1
    50    12    13    1
    51    12    14    1
    52    12    15    1
    53     5     6    1
    54    23    19   ar
    55     6     1    1
    56    29    24   ar
    57    58    53   ar
    58    49    40    1
    59    46    41   ar
    60    32    33    1
    61    38    39    1
    62    50    51    1
    63     9    10    1
@<TRIPOS>MOLECULE
*****
 58 63 0 0 0
SMALL
GASTEIGER

@<TRIPOS>ATOM
      1 N           3.7851   -0.2913   31.5110 N.3     1  UNL1       -0.2663
      2 C           4.7978   -0.9043   30.5898 C.3     1  UNL1        0.0899
      3 C           4.4568   -1.1350   29.1474 C.3     1  UNL1        0.0901
      4 N           3.1032   -0.7529   28.6263 N.3     1  UNL1       -0.2621
      5 C           2.0905   -0.1399   29.5475 C.3     1  UNL1        0.1510
      6 C           2.4314    0.0909   30.9899 C.3     1  UNL1        0.0980
      7 C           0.7368    0.2422   29.0264 C.2     1  UNL1        0.2386
      8 O          -0.4745   -0.5393   29.4410 O.2     1  UNL1       -0.2736
      9 N           0.5945    1.4059   28.0906 N.am    1  UNL1       -0.2961
     10 H           1.3896    1.9188   27.8185 H       1  UNL1        0.1497
     11 C          -0.7591    1.7881   27.5695 C.3     1  UNL1        0.1939
     12 C          -0.9381    2.1170   26.1170 C.3     1  UNL1        0.4154
     13 F          -1.1171    2.4460   24.6645 F       1  UNL1       -0.1682
     14 F          -1.8400    3.2572   26.4864 F       1  UNL1       -0.1682
     15 F          -0.0362    0.9768   25.7477 F       1  UNL1       -0.1682
     16 C           3.1600    1.0861   32.9983 C.3     1  UNL1        0.0238
     17 C           4.1261   -0.0605   32.9534 C.3     1  UNL1        0.0969
     18 C           5.0921   -1.2071   32.9085 C.3     1  UNL1        0.0238
     19 C           4.4670    0.1702   34.3958 C.ar    1  UNL1        0.1355
     20 C           5.4518   -0.6193   35.2063 C.ar    1  UNL1        0.0374
     21 C           5.4765   -0.0464   36.5924 C.ar    1  UNL1        0.0403
     22 C           4.5070    1.0972   36.6386 C.ar    1  UNL1        0.1450
     23 O           3.8830    1.2312   35.2810 O.2     1  UNL1       -0.4565
     24 C           4.2129    1.9561   37.8326 C.ar    1  UNL1        0.0376
     25 C           2.7995    2.3520   38.1419 C.ar    1  UNL1        0.0237
     26 C           2.5054    3.2110   39.3360 C.ar    1  UNL1        0.0990
     27 N           3.6247    3.6739   40.2207 N.ar    1  UNL1       -0.2423
     28 C           5.0381    3.2780   39.9114 C.ar    1  UNL1        0.0990
     29 C           5.3322    2.4191   38.7174 C.ar    1  UNL1        0.0237
     30 C           2.7623   -0.9837   27.1839 C.3     1  UNL1        0.1021
     31 C           3.6605   -0.4521   26.1065 C.3     1  UNL1        0.1269
     32 O           4.7361   -1.3237   25.5291 O.3     1  UNL1       -0.3830
     33 H           4.7142   -2.1925   25.9599 H       1  UNL1        0.2104
     34 C           3.4831    0.9509   25.6066 C.3     1  UNL1        0.0401
     35 C           3.2312    1.2017   24.1494 C.3     1  UNL1        0.0833
     36 C           3.8901    0.3381   23.1149 C.2     1  UNL1        0.2226
     37 O           5.2073    0.7471   22.5249 O.2     1  UNL1       -0.2751
     38 N           3.2320   -0.9343   22.6704 N.am    1  UNL1       -0.2999
     39 H           2.3675   -1.2027   23.0576 H       1  UNL1        0.1498
     40 C           3.8908   -1.7979   21.6359 C.3     1  UNL1        0.1278
     41 C           3.8352   -1.4090   20.1883 C.ar    1  UNL1        0.0320
     42 C           3.1207   -0.1564   19.7751 C.ar    1  UNL1        0.0004
     43 C           3.0651    0.2325   18.3275 C.ar    1  UNL1       -0.0001
     44 C           3.7240   -0.6311   17.2931 C.ar    1  UNL1        0.0031
     45 C           4.4385   -1.8835   17.7062 C.ar    1  UNL1        0.0366
     46 C           4.4941   -2.2725   19.1539 C.ar    1  UNL1        0.1362
     47 O           5.2086   -3.5250   19.5670 O.3     1  UNL1       -0.4730
     48 C           5.2642   -3.9139   21.0146 C.3     1  UNL1        0.2364
     49 C           4.6053   -3.0504   22.0491 C.3     1  UNL1        0.1762
     50 O           4.6610   -3.4393   23.4968 O.3     1  UNL1       -0.3788
     51 H           5.1564   -4.2680   23.5901 H       1  UNL1        0.2106
     52 C           2.3204    2.3161   23.7265 C.3     1  UNL1        0.0355
     53 C           1.6628    2.2768   22.3790 C.ar    1  UNL1       -0.0217
     54 C           0.5440    1.3122   22.1183 C.ar    1  UNL1       -0.0043
     55 C          -0.1137    1.2729   20.7707 C.ar    1  UNL1       -0.0003
     56 C           0.3474    2.1982   19.6839 C.ar    1  UNL1       -0.0000
     57 C           1.4661    3.1627   19.9446 C.ar    1  UNL1       -0.0003
     58 C           2.1238    3.2020   21.2921 C.ar    1  UNL1       -0.0043
@<TRIPOS>BOND
     1    16    17    1
     2    17    18    1
     3    17    19    1
     4    19    20   ar
     5    20    21   ar
     6    21    22   ar
     7    22    24    1
     8    24    25   ar
     9    25    26   ar
    10    26    27   ar
    11    27    28   ar
    12    28    29   ar
    13    22    23   ar
    14    17     1    1
    15     1     2    1
    16     2     3    1
    17     3     4    1
    18     4    30    1
    19    30    31    1
    20    31    32    1
    21    31    34    1
    22    35    34    1
    23    35    52    1
    24    52    53    1
    25    53    54   ar
    26    54    55   ar
    27    55    56   ar
    28    56    57   ar
    29    57    58   ar
    30    35    36    1
    31    36    37    2
    32    36    38   am
    33    40    38    1
    34    40    41    1
    35    41    42   ar
    36    42    43   ar
    37    43    44   ar
    38    44    45   ar
    39    45    46   ar
    40    46    47    1
    41    47    48    1
    42    48    49    1
    43    49    50    1
    44     4     5    1
    45     5     7    1
    46     7     8    2
    47     7     9   am
    48     9    11    1
    49    11    12    1
    50    12    13    1
    51    12    14    1
    52    12    15    1
    53     5     6    1
    54    23    19   ar
    55     6     1    1
    56    29    24   ar
    57    58    53   ar
    58    49    40    1
    59    46    41   ar
    60    32    33    1
    61    38    39    1
    62    50    51    1
    63     9    10    1
@<TRIPOS>MOLECULE
*****
 58 63 0 0 0
SMALL
GASTEIGER

@<TRIPOS>ATOM
      1 N           5.8499   -0.4594   31.3354 N.3     1  UNL1       -0.2663
      2 C           5.4391    0.5127   30.2695 C.3     1  UNL1        0.0899
      3 C           5.7247    0.2103   28.8283 C.3     1  UNL1        0.0901
      4 N           6.4211   -1.0642   28.4531 N.3     1  UNL1       -0.2621
      5 C           6.8319   -2.0363   29.5191 C.3     1  UNL1        0.1510
      6 C           6.5463   -1.7339   30.9603 C.3     1  UNL1        0.0980
      7 C           7.5282   -3.3108   29.1439 C.2     1  UNL1        0.2386
      8 O           9.0247   -3.3480   29.0493 O.2     1  UNL1       -0.2736
      9 N           6.7280   -4.5481   28.8632 N.am    1  UNL1       -0.2961
     10 H           5.7457   -4.5237   28.9252 H       1  UNL1        0.1497
     11 C           7.4243   -5.8226   28.4880 C.3     1  UNL1        0.1939
     12 C           7.5146   -6.2319   27.0478 C.3     1  UNL1        0.4154
     13 F           7.6050   -6.6412   25.6075 F       1  UNL1       -0.1682
     14 F           9.0103   -6.2738   27.1535 F       1  UNL1       -0.1682
     15 F           6.0190   -6.1899   26.9420 F       1  UNL1       -0.1682
     16 C           4.1088   -0.4379   32.5471 C.3     1  UNL1        0.0238
     17 C           5.5643   -0.1570   32.7766 C.3     1  UNL1        0.0969
     18 C           7.0198    0.1238   33.0061 C.3     1  UNL1        0.0238
     19 C           5.2787    0.1454   34.2178 C.ar    1  UNL1        0.1355
     20 C           6.1770   -0.1643   35.3785 C.ar    1  UNL1        0.0374
     21 C           5.4981    0.3094   36.6294 C.ar    1  UNL1        0.0403
     22 C           4.1803    0.9120   36.2418 C.ar    1  UNL1        0.1450
     23 O           4.0446    0.8106   34.7514 O.2     1  UNL1       -0.4565
     24 C           3.1746    1.5107   37.1799 C.ar    1  UNL1        0.0376
     25 C           2.5961    0.6818   38.2881 C.ar    1  UNL1        0.0237
     26 C           1.5904    1.2806   39.2262 C.ar    1  UNL1        0.0990
     27 N           1.1632    2.7083   39.0561 N.ar    1  UNL1       -0.2423
     28 C           1.7417    3.5373   37.9478 C.ar    1  UNL1        0.0990
     29 C           2.7474    2.9385   37.0097 C.ar    1  UNL1        0.0237
     30 C           6.7067   -1.3666   27.0119 C.3     1  UNL1        0.1021
     31 C           5.7305   -2.1721   26.2069 C.3     1  UNL1        0.1269
     32 O           4.2691   -2.1331   26.5425 O.3     1  UNL1       -0.3830
     33 H           4.1269   -1.5438   27.2997 H       1  UNL1        0.2104
     34 C           6.2158   -3.0168   25.0662 C.3     1  UNL1        0.0401
     35 C           5.9506   -2.5918   23.6524 C.3     1  UNL1        0.0833
     36 C           5.0493   -1.4249   23.3765 C.2     1  UNL1        0.2226
     37 O           5.6369   -0.0854   23.0443 O.2     1  UNL1       -0.2751
     38 N           3.5603   -1.5977   23.4328 N.am    1  UNL1       -0.2999
     39 H           3.1747   -2.4769   23.6509 H       1  UNL1        0.1498
     40 C           2.6590   -0.4309   23.1569 C.3     1  UNL1        0.1278
     41 C           2.2887   -0.0866   21.7447 C.ar    1  UNL1        0.0320
     42 C           2.8199   -0.9092   20.6083 C.ar    1  UNL1        0.0004
     43 C           2.4496   -0.5649   19.1961 C.ar    1  UNL1       -0.0001
     44 C           1.5483    0.6019   18.9202 C.ar    1  UNL1        0.0031
     45 C           1.0171    1.4244   20.0566 C.ar    1  UNL1        0.0366
     46 C           1.3874    1.0802   21.4689 C.ar    1  UNL1        0.1362
     47 O           0.8562    1.9028   22.6052 O.3     1  UNL1       -0.4730
     48 C           1.2265    1.5585   24.0174 C.3     1  UNL1        0.2364
     49 C           2.1278    0.3917   24.2933 C.3     1  UNL1        0.1762
     50 O           2.4981    0.0474   25.7056 O.3     1  UNL1       -0.3788
     51 H           2.0736    0.6735   26.3129 H       1  UNL1        0.2106
     52 C           6.5868   -3.3335   22.5143 C.3     1  UNL1        0.0355
     53 C           5.8603   -3.4711   21.2093 C.ar    1  UNL1       -0.0217
     54 C           6.4228   -2.8442   19.9681 C.ar    1  UNL1       -0.0043
     55 C           5.6962   -2.9817   18.6630 C.ar    1  UNL1       -0.0003
     56 C           4.4072   -3.7461   18.5991 C.ar    1  UNL1       -0.0000
     57 C           3.8447   -4.3730   19.8403 C.ar    1  UNL1       -0.0003
     58 C           4.5712   -4.2355   21.1454 C.ar    1  UNL1       -0.0043
@<TRIPOS>BOND
     1    16    17    1
     2    17    18    1
     3    17    19    1
     4    19    20   ar
     5    20    21   ar
     6    21    22   ar
     7    22    24    1
     8    24    25   ar
     9    25    26   ar
    10    26    27   ar
    11    27    28   ar
    12    28    29   ar
    13    22    23   ar
    14    17     1    1
    15     1     2    1
    16     2     3    1
    17     3     4    1
    18     4    30    1
    19    30    31    1
    20    31    32    1
    21    31    34    1
    22    35    34    1
    23    35    52    1
    24    52    53    1
    25    53    54   ar
    26    54    55   ar
    27    55    56   ar
    28    56    57   ar
    29    57    58   ar
    30    35    36    1
    31    36    37    2
    32    36    38   am
    33    40    38    1
    34    40    41    1
    35    41    42   ar
    36    42    43   ar
    37    43    44   ar
    38    44    45   ar
    39    45    46   ar
    40    46    47    1
    41    47    48    1
    42    48    49    1
    43    49    50    1
    44     4     5    1
    45     5     7    1
    46     7     8    2
    47     7     9   am
    48     9    11    1
    49    11    12    1
    50    12    13    1
    51    12    14    1
    52    12    15    1
    53     5     6    1
    54    23    19   ar
    55     6     1    1
    56    29    24   ar
    57    58    53   ar
    58    49    40    1
    59    46    41   ar
    60    32    33    1
    61    38    39    1
    62    50    51    1
    63     9    10    1
@<TRIPOS>MOLECULE
*****
 58 63 0 0 0
SMALL
GASTEIGER

@<TRIPOS>ATOM
      1 N           4.2722    0.6834   30.8538 N.3     1  UNL1       -0.2663
      2 C           5.3668    0.1932   29.9530 C.3     1  UNL1        0.0899
      3 C           5.2026    0.2681   28.4639 C.3     1  UNL1        0.0901
      4 N           3.9439    0.8333   27.8756 N.3     1  UNL1       -0.2621
      5 C           2.8493    1.3236   28.7764 C.3     1  UNL1        0.1510
      6 C           3.0134    1.2486   30.2655 C.3     1  UNL1        0.0980
      7 C           1.5905    1.8887   28.1881 C.2     1  UNL1        0.2386
      8 O           1.4627    3.3672   27.9698 O.2     1  UNL1       -0.2736
      9 N           0.4596    0.9754   27.8181 N.am    1  UNL1       -0.2961
     10 H           0.5435    0.0050   27.9614 H       1  UNL1        0.1497
     11 C          -0.7991    1.5406   27.2298 C.3     1  UNL1        0.1939
     12 C          -0.8067    2.0430   25.8165 C.3     1  UNL1        0.4154
     13 F          -0.8142    2.5454   24.4031 F       1  UNL1       -0.1682
     14 F          -0.2377    0.7363   25.3489 F       1  UNL1       -0.1682
     15 F          -1.3757    3.3497   26.2841 F       1  UNL1       -0.1682
     16 C           5.2779    1.8498   32.3126 C.3     1  UNL1        0.0238
     17 C           4.4363    0.6085   32.3429 C.3     1  UNL1        0.0969
     18 C           3.5948   -0.6329   32.3732 C.3     1  UNL1        0.0238
     19 C           4.6005    0.5335   33.8320 C.ar    1  UNL1        0.1355
     20 C           5.1186   -0.6437   34.6038 C.ar    1  UNL1        0.0374
     21 C           5.1136   -0.2821   36.0596 C.ar    1  UNL1        0.0403
     22 C           4.5925    1.1186   36.1875 C.ar    1  UNL1        0.1450
     23 O           4.2753    1.6228   34.8108 O.2     1  UNL1       -0.4565
     24 C           4.4190    1.8813   37.4674 C.ar    1  UNL1        0.0376
     25 C           3.0661    2.4026   37.8524 C.ar    1  UNL1        0.0237
     26 C           2.8926    3.1653   39.1323 C.ar    1  UNL1        0.0990
     27 N           4.0719    3.4068   40.0272 N.ar    1  UNL1       -0.2423
     28 C           5.4248    2.8856   39.6422 C.ar    1  UNL1        0.0990
     29 C           5.5983    2.1228   38.3623 C.ar    1  UNL1        0.0237
     30 C           3.7798    0.9082   26.3865 C.3     1  UNL1        0.1021
     31 C           3.4105   -0.3208   25.6099 C.3     1  UNL1        0.1269
     32 O           3.4161   -1.6621   26.2813 O.3     1  UNL1       -0.3830
     33 H           3.6793   -1.5581   27.2091 H       1  UNL1        0.2104
     34 C           3.0357   -0.2085   24.1618 C.3     1  UNL1        0.0401
     35 C           3.7283   -1.0601   23.1396 C.3     1  UNL1        0.0833
     36 C           5.0364   -1.7151   23.4709 C.2     1  UNL1        0.2226
     37 O           6.3179   -0.9506   23.3177 O.2     1  UNL1       -0.2751
     38 N           5.0630   -3.1343   23.9555 N.am    1  UNL1       -0.2999
     39 H           4.2219   -3.6360   24.0561 H       1  UNL1        0.1498
     40 C           6.3711   -3.7893   24.2869 C.3     1  UNL1        0.1278
     41 C           7.2993   -4.2100   23.1863 C.ar    1  UNL1        0.0320
     42 C           6.9194   -3.9758   21.7542 C.ar    1  UNL1        0.0004
     43 C           7.8476   -4.3966   20.6536 C.ar    1  UNL1       -0.0001
     44 C           9.1557   -5.0515   20.9850 C.ar    1  UNL1        0.0031
     45 C           9.5356   -5.2858   22.4170 C.ar    1  UNL1        0.0366
     46 C           8.6074   -4.8650   23.5177 C.ar    1  UNL1        0.1362
     47 O           8.9874   -5.0992   24.9497 O.3     1  UNL1       -0.4730
     48 C           8.0592   -4.6785   26.0503 C.3     1  UNL1        0.2364
     49 C           6.7511   -4.0235   25.7189 C.3     1  UNL1        0.1762
     50 O           5.8229   -3.6028   26.8197 O.3     1  UNL1       -0.3788
     51 H           6.2170   -3.8251   27.6776 H       1  UNL1        0.2106
     52 C           3.1127   -1.2568   21.7858 C.3     1  UNL1        0.0355
     53 C           3.9562   -1.7327   20.6404 C.ar    1  UNL1       -0.0217
     54 C           3.7498   -3.1077   20.0776 C.ar    1  UNL1       -0.0043
     55 C           4.5933   -3.5837   18.9321 C.ar    1  UNL1       -0.0003
     56 C           5.6431   -2.6846   18.3495 C.ar    1  UNL1       -0.0000
     57 C           5.8495   -1.3095   18.9123 C.ar    1  UNL1       -0.0003
     58 C           5.0060   -0.8336   20.0577 C.ar    1  UNL1       -0.0043
@<TRIPOS>BOND
     1    16    17    1
     2    17    18    1
     3    17    19    1
     4    19    20   ar
     5    20    21   ar
     6    21    22   ar
     7    22    24    1
     8    24    25   ar
     9    25    26   ar
    10    26    27   ar
    11    27    28   ar
    12    28    29   ar
    13    22    23   ar
    14    17     1    1
    15     1     2    1
    16     2     3    1
    17     3     4    1
    18     4    30    1
    19    30    31    1
    20    31    32    1
    21    31    34    1
    22    35    34    1
    23    35    52    1
    24    52    53    1
    25    53    54   ar
    26    54    55   ar
    27    55    56   ar
    28    56    57   ar
    29    57    58   ar
    30    35    36    1
    31    36    37    2
    32    36    38   am
    33    40    38    1
    34    40    41    1
    35    41    42   ar
    36    42    43   ar
    37    43    44   ar
    38    44    45   ar
    39    45    46   ar
    40    46    47    1
    41    47    48    1
    42    48    49    1
    43    49    50    1
    44     4     5    1
    45     5     7    1
    46     7     8    2
    47     7     9   am
    48     9    11    1
    49    11    12    1
    50    12    13    1
    51    12    14    1
    52    12    15    1
    53     5     6    1
    54    23    19   ar
    55     6     1    1
    56    29    24   ar
    57    58    53   ar
    58    49    40    1
    59    46    41   ar
    60    32    33    1
    61    38    39    1
    62    50    51    1
    63     9    10    1
@<TRIPOS>MOLECULE
*****
 58 63 0 0 0
SMALL
GASTEIGER

@<TRIPOS>ATOM
      1 N           4.6237   -1.1586   28.8578 N.3     1  UNL1       -0.2663
      2 C           3.9489   -0.3256   29.9069 C.3     1  UNL1        0.0899
      3 C           4.3124   -0.5002   31.3517 C.3     1  UNL1        0.0901
      4 N           5.3508   -1.5077   31.7473 N.3     1  UNL1       -0.2621
      5 C           6.0257   -2.3408   30.6981 C.3     1  UNL1        0.1510
      6 C           5.6621   -2.1662   29.2534 C.3     1  UNL1        0.0980
      7 C           7.0640   -3.3483   31.0938 C.2     1  UNL1        0.2386
      8 O           8.4075   -2.8900   31.5785 O.2     1  UNL1       -0.2736
      9 N           6.7590   -4.8143   31.0047 N.am    1  UNL1       -0.2961
     10 H           5.8772   -5.1152   30.6865 H       1  UNL1        0.1497
     11 C           7.7973   -5.8219   31.4003 C.3     1  UNL1        0.1939
     12 C           8.4604   -6.6663   30.3529 C.3     1  UNL1        0.4154
     13 F           9.1234   -7.5108   29.3053 F       1  UNL1       -0.1682
     14 F           7.5208   -6.1211   29.3185 F       1  UNL1       -0.1682
     15 F           9.3999   -7.2116   31.3872 F       1  UNL1       -0.1682
     16 C           3.2491    0.0568   27.7932 C.3     1  UNL1        0.0238
     17 C           4.2601   -0.9840   27.4130 C.3     1  UNL1        0.0969
     18 C           5.2712   -2.0248   27.0328 C.3     1  UNL1        0.0238
     19 C           3.8966   -0.8094   25.9683 C.ar    1  UNL1        0.1355
     20 C           3.1950    0.3750   25.3725 C.ar    1  UNL1        0.0374
     21 C           3.0356    0.1279   23.9016 C.ar    1  UNL1        0.0403
     22 C           3.6386   -1.2094   23.5883 C.ar    1  UNL1        0.1450
     23 O           4.1707   -1.7887   24.8655 O.2     1  UNL1       -0.4565
     24 C           3.6989   -1.8542   22.2353 C.ar    1  UNL1        0.0376
     25 C           3.0293   -1.2010   21.0627 C.ar    1  UNL1        0.0237
     26 C           3.0896   -1.8458   19.7097 C.ar    1  UNL1        0.0990
     27 N           3.8195   -3.1438   19.5293 N.ar    1  UNL1       -0.2423
     28 C           4.4891   -3.7969   20.7020 C.ar    1  UNL1        0.0990
     29 C           4.4288   -3.1521   22.0550 C.ar    1  UNL1        0.0237
     30 C           5.7144   -1.6823   33.1921 C.3     1  UNL1        0.1021
     31 C           5.6946   -0.5026   34.1183 C.3     1  UNL1        0.1269
     32 O           6.7255    0.5779   33.9785 O.3     1  UNL1       -0.3830
     33 H           7.3245    0.3607   33.2472 H       1  UNL1        0.2104
     34 C           4.6439   -0.4035   35.1842 C.3     1  UNL1        0.0401
     35 C           4.1594    0.9420   35.6369 C.3     1  UNL1        0.0833
     36 C           3.5749    1.9019   34.6435 C.2     1  UNL1        0.2226
     37 O           4.4781    2.6955   33.7465 O.2     1  UNL1       -0.2751
     38 N           2.0873    2.0682   34.5470 N.am    1  UNL1       -0.2999
     39 H           1.4946    1.5473   35.1357 H       1  UNL1        0.1498
     40 C           1.5028    3.0281   33.5536 C.3     1  UNL1        0.1278
     41 C           1.2089    4.4418   33.9600 C.ar    1  UNL1        0.0320
     42 C           1.4996    4.8956   35.3599 C.ar    1  UNL1        0.0004
     43 C           1.2057    6.3092   35.7663 C.ar    1  UNL1       -0.0001
     44 C           0.6212    7.2691   34.7729 C.ar    1  UNL1        0.0031
     45 C           0.3306    6.8154   33.3730 C.ar    1  UNL1        0.0366
     46 C           0.6244    5.4017   32.9665 C.ar    1  UNL1        0.1362
     47 O           0.3338    4.9480   31.5667 O.3     1  UNL1       -0.4730
     48 C           0.6277    3.5343   31.1603 C.3     1  UNL1        0.2364
     49 C           1.2122    2.5744   32.1537 C.3     1  UNL1        0.1762
     50 O           1.5060    1.1607   31.7472 O.3     1  UNL1       -0.3788
     51 H           1.2613    1.0342   30.8172 H       1  UNL1        0.2106
     52 C           4.2594    1.3276   37.0831 C.3     1  UNL1        0.0355
     53 C           3.0151    1.4767   37.9073 C.ar    1  UNL1       -0.0217
     54 C           2.4521    0.2929   38.6365 C.ar    1  UNL1       -0.0043
     55 C           1.2077    0.4420   39.4607 C.ar    1  UNL1       -0.0003
     56 C           0.5264    1.7749   39.5558 C.ar    1  UNL1       -0.0000
     57 C           1.0893    2.9587   38.8266 C.ar    1  UNL1       -0.0003
     58 C           2.3336    2.8096   38.0024 C.ar    1  UNL1       -0.0043
@<TRIPOS>BOND
     1    16    17    1
     2    17    18    1
     3    17    19    1
     4    19    20   ar
     5    20    21   ar
     6    21    22   ar
     7    22    24    1
     8    24    25   ar
     9    25    26   ar
    10    26    27   ar
    11    27    28   ar
    12    28    29   ar
    13    22    23   ar
    14    17     1    1
    15     1     2    1
    16     2     3    1
    17     3     4    1
    18     4    30    1
    19    30    31    1
    20    31    32    1
    21    31    34    1
    22    35    34    1
    23    35    52    1
    24    52    53    1
    25    53    54   ar
    26    54    55   ar
    27    55    56   ar
    28    56    57   ar
    29    57    58   ar
    30    35    36    1
    31    36    37    2
    32    36    38   am
    33    40    38    1
    34    40    41    1
    35    41    42   ar
    36    42    43   ar
    37    43    44   ar
    38    44    45   ar
    39    45    46   ar
    40    46    47    1
    41    47    48    1
    42    48    49    1
    43    49    50    1
    44     4     5    1
    45     5     7    1
    46     7     8    2
    47     7     9   am
    48     9    11    1
    49    11    12    1
    50    12    13    1
    51    12    14    1
    52    12    15    1
    53     5     6    1
    54    23    19   ar
    55     6     1    1
    56    29    24   ar
    57    58    53   ar
    58    49    40    1
    59    46    41   ar
    60    32    33    1
    61    38    39    1
    62    50    51    1
    63     9    10    1
@<TRIPOS>MOLECULE
*****
 58 63 0 0 0
SMALL
GASTEIGER

@<TRIPOS>ATOM
      1 N           0.3596    1.7367   24.0393 N.3     1  UNL1       -0.2663
      2 C           1.3574    1.0021   23.1940 C.3     1  UNL1        0.0899
      3 C           1.3416    1.1649   21.7029 C.3     1  UNL1        0.0901
      4 N           0.3278    2.0623   21.0572 N.3     1  UNL1       -0.2621
      5 C          -0.6701    2.7970   21.9025 C.3     1  UNL1        0.1510
      6 C          -0.6542    2.6342   23.3936 C.3     1  UNL1        0.0980
      7 C          -1.6838    3.6943   21.2568 C.2     1  UNL1        0.2386
      8 O          -1.3133    5.0998   20.8862 O.2     1  UNL1       -0.2736
      9 N          -3.0681    3.1862   20.9816 N.am    1  UNL1       -0.2961
     10 H          -3.3113    2.2638   21.2248 H       1  UNL1        0.1497
     11 C          -4.0818    4.0836   20.3358 C.3     1  UNL1        0.1939
     12 C          -5.1816    3.4953   19.5026 C.3     1  UNL1        0.4154
     13 F          -6.2815    2.9069   18.6694 F       1  UNL1       -0.1682
     14 F          -6.1297    3.6330   20.6568 F       1  UNL1       -0.1682
     15 F          -4.2335    3.3576   18.3485 F       1  UNL1       -0.1682
     16 C           1.7190    0.9124   25.4438 C.3     1  UNL1        0.0238
     17 C           0.3755    1.5740   25.5303 C.3     1  UNL1        0.0969
     18 C          -0.9679    2.2355   25.6169 C.3     1  UNL1        0.0238
     19 C           0.3914    1.4112   27.0214 C.ar    1  UNL1        0.1355
     20 C          -0.7682    1.6378   27.9455 C.ar    1  UNL1        0.0374
     21 C          -0.3066    1.3599   29.3454 C.ar    1  UNL1        0.0403
     22 C           1.1383    0.9616   29.2865 C.ar    1  UNL1        0.1450
     23 O           1.5698    0.9933   27.8502 O.2     1  UNL1       -0.4565
     24 C           2.0005    0.5957   30.4581 C.ar    1  UNL1        0.0376
     25 C           2.8357   -0.6495   30.4150 C.ar    1  UNL1        0.0237
     26 C           3.6979   -1.0153   31.5866 C.ar    1  UNL1        0.0990
     27 N           3.7249   -0.1359   32.8015 N.ar    1  UNL1       -0.2423
     28 C           2.8897    1.1093   32.8447 C.ar    1  UNL1        0.0990
     29 C           2.0275    1.4751   31.6730 C.ar    1  UNL1        0.0237
     30 C           0.3119    2.2250   19.5661 C.3     1  UNL1        0.1021
     31 C           1.2145    3.2285   18.9115 C.3     1  UNL1        0.1269
     32 O           0.7877    4.6623   18.8026 O.3     1  UNL1       -0.3830
     33 H          -0.0899    4.7697   19.2016 H       1  UNL1        0.2104
     34 C           2.5438    2.7980   18.3659 C.3     1  UNL1        0.0401
     35 C           3.7052    2.5957   19.2933 C.3     1  UNL1        0.0833
     36 C           4.3459    1.2444   19.4092 C.2     1  UNL1        0.2226
     37 O           5.8299    1.1315   19.5965 O.2     1  UNL1       -0.2751
     38 N           3.5026    0.0060   19.3378 N.am    1  UNL1       -0.2999
     39 H           2.5286    0.0801   19.2149 H       1  UNL1        0.1498
     40 C           4.1433   -1.3454   19.4538 C.3     1  UNL1        0.1278
     41 C           4.4135   -1.9337   20.8069 C.ar    1  UNL1        0.0320
     42 C           4.0430   -1.1706   22.0441 C.ar    1  UNL1        0.0004
     43 C           4.3133   -1.7589   23.3971 C.ar    1  UNL1       -0.0001
     44 C           4.9539   -3.1103   23.5131 C.ar    1  UNL1        0.0031
     45 C           5.3244   -3.8733   22.2760 C.ar    1  UNL1        0.0366
     46 C           5.0541   -3.2850   20.9228 C.ar    1  UNL1        0.1362
     47 O           5.4246   -4.0480   19.6857 O.3     1  UNL1       -0.4730
     48 C           5.1544   -3.4597   18.3326 C.3     1  UNL1        0.2364
     49 C           4.5137   -2.1084   18.2167 C.3     1  UNL1        0.1762
     50 O           4.2435   -1.5201   16.8635 O.3     1  UNL1       -0.3788
     51 H           4.5412   -2.1376   16.1772 H       1  UNL1        0.2106
     52 C           4.2261    3.7448   20.1047 C.3     1  UNL1        0.0355
     53 C           3.8471    3.8749   21.5502 C.ar    1  UNL1       -0.0217
     54 C           4.6288    3.1414   22.5994 C.ar    1  UNL1       -0.0043
     55 C           4.2497    3.2715   24.0450 C.ar    1  UNL1       -0.0003
     56 C           3.0891    4.1351   24.4412 C.ar    1  UNL1       -0.0000
     57 C           2.3074    4.8686   23.3919 C.ar    1  UNL1       -0.0003
     58 C           2.6864    4.7385   21.9464 C.ar    1  UNL1       -0.0043
@<TRIPOS>BOND
     1    16    17    1
     2    17    18    1
     3    17    19    1
     4    19    20   ar
     5    20    21   ar
     6    21    22   ar
     7    22    24    1
     8    24    25   ar
     9    25    26   ar
    10    26    27   ar
    11    27    28   ar
    12    28    29   ar
    13    22    23   ar
    14    17     1    1
    15     1     2    1
    16     2     3    1
    17     3     4    1
    18     4    30    1
    19    30    31    1
    20    31    32    1
    21    31    34    1
    22    35    34    1
    23    35    52    1
    24    52    53    1
    25    53    54   ar
    26    54    55   ar
    27    55    56   ar
    28    56    57   ar
    29    57    58   ar
    30    35    36    1
    31    36    37    2
    32    36    38   am
    33    40    38    1
    34    40    41    1
    35    41    42   ar
    36    42    43   ar
    37    43    44   ar
    38    44    45   ar
    39    45    46   ar
    40    46    47    1
    41    47    48    1
    42    48    49    1
    43    49    50    1
    44     4     5    1
    45     5     7    1
    46     7     8    2
    47     7     9   am
    48     9    11    1
    49    11    12    1
    50    12    13    1
    51    12    14    1
    52    12    15    1
    53     5     6    1
    54    23    19   ar
    55     6     1    1
    56    29    24   ar
    57    58    53   ar
    58    49    40    1
    59    46    41   ar
    60    32    33    1
    61    38    39    1
    62    50    51    1
    63     9    10    1
@<TRIPOS>MOLECULE
*****
 58 63 0 0 0
SMALL
GASTEIGER

@<TRIPOS>ATOM
      1 N           1.8097    2.3448   18.8333 N.3     1  UNL1       -0.2663
      2 C           2.9492    3.2620   19.1649 C.3     1  UNL1        0.0899
      3 C           4.3627    2.7721   19.0551 C.3     1  UNL1        0.0901
      4 N           4.6367    1.3650   18.6137 N.3     1  UNL1       -0.2621
      5 C           3.4971    0.4476   18.2821 C.3     1  UNL1        0.1510
      6 C           2.0836    0.9375   18.3919 C.3     1  UNL1        0.0980
      7 C           3.7710   -0.9595   17.8407 C.2     1  UNL1        0.2386
      8 O           3.9525   -1.2667   16.3838 O.2     1  UNL1       -0.2736
      9 N           3.8635   -2.0596   18.8563 N.am    1  UNL1       -0.2961
     10 H           3.7444   -1.8580   19.8126 H       1  UNL1        0.1497
     11 C           4.1374   -3.4667   18.4150 C.3     1  UNL1        0.1939
     12 C           3.7505   -4.6177   19.2956 C.3     1  UNL1        0.4154
     13 F           3.3635   -5.7687   20.1762 F       1  UNL1       -0.1682
     14 F           2.3895   -4.6423   18.6654 F       1  UNL1       -0.1682
     15 F           5.1114   -4.5930   19.9258 F       1  UNL1       -0.1682
     16 C           0.1354    1.8379   20.0333 C.3     1  UNL1        0.0238
     17 C           0.3962    2.8346   18.9431 C.3     1  UNL1        0.0969
     18 C           0.6570    3.8314   17.8529 C.3     1  UNL1        0.0238
     19 C          -1.0173    3.3245   19.0529 C.ar    1  UNL1        0.1355
     20 C          -1.7934    4.0258   17.9778 C.ar    1  UNL1        0.0374
     21 C          -3.1586    4.3339   18.5175 C.ar    1  UNL1        0.0403
     22 C          -3.2263    3.8229   19.9261 C.ar    1  UNL1        0.1450
     23 O          -1.9029    3.1991   20.2571 O.2     1  UNL1       -0.4565
     24 C          -4.4096    3.9189   20.8430 C.ar    1  UNL1        0.0376
     25 C          -4.3299    3.3576   22.2317 C.ar    1  UNL1        0.0237
     26 C          -5.5132    3.4536   23.1486 C.ar    1  UNL1        0.0990
     27 N          -6.7762    4.1109   22.6766 N.ar    1  UNL1       -0.2423
     28 C          -6.8559    4.6721   21.2879 C.ar    1  UNL1        0.0990
     29 C          -5.6726    4.5761   20.3710 C.ar    1  UNL1        0.0237
     30 C           6.0502    0.8751   18.5039 C.3     1  UNL1        0.1021
     31 C           6.7617    0.3592   19.7195 C.3     1  UNL1        0.1269
     32 O           7.0635    1.2845   20.8608 O.3     1  UNL1       -0.3830
     33 H           6.7339    2.1727   20.6529 H       1  UNL1        0.2104
     34 C           7.1714   -1.0818   19.7936 C.3     1  UNL1        0.0401
     35 C           6.8871   -1.8796   21.0316 C.3     1  UNL1        0.0833
     36 C           5.7145   -1.5273   21.8981 C.2     1  UNL1        0.2226
     37 O           4.4118   -2.2513   21.7279 O.2     1  UNL1       -0.2751
     38 N           5.8445   -0.4510   22.9348 N.am    1  UNL1       -0.2999
     39 H           6.6994    0.0241   23.0465 H       1  UNL1        0.1498
     40 C           4.6718   -0.0987   23.8013 C.3     1  UNL1        0.1278
     41 C           4.6092   -0.5934   25.2159 C.ar    1  UNL1        0.0320
     42 C           5.7191   -1.4405   25.7642 C.ar    1  UNL1        0.0004
     43 C           5.6565   -1.9352   27.1788 C.ar    1  UNL1       -0.0001
     44 C           4.4838   -1.5828   28.0453 C.ar    1  UNL1        0.0031
     45 C           3.3739   -0.7358   27.4971 C.ar    1  UNL1        0.0366
     46 C           3.4365   -0.2411   26.0824 C.ar    1  UNL1        0.1362
     47 O           2.3266    0.6059   25.5343 O.3     1  UNL1       -0.4730
     48 C           2.3892    1.1006   24.1196 C.3     1  UNL1        0.2364
     49 C           3.5619    0.7483   23.2531 C.3     1  UNL1        0.1762
     50 O           3.6245    1.2430   21.8384 O.3     1  UNL1       -0.3788
     51 H           2.8345    1.7718   21.6455 H       1  UNL1        0.2106
     52 C           7.7755   -3.0298   21.4032 C.3     1  UNL1        0.0355
     53 C           7.9354   -3.4193   22.8428 C.ar    1  UNL1       -0.0217
     54 C           8.8230   -2.6128   23.7438 C.ar    1  UNL1       -0.0043
     55 C           8.9830   -3.0024   25.1836 C.ar    1  UNL1       -0.0003
     56 C           8.2553   -4.1984   25.7222 C.ar    1  UNL1       -0.0000
     57 C           7.3677   -5.0048   24.8212 C.ar    1  UNL1       -0.0003
     58 C           7.2078   -4.6153   23.3815 C.ar    1  UNL1       -0.0043
@<TRIPOS>BOND
     1    16    17    1
     2    17    18    1
     3    17    19    1
     4    19    20   ar
     5    20    21   ar
     6    21    22   ar
     7    22    24    1
     8    24    25   ar
     9    25    26   ar
    10    26    27   ar
    11    27    28   ar
    12    28    29   ar
    13    22    23   ar
    14    17     1    1
    15     1     2    1
    16     2     3    1
    17     3     4    1
    18     4    30    1
    19    30    31    1
    20    31    32    1
    21    31    34    1
    22    35    34    1
    23    35    52    1
    24    52    53    1
    25    53    54   ar
    26    54    55   ar
    27    55    56   ar
    28    56    57   ar
    29    57    58   ar
    30    35    36    1
    31    36    37    2
    32    36    38   am
    33    40    38    1
    34    40    41    1
    35    41    42   ar
    36    42    43   ar
    37    43    44   ar
    38    44    45   ar
    39    45    46   ar
    40    46    47    1
    41    47    48    1
    42    48    49    1
    43    49    50    1
    44     4     5    1
    45     5     7    1
    46     7     8    2
    47     7     9   am
    48     9    11    1
    49    11    12    1
    50    12    13    1
    51    12    14    1
    52    12    15    1
    53     5     6    1
    54    23    19   ar
    55     6     1    1
    56    29    24   ar
    57    58    53   ar
    58    49    40    1
    59    46    41   ar
    60    32    33    1
    61    38    39    1
    62    50    51    1
    63     9    10    1
@<TRIPOS>MOLECULE
*****
 58 63 0 0 0
SMALL
GASTEIGER

@<TRIPOS>ATOM
      1 N           4.9970   -1.7388   26.6225 N.3     1  UNL1       -0.2663
      2 C           4.5674   -0.9411   27.8179 C.3     1  UNL1        0.0899
      3 C           5.1085   -1.2753   29.1764 C.3     1  UNL1        0.0901
      4 N           6.0792   -2.4072   29.3395 N.3     1  UNL1       -0.2621
      5 C           6.5088   -3.2049   28.1440 C.3     1  UNL1        0.1510
      6 C           5.9677   -2.8707   26.7855 C.3     1  UNL1        0.0980
      7 C           7.4795   -4.3367   28.3071 C.2     1  UNL1        0.2386
      8 O           8.9305   -4.0503   28.5573 O.2     1  UNL1       -0.2736
      9 N           6.9992   -5.7552   28.2200 N.am    1  UNL1       -0.2961
     10 H           6.0469   -5.9432   28.0557 H       1  UNL1        0.1497
     11 C           7.9699   -6.8870   28.3830 C.3     1  UNL1        0.1939
     12 C           8.3403   -7.7335   27.2014 C.3     1  UNL1        0.4154
     13 F           8.7106   -8.5800   26.0198 F       1  UNL1       -0.1682
     14 F           8.6950   -6.4984   26.4278 F       1  UNL1       -0.1682
     15 F           7.9855   -8.9686   27.9751 F       1  UNL1       -0.1682
     16 C           3.5060   -0.4231   25.8837 C.3     1  UNL1        0.0238
     17 C           4.4559   -1.4046   25.2639 C.3     1  UNL1        0.0969
     18 C           5.4058   -2.3862   24.6441 C.3     1  UNL1        0.0238
     19 C           3.9148   -1.0705   23.9054 C.ar    1  UNL1        0.1355
     20 C           2.6642   -0.2925   23.6214 C.ar    1  UNL1        0.0374
     21 C           2.5058   -0.1968   22.1328 C.ar    1  UNL1        0.0403
     22 C           3.6585   -0.9157   21.4969 C.ar    1  UNL1        0.1450
     23 O           4.5294   -1.4556   22.5924 O.2     1  UNL1       -0.4565
     24 C           3.8984   -1.0679   20.0240 C.ar    1  UNL1        0.0376
     25 C           3.1856   -0.1751   19.0519 C.ar    1  UNL1        0.0237
     26 C           3.4255   -0.3273   17.5790 C.ar    1  UNL1        0.0990
     27 N           4.3781   -1.3722   17.0783 N.ar    1  UNL1       -0.2423
     28 C           5.0908   -2.2650   18.0505 C.ar    1  UNL1        0.0990
     29 C           4.8509   -2.1128   19.5233 C.ar    1  UNL1        0.0237
     30 C           6.6203   -2.7413   30.6980 C.3     1  UNL1        0.1021
     31 C           6.7463   -1.6694   31.7396 C.3     1  UNL1        0.1269
     32 O           7.8178   -0.6269   31.6171 O.3     1  UNL1       -0.3830
     33 H           8.3372   -0.7899   30.8142 H       1  UNL1        0.2104
     34 C           5.8008   -1.6399   32.9037 C.3     1  UNL1        0.0401
     35 C           5.5832   -0.3635   33.6610 C.3     1  UNL1        0.0833
     36 C           4.6485    0.6785   33.1218 C.2     1  UNL1        0.2226
     37 O           5.1870    1.8266   32.3206 O.2     1  UNL1       -0.2751
     38 N           3.1754    0.5724   33.3838 N.am    1  UNL1       -0.2999
     39 H           2.8220   -0.1812   33.9097 H       1  UNL1        0.1498
     40 C           2.2408    1.6143   32.8447 C.3     1  UNL1        0.1278
     41 C           1.9040    2.8197   33.6714 C.ar    1  UNL1        0.0320
     42 C           2.5019    2.9832   35.0374 C.ar    1  UNL1        0.0004
     43 C           2.1651    4.1886   35.8642 C.ar    1  UNL1       -0.0001
     44 C           1.2304    5.2305   35.3250 C.ar    1  UNL1        0.0031
     45 C           0.6326    5.0671   33.9591 C.ar    1  UNL1        0.0366
     46 C           0.9693    3.8617   33.1323 C.ar    1  UNL1        0.1362
     47 O           0.3715    3.6983   31.7663 O.3     1  UNL1       -0.4730
     48 C           0.7082    2.4929   30.9396 C.3     1  UNL1        0.2364
     49 C           1.6429    1.4509   31.4788 C.3     1  UNL1        0.1762
     50 O           1.9797    0.2455   30.6519 O.3     1  UNL1       -0.3788
     51 H           1.5128    0.2949   29.8031 H       1  UNL1        0.2106
     52 C           6.3002   -0.1291   34.9575 C.3     1  UNL1        0.0355
     53 C           5.6541    0.6914   36.0342 C.ar    1  UNL1       -0.0217
     54 C           4.4986    0.1333   36.8110 C.ar    1  UNL1       -0.0043
     55 C           3.8525    0.9538   37.8877 C.ar    1  UNL1       -0.0003
     56 C           4.3619    2.3324   38.1877 C.ar    1  UNL1       -0.0000
     57 C           5.5174    2.8905   37.4110 C.ar    1  UNL1       -0.0003
     58 C           6.1635    2.0700   36.3343 C.ar    1  UNL1       -0.0043
@<TRIPOS>BOND
     1    16    17    1
     2    17    18    1
     3    17    19    1
     4    19    20   ar
     5    20    21   ar
     6    21    22   ar
     7    22    24    1
     8    24    25   ar
     9    25    26   ar
    10    26    27   ar
    11    27    28   ar
    12    28    29   ar
    13    22    23   ar
    14    17     1    1
    15     1     2    1
    16     2     3    1
    17     3     4    1
    18     4    30    1
    19    30    31    1
    20    31    32    1
    21    31    34    1
    22    35    34    1
    23    35    52    1
    24    52    53    1
    25    53    54   ar
    26    54    55   ar
    27    55    56   ar
    28    56    57   ar
    29    57    58   ar
    30    35    36    1
    31    36    37    2
    32    36    38   am
    33    40    38    1
    34    40    41    1
    35    41    42   ar
    36    42    43   ar
    37    43    44   ar
    38    44    45   ar
    39    45    46   ar
    40    46    47    1
    41    47    48    1
    42    48    49    1
    43    49    50    1
    44     4     5    1
    45     5     7    1
    46     7     8    2
    47     7     9   am
    48     9    11    1
    49    11    12    1
    50    12    13    1
    51    12    14    1
    52    12    15    1
    53     5     6    1
    54    23    19   ar
    55     6     1    1
    56    29    24   ar
    57    58    53   ar
    58    49    40    1
    59    46    41   ar
    60    32    33    1
    61    38    39    1
    62    50    51    1
    63     9    10    1
