@<TRIPOS>MOLECULE
*****
 33 37 0 0 0
SMALL
GASTEIGER

@<TRIPOS>ATOM
      1 C           0.7462    1.6720   19.6325 C.3     1  UNL1        0.0118
      2 C           0.2580    0.3850   20.2288 C.3     1  UNL1        0.0009
      3 C           1.1812   -0.7929   20.3290 C.3     1  UNL1        0.0044
      4 C           2.5926   -0.6840   19.8329 C.3     1  UNL1        0.0224
      5 C           3.0808    0.6029   19.2366 C.3     1  UNL1        0.0044
      6 C           2.1576    1.7809   19.1364 C.3     1  UNL1        0.0009
      7 C           3.5158   -1.8621   19.9331 C.ar    1  UNL1       -0.0195
      8 C           3.8788   -2.6374   18.7014 C.ar    1  UNL1        0.0164
      9 C           4.8019   -3.8154   18.8017 C.ar    1  UNL1        0.0985
     10 N           5.3621   -4.2180   20.1336 N.ar    1  UNL1       -0.2439
     11 C           4.9992   -3.4427   21.3653 C.ar    1  UNL1        0.0810
     12 C           5.5594   -3.8453   22.6972 C.ar    1  UNL1        0.0190
     13 C           5.1964   -3.0700   23.9289 C.ar    1  UNL1        0.0054
     14 C           4.2732   -1.8920   23.8287 C.ar    1  UNL1        0.0715
     15 C           3.7130   -1.4893   22.4968 C.ar    1  UNL1        0.0050
     16 C           4.0760   -2.2647   21.2650 C.ar    1  UNL1        0.0137
     17 C           3.9103   -1.1166   25.0604 C.3     1  UNL1        0.4186
     18 F           3.5473   -0.3412   26.2921 F       1  UNL1       -0.1659
     19 F           5.1354   -1.6391   25.7503 F       1  UNL1       -0.1659
     20 F           2.6851   -0.5942   24.3705 F       1  UNL1       -0.1659
     21 C          -0.1770    2.8499   19.5323 C.3     1  UNL1        0.1121
     22 C          -1.2548    3.0474   20.5567 C.2     1  UNL1        0.3551
     23 N          -2.7323    3.0083   20.3009 N.2     1  UNL1        0.0108
     24 C          -3.4349    3.2554   21.6028 C.2     1  UNL1        0.4184
     25 N          -4.8899    3.3304   21.9597 N.2     1  UNL1       -0.0268
     26 C          -5.3017    3.5974   23.3771 C.2     1  UNL1        0.2435
     27 C          -4.2584    3.7893   24.4377 C.2     1  UNL1        0.0906
     28 CL         -4.6703    4.0563   25.8552 Cl      1  UNL1       -0.0825
     29 C          -2.8035    3.7143   24.0809 C.3     1  UNL1        0.1238
     30 C          -2.3917    3.4473   22.6634 C.2     1  UNL1        0.2635
     31 N          -1.0443    3.3188   22.0169 N.2     1  UNL1       -0.0346
     32 C          -0.9212    3.7455   17.2098 C.3     1  UNL1        0.0006
     33 C          -0.0224    3.8304   18.4078 C.3     1  UNL1        0.0124
@<TRIPOS>BOND
     1    32    33    1
     2    33    21    1
     3    21    22    1
     4    22    23    2
     5    23    24    1
     6    24    25    2
     7    25    26    1
     8    26    27    2
     9    27    28    1
    10    27    29    1
    11    29    30    1
    12    30    31    2
    13     1    21    1
    14     1     2    1
    15     2     3    1
    16     3     4    1
    17     4     7    1
    18     7     8   ar
    19     8     9   ar
    20     9    10   ar
    21    10    11   ar
    22    11    12   ar
    23    12    13   ar
    24    13    14   ar
    25    14    17    1
    26    17    18    1
    27    17    19    1
    28    17    20    1
    29    14    15   ar
    30    15    16   ar
    31     4     5    1
    32     5     6    1
    33    31    22    1
    34     6     1    1
    35    30    24    1
    36    16     7   ar
    37    16    11   ar
@<TRIPOS>MOLECULE
*****
 33 37 0 0 0
SMALL
GASTEIGER

@<TRIPOS>ATOM
      1 C         -12.5569   -4.6583   18.4406 C.3     1  UNL1        0.0118
      2 C         -12.6988   -4.0910   17.0592 C.3     1  UNL1        0.0009
      3 C         -12.8606   -2.6119   16.8689 C.3     1  UNL1        0.0044
      4 C         -12.8807   -1.7002   18.0598 C.3     1  UNL1        0.0224
      5 C         -12.7388   -2.2675   19.4411 C.3     1  UNL1        0.0044
      6 C         -12.5769   -3.7466   19.6315 C.3     1  UNL1        0.0009
      7 C         -13.0425   -0.2211   17.8694 C.ar    1  UNL1       -0.0195
      8 C         -11.9522    0.5746   17.2153 C.ar    1  UNL1        0.0164
      9 C         -12.1141    2.0536   17.0249 C.ar    1  UNL1        0.0985
     10 N         -13.3664    2.7369   17.4886 N.ar    1  UNL1       -0.2439
     11 C         -14.4567    1.9411   18.1427 C.ar    1  UNL1        0.0810
     12 C         -15.7089    2.6244   18.6065 C.ar    1  UNL1        0.0190
     13 C         -16.7993    1.8286   19.2606 C.ar    1  UNL1        0.0054
     14 C         -16.6374    0.3495   19.4510 C.ar    1  UNL1        0.0715
     15 C         -15.3851   -0.3337   18.9873 C.ar    1  UNL1        0.0050
     16 C         -14.2948    0.4621   18.3331 C.ar    1  UNL1        0.0137
     17 C         -17.7277   -0.4462   20.1051 C.3     1  UNL1        0.4186
     18 F         -18.8181   -1.2420   20.7593 F       1  UNL1       -0.1659
     19 F         -18.5879    0.7812   20.1645 F       1  UNL1       -0.1659
     20 F         -16.8675   -1.6736   20.0458 F       1  UNL1       -0.1659
     21 C         -12.3950   -6.1373   18.6309 C.3     1  UNL1        0.1121
     22 C         -13.6055   -7.0145   18.7548 C.2     1  UNL1        0.3551
     23 N         -13.7179   -8.4338   18.2828 N.2     1  UNL1        0.0108
     24 C         -15.0979   -8.9229   18.6087 C.2     1  UNL1        0.4184
     25 N         -15.7759  -10.2411   18.3793 N.2     1  UNL1       -0.0268
     26 C         -17.1945  -10.4422   18.8233 C.2     1  UNL1        0.2435
     27 C         -17.9351   -9.3251   19.4968 C.2     1  UNL1        0.0906
     28 CL        -19.3537   -9.5262   19.9409 Cl      1  UNL1       -0.0825
     29 C         -17.2571   -8.0069   19.7263 C.3     1  UNL1        0.1238
     30 C         -15.8385   -7.8058   19.2822 C.2     1  UNL1        0.2635
     31 N         -14.9162   -6.6263   19.3725 N.2     1  UNL1       -0.0346
     32 C          -9.8312   -5.8637   18.9504 C.3     1  UNL1        0.0006
     33 C         -11.0227   -6.7392   18.6974 C.3     1  UNL1        0.0124
@<TRIPOS>BOND
     1    32    33    1
     2    33    21    1
     3    21    22    1
     4    22    23    2
     5    23    24    1
     6    24    25    2
     7    25    26    1
     8    26    27    2
     9    27    28    1
    10    27    29    1
    11    29    30    1
    12    30    31    2
    13     1    21    1
    14     1     2    1
    15     2     3    1
    16     3     4    1
    17     4     7    1
    18     7     8   ar
    19     8     9   ar
    20     9    10   ar
    21    10    11   ar
    22    11    12   ar
    23    12    13   ar
    24    13    14   ar
    25    14    17    1
    26    17    18    1
    27    17    19    1
    28    17    20    1
    29    14    15   ar
    30    15    16   ar
    31     4     5    1
    32     5     6    1
    33    31    22    1
    34     6     1    1
    35    30    24    1
    36    16     7   ar
    37    16    11   ar
@<TRIPOS>MOLECULE
*****
 33 37 0 0 0
SMALL
GASTEIGER

@<TRIPOS>ATOM
      1 C           1.5192    2.4844   18.5424 C.3     1  UNL1        0.0118
      2 C           0.8473    1.1484   18.6596 C.3     1  UNL1        0.0009
      3 C           1.6679   -0.0865   18.8860 C.3     1  UNL1        0.0044
      4 C           3.1606    0.0144   18.9952 C.3     1  UNL1        0.0224
      5 C           3.8325    1.3503   18.8780 C.3     1  UNL1        0.0044
      6 C           3.0118    2.5854   18.6516 C.3     1  UNL1        0.0009
      7 C           3.9813   -1.2206   19.2216 C.ar    1  UNL1       -0.0195
      8 C           4.5835   -1.9453   18.0545 C.ar    1  UNL1        0.0164
      9 C           5.4041   -3.1803   18.2810 C.ar    1  UNL1        0.0985
     10 N           5.6225   -3.6906   19.6745 N.ar    1  UNL1       -0.2439
     11 C           5.0203   -2.9659   20.8415 C.ar    1  UNL1        0.0810
     12 C           5.2387   -3.4762   22.2351 C.ar    1  UNL1        0.0190
     13 C           4.6365   -2.7516   23.4021 C.ar    1  UNL1        0.0054
     14 C           3.8158   -1.5165   23.1757 C.ar    1  UNL1        0.0715
     15 C           3.5974   -1.0062   21.7822 C.ar    1  UNL1        0.0050
     16 C           4.1997   -1.7309   20.6151 C.ar    1  UNL1        0.0137
     17 C           3.2136   -0.7918   24.3428 C.3     1  UNL1        0.4186
     18 F           2.6113   -0.0671   25.5099 F       1  UNL1       -0.1659
     19 F           4.1664   -1.4894   25.2677 F       1  UNL1       -0.1659
     20 F           2.2608   -0.0942   23.4180 F       1  UNL1       -0.1659
     21 C           0.6985    3.7194   18.3160 C.3     1  UNL1        0.1121
     22 C          -0.7601    3.7252   18.6661 C.2     1  UNL1        0.3551
     23 N          -1.3378    3.5564   20.0401 N.2     1  UNL1        0.0108
     24 C          -2.8318    3.6277   19.9268 C.2     1  UNL1        0.4184
     25 N          -3.9220    3.5263   20.9520 N.2     1  UNL1       -0.0268
     26 C          -5.3580    3.6379   20.5331 C.2     1  UNL1        0.2435
     27 C          -5.7037    3.8508   19.0891 C.2     1  UNL1        0.0906
     28 CL         -7.1398    3.9624   18.6703 Cl      1  UNL1       -0.0825
     29 C          -4.6135    3.9522   18.0640 C.3     1  UNL1        0.1238
     30 C          -3.1775    3.8407   18.4828 C.2     1  UNL1        0.2635
     31 N          -1.8971    3.9010   17.7037 N.2     1  UNL1       -0.0346
     32 C           0.9011    6.3071   18.2031 C.3     1  UNL1        0.0006
     33 C           1.3364    4.9485   17.7396 C.3     1  UNL1        0.0124
@<TRIPOS>BOND
     1    32    33    1
     2    33    21    1
     3    21    22    1
     4    22    23    2
     5    23    24    1
     6    24    25    2
     7    25    26    1
     8    26    27    2
     9    27    28    1
    10    27    29    1
    11    29    30    1
    12    30    31    2
    13     1    21    1
    14     1     2    1
    15     2     3    1
    16     3     4    1
    17     4     7    1
    18     7     8   ar
    19     8     9   ar
    20     9    10   ar
    21    10    11   ar
    22    11    12   ar
    23    12    13   ar
    24    13    14   ar
    25    14    17    1
    26    17    18    1
    27    17    19    1
    28    17    20    1
    29    14    15   ar
    30    15    16   ar
    31     4     5    1
    32     5     6    1
    33    31    22    1
    34     6     1    1
    35    30    24    1
    36    16     7   ar
    37    16    11   ar
@<TRIPOS>MOLECULE
*****
 33 37 0 0 0
SMALL
GASTEIGER

@<TRIPOS>ATOM
      1 C           5.4365   -1.5600   24.9491 C.3     1  UNL1        0.0118
      2 C           6.1158   -0.4045   24.2757 C.3     1  UNL1        0.0009
      3 C           6.3964   -0.4539   22.8031 C.3     1  UNL1        0.0044
      4 C           5.9977   -1.6589   22.0037 C.3     1  UNL1        0.0224
      5 C           5.3184   -2.8144   22.6769 C.3     1  UNL1        0.0044
      6 C           5.0378   -2.7650   24.1497 C.3     1  UNL1        0.0009
      7 C           6.2783   -1.7084   20.5309 C.ar    1  UNL1       -0.0195
      8 C           7.6282   -2.1389   20.0387 C.ar    1  UNL1        0.0164
      9 C           7.9087   -2.1884   18.5660 C.ar    1  UNL1        0.0985
     10 N           6.8394   -1.8072   17.5856 N.ar    1  UNL1       -0.2439
     11 C           5.4895   -1.3767   18.0778 C.ar    1  UNL1        0.0810
     12 C           4.4201   -0.9955   17.0974 C.ar    1  UNL1        0.0190
     13 C           3.0703   -0.5649   17.5896 C.ar    1  UNL1        0.0054
     14 C           2.7896   -0.5155   19.0624 C.ar    1  UNL1        0.0715
     15 C           3.8590   -0.8966   20.0428 C.ar    1  UNL1        0.0050
     16 C           5.2089   -1.3272   19.5505 C.ar    1  UNL1        0.0137
     17 C           1.4398   -0.0849   19.5546 C.3     1  UNL1        0.4186
     18 F           0.0898    0.3457   20.0469 F       1  UNL1       -0.1659
     19 F           1.7074   -0.7513   20.8715 F       1  UNL1       -0.1659
     20 F           1.1721    0.5815   18.2377 F       1  UNL1       -0.1659
     21 C           5.1559   -1.5105   26.4217 C.3     1  UNL1        0.1121
     22 C           3.8732   -0.9146   26.9212 C.2     1  UNL1        0.3551
     23 N           3.2305   -1.1909   28.2481 N.2     1  UNL1        0.0108
     24 C           1.9680   -0.3848   28.3285 C.2     1  UNL1        0.4184
     25 N           0.9260   -0.2560   29.3997 N.2     1  UNL1       -0.0268
     26 C          -0.2536    0.6473   29.1937 C.2     1  UNL1        0.2435
     27 C          -0.3913    1.4217   27.9164 C.2     1  UNL1        0.0906
     28 CL         -1.5710    2.3249   27.7104 Cl      1  UNL1       -0.0825
     29 C           0.6508    1.2928   26.8452 C.3     1  UNL1        0.1238
     30 C           1.8304    0.3896   27.0513 C.2     1  UNL1        0.2635
     31 N           3.0079    0.0621   26.1816 N.2     1  UNL1       -0.0346
     32 C           6.1880   -3.5263   27.6951 C.3     1  UNL1        0.0006
     33 C           6.1581   -2.0569   27.3949 C.3     1  UNL1        0.0124
@<TRIPOS>BOND
     1    32    33    1
     2    33    21    1
     3    21    22    1
     4    22    23    2
     5    23    24    1
     6    24    25    2
     7    25    26    1
     8    26    27    2
     9    27    28    1
    10    27    29    1
    11    29    30    1
    12    30    31    2
    13     1    21    1
    14     1     2    1
    15     2     3    1
    16     3     4    1
    17     4     7    1
    18     7     8   ar
    19     8     9   ar
    20     9    10   ar
    21    10    11   ar
    22    11    12   ar
    23    12    13   ar
    24    13    14   ar
    25    14    17    1
    26    17    18    1
    27    17    19    1
    28    17    20    1
    29    14    15   ar
    30    15    16   ar
    31     4     5    1
    32     5     6    1
    33    31    22    1
    34     6     1    1
    35    30    24    1
    36    16     7   ar
    37    16    11   ar
@<TRIPOS>MOLECULE
*****
 33 37 0 0 0
SMALL
GASTEIGER

@<TRIPOS>ATOM
      1 C           2.8905   -0.5142   19.9658 C.3     1  UNL1        0.0118
      2 C           1.4572   -0.9438   20.0720 C.3     1  UNL1        0.0009
      3 C           0.4067    0.0443   20.4847 C.3     1  UNL1        0.0044
      4 C           0.7895    1.4618   20.7912 C.3     1  UNL1        0.0224
      5 C           2.2228    1.8914   20.6850 C.3     1  UNL1        0.0044
      6 C           3.2733    0.9033   20.2723 C.3     1  UNL1        0.0009
      7 C          -0.2610    2.4499   21.2039 C.ar    1  UNL1       -0.0195
      8 C          -1.0099    3.2273   20.1625 C.ar    1  UNL1        0.0164
      9 C          -2.0603    4.2153   20.5752 C.ar    1  UNL1        0.0985
     10 N          -2.3619    4.4258   22.0294 N.ar    1  UNL1       -0.2439
     11 C          -1.6130    3.6484   23.0709 C.ar    1  UNL1        0.0810
     12 C          -1.9145    3.8589   24.5251 C.ar    1  UNL1        0.0190
     13 C          -1.1657    3.0815   25.5666 C.ar    1  UNL1        0.0054
     14 C          -0.1151    2.0935   25.1539 C.ar    1  UNL1        0.0715
     15 C           0.1864    1.8829   23.6996 C.ar    1  UNL1        0.0050
     16 C          -0.5625    2.6604   22.6582 C.ar    1  UNL1        0.0137
     17 C           0.6337    1.3160   26.1953 C.3     1  UNL1        0.4186
     18 F           1.3827    0.5385   27.2368 F       1  UNL1       -0.1659
     19 F          -0.6591    0.9934   26.8841 F       1  UNL1       -0.1659
     20 F           1.9266    1.6386   25.5065 F       1  UNL1       -0.1659
     21 C           3.9409   -1.5023   19.5531 C.3     1  UNL1        0.1121
     22 C           4.7177   -2.2505   20.5956 C.2     1  UNL1        0.3551
     23 N           5.8307   -3.2223   20.3373 N.2     1  UNL1        0.0108
     24 C           6.3188   -3.7307   21.6615 C.2     1  UNL1        0.4184
     25 N           7.3972   -4.7075   22.0259 N.2     1  UNL1       -0.0268
     26 C           7.6642   -5.0266   23.4670 C.2     1  UNL1        0.2435
     27 C           6.8528   -4.3690   24.5437 C.2     1  UNL1        0.0906
     28 CL          7.1199   -4.6882   25.9848 Cl      1  UNL1       -0.0825
     29 C           5.7744   -3.3922   24.1792 C.3     1  UNL1        0.1238
     30 C           5.5074   -3.0731   22.7381 C.2     1  UNL1        0.2635
     31 N           4.5179   -2.1583   22.0793 N.2     1  UNL1       -0.0346
     32 C           3.7491   -0.7498   17.0738 C.3     1  UNL1        0.0006
     33 C           4.2145   -1.7421   18.0979 C.3     1  UNL1        0.0124
@<TRIPOS>BOND
     1    32    33    1
     2    33    21    1
     3    21    22    1
     4    22    23    2
     5    23    24    1
     6    24    25    2
     7    25    26    1
     8    26    27    2
     9    27    28    1
    10    27    29    1
    11    29    30    1
    12    30    31    2
    13     1    21    1
    14     1     2    1
    15     2     3    1
    16     3     4    1
    17     4     7    1
    18     7     8   ar
    19     8     9   ar
    20     9    10   ar
    21    10    11   ar
    22    11    12   ar
    23    12    13   ar
    24    13    14   ar
    25    14    17    1
    26    17    18    1
    27    17    19    1
    28    17    20    1
    29    14    15   ar
    30    15    16   ar
    31     4     5    1
    32     5     6    1
    33    31    22    1
    34     6     1    1
    35    30    24    1
    36    16     7   ar
    37    16    11   ar
@<TRIPOS>MOLECULE
*****
 33 37 0 0 0
SMALL
GASTEIGER

@<TRIPOS>ATOM
      1 C           1.2829    1.8878   22.7325 C.3     1  UNL1        0.0118
      2 C           0.5366    0.8375   21.9643 C.3     1  UNL1        0.0009
      3 C           1.2141    0.1034   20.8454 C.3     1  UNL1        0.0044
      4 C           2.6378    0.4194   20.4946 C.3     1  UNL1        0.0224
      5 C           3.3841    1.4696   21.2628 C.3     1  UNL1        0.0044
      6 C           2.7066    2.2038   22.3818 C.3     1  UNL1        0.0009
      7 C           3.3153   -0.3148   19.3756 C.ar    1  UNL1       -0.0195
      8 C           3.1213    0.1348   17.9578 C.ar    1  UNL1        0.0164
      9 C           3.7988   -0.5994   16.8389 C.ar    1  UNL1        0.0985
     10 N           4.6702   -1.7832   17.1379 N.ar    1  UNL1       -0.2439
     11 C           4.8641   -2.2327   18.5557 C.ar    1  UNL1        0.0810
     12 C           5.7356   -3.4165   18.8546 C.ar    1  UNL1        0.0190
     13 C           5.9295   -3.8661   20.2724 C.ar    1  UNL1        0.0054
     14 C           5.2520   -3.1319   21.3914 C.ar    1  UNL1        0.0715
     15 C           4.3806   -1.9481   21.0925 C.ar    1  UNL1        0.0050
     16 C           4.1867   -1.4985   19.6746 C.ar    1  UNL1        0.0137
     17 C           5.4460   -3.5814   22.8092 C.3     1  UNL1        0.4186
     18 F           5.6400   -4.0310   24.2271 F       1  UNL1       -0.1659
     19 F           4.1971   -2.8541   23.2107 F       1  UNL1       -0.1659
     20 F           6.6949   -4.3088   22.4077 F       1  UNL1       -0.1659
     21 C           0.6054    2.6219   23.8514 C.3     1  UNL1        0.1121
     22 C           0.8155    2.1849   25.2709 C.2     1  UNL1        0.3551
     23 N           0.2451    2.8459   26.4906 N.2     1  UNL1        0.0108
     24 C           0.7100    2.0796   27.6934 C.2     1  UNL1        0.4184
     25 N           0.4631    2.2684   29.1608 N.2     1  UNL1       -0.0268
     26 C           1.0739    1.3225   30.1518 C.2     1  UNL1        0.2435
     27 C           1.9315    0.1879   29.6755 C.2     1  UNL1        0.0906
     28 CL          2.5423   -0.7580   30.6666 Cl      1  UNL1       -0.0825
     29 C           2.1784   -0.0010   28.2081 C.3     1  UNL1        0.1238
     30 C           1.5676    0.9449   27.2170 C.2     1  UNL1        0.2635
     31 N           1.6328    1.0100   25.7198 N.2     1  UNL1       -0.0346
     32 C          -1.7731    3.6290   23.5705 C.3     1  UNL1        0.0006
     33 C          -0.2822    3.7932   23.5509 C.3     1  UNL1        0.0124
@<TRIPOS>BOND
     1    32    33    1
     2    33    21    1
     3    21    22    1
     4    22    23    2
     5    23    24    1
     6    24    25    2
     7    25    26    1
     8    26    27    2
     9    27    28    1
    10    27    29    1
    11    29    30    1
    12    30    31    2
    13     1    21    1
    14     1     2    1
    15     2     3    1
    16     3     4    1
    17     4     7    1
    18     7     8   ar
    19     8     9   ar
    20     9    10   ar
    21    10    11   ar
    22    11    12   ar
    23    12    13   ar
    24    13    14   ar
    25    14    17    1
    26    17    18    1
    27    17    19    1
    28    17    20    1
    29    14    15   ar
    30    15    16   ar
    31     4     5    1
    32     5     6    1
    33    31    22    1
    34     6     1    1
    35    30    24    1
    36    16     7   ar
    37    16    11   ar
@<TRIPOS>MOLECULE
*****
 33 37 0 0 0
SMALL
GASTEIGER

@<TRIPOS>ATOM
      1 C           0.4391    2.0722   21.7339 C.3     1  UNL1        0.0118
      2 C           0.0308    0.7147   21.2435 C.3     1  UNL1        0.0009
      3 C           0.9547   -0.0742   20.3639 C.3     1  UNL1        0.0044
      4 C           2.2871    0.4943   19.9745 C.3     1  UNL1        0.0224
      5 C           2.6955    1.8518   20.4648 C.3     1  UNL1        0.0044
      6 C           1.7715    2.6408   21.3445 C.3     1  UNL1        0.0009
      7 C           3.2111   -0.2947   19.0948 C.ar    1  UNL1       -0.0195
      8 C           3.2132   -0.0653   17.6125 C.ar    1  UNL1        0.0164
      9 C           4.1371   -0.8543   16.7329 C.ar    1  UNL1        0.0985
     10 N           5.0590   -1.8726   17.3356 N.ar    1  UNL1       -0.2439
     11 C           5.0568   -2.1020   18.8179 C.ar    1  UNL1        0.0810
     12 C           5.9787   -3.1203   19.4206 C.ar    1  UNL1        0.0190
     13 C           5.9765   -3.3497   20.9029 C.ar    1  UNL1        0.0054
     14 C           5.0525   -2.5606   21.7826 C.ar    1  UNL1        0.0715
     15 C           4.1307   -1.5423   21.1799 C.ar    1  UNL1        0.0050
     16 C           4.1329   -1.3130   19.6975 C.ar    1  UNL1        0.0137
     17 C           5.0504   -2.7900   23.2650 C.3     1  UNL1        0.4186
     18 F           5.0483   -3.0194   24.7474 F       1  UNL1       -0.1659
     19 F           3.8648   -1.8818   23.4038 F       1  UNL1       -0.1659
     20 F           6.2361   -3.6982   23.1262 F       1  UNL1       -0.1659
     21 C          -0.4848    2.8612   22.6135 C.3     1  UNL1        0.1121
     22 C          -1.8470    3.2456   22.1169 C.2     1  UNL1        0.3551
     23 N          -2.8773    4.0229   22.8813 N.2     1  UNL1        0.0108
     24 C          -4.0851    4.1779   22.0055 C.2     1  UNL1        0.4184
     25 N          -5.4067    4.8515   22.2283 N.2     1  UNL1       -0.0268
     26 C          -6.4445    4.8437   21.1453 C.2     1  UNL1        0.2435
     27 C          -6.1607    4.1622   19.8395 C.2     1  UNL1        0.0906
     28 CL         -7.1985    4.1544   18.7565 Cl      1  UNL1       -0.0825
     29 C          -4.8391    3.4886   19.6167 C.3     1  UNL1        0.1238
     30 C          -3.8014    3.4964   20.6997 C.2     1  UNL1        0.2635
     31 N          -2.4182    2.9202   20.7686 N.2     1  UNL1       -0.0346
     32 C          -0.1567    2.2945   25.1278 C.3     1  UNL1        0.0006
     33 C          -0.0466    3.2657   23.9899 C.3     1  UNL1        0.0124
@<TRIPOS>BOND
     1    32    33    1
     2    33    21    1
     3    21    22    1
     4    22    23    2
     5    23    24    1
     6    24    25    2
     7    25    26    1
     8    26    27    2
     9    27    28    1
    10    27    29    1
    11    29    30    1
    12    30    31    2
    13     1    21    1
    14     1     2    1
    15     2     3    1
    16     3     4    1
    17     4     7    1
    18     7     8   ar
    19     8     9   ar
    20     9    10   ar
    21    10    11   ar
    22    11    12   ar
    23    12    13   ar
    24    13    14   ar
    25    14    17    1
    26    17    18    1
    27    17    19    1
    28    17    20    1
    29    14    15   ar
    30    15    16   ar
    31     4     5    1
    32     5     6    1
    33    31    22    1
    34     6     1    1
    35    30    24    1
    36    16     7   ar
    37    16    11   ar
@<TRIPOS>MOLECULE
*****
 33 37 0 0 0
SMALL
GASTEIGER

@<TRIPOS>ATOM
      1 C           6.0956   -2.4961   24.7442 C.3     1  UNL1        0.0118
      2 C           6.6589   -1.2485   24.1308 C.3     1  UNL1        0.0009
      3 C           6.5577   -1.0289   22.6504 C.3     1  UNL1        0.0044
      4 C           5.8932   -2.0569   21.7834 C.3     1  UNL1        0.0224
      5 C           5.3299   -3.3045   22.3968 C.3     1  UNL1        0.0044
      6 C           5.4311   -3.5241   23.8772 C.3     1  UNL1        0.0009
      7 C           5.7920   -1.8373   20.3030 C.ar    1  UNL1       -0.0195
      8 C           6.8896   -2.3120   19.3976 C.ar    1  UNL1        0.0164
      9 C           6.7883   -2.0924   17.9172 C.ar    1  UNL1        0.0985
     10 N           5.5895   -1.3980   17.3423 N.ar    1  UNL1       -0.2439
     11 C           4.4918   -0.9232   18.2477 C.ar    1  UNL1        0.0810
     12 C           3.2930   -0.2288   17.6728 C.ar    1  UNL1        0.0190
     13 C           2.1954    0.2460   18.5782 C.ar    1  UNL1        0.0054
     14 C           2.2966    0.0263   20.0586 C.ar    1  UNL1        0.0715
     15 C           3.4955   -0.6681   20.6336 C.ar    1  UNL1        0.0050
     16 C           4.5931   -1.1429   19.7280 C.ar    1  UNL1        0.0137
     17 C           1.1990    0.5011   20.9640 C.3     1  UNL1        0.4186
     18 F           0.1014    0.9759   21.8695 F       1  UNL1       -0.1659
     19 F           0.3225   -0.6196   20.4891 F       1  UNL1       -0.1659
     20 F           2.0755    1.6218   21.4390 F       1  UNL1       -0.1659
     21 C           6.1969   -2.7157   26.2245 C.3     1  UNL1        0.1121
     22 C           5.2586   -2.0046   27.1541 C.2     1  UNL1        0.3551
     23 N           3.8450   -1.6082   26.8469 N.2     1  UNL1        0.0108
     24 C           3.2820   -0.9237   28.0570 C.2     1  UNL1        0.4184
     25 N           1.9366   -0.3213   28.3345 N.2     1  UNL1       -0.0268
     26 C           1.6570    0.3079   29.6671 C.2     1  UNL1        0.2435
     27 C           2.7228    0.3346   30.7223 C.2     1  UNL1        0.0906
     28 CL          2.4431    0.9638   32.0550 Cl      1  UNL1       -0.0825
     29 C           4.0681   -0.2679   30.4449 C.3     1  UNL1        0.1238
     30 C           4.3478   -0.8970   29.1122 C.2     1  UNL1        0.2635
     31 N           5.5694   -1.5651   28.5542 N.2     1  UNL1       -0.0346
     32 C           6.9563   -5.1176   26.8602 C.3     1  UNL1        0.0006
     33 C           7.2363   -3.6464   26.7753 C.3     1  UNL1        0.0124
@<TRIPOS>BOND
     1    32    33    1
     2    33    21    1
     3    21    22    1
     4    22    23    2
     5    23    24    1
     6    24    25    2
     7    25    26    1
     8    26    27    2
     9    27    28    1
    10    27    29    1
    11    29    30    1
    12    30    31    2
    13     1    21    1
    14     1     2    1
    15     2     3    1
    16     3     4    1
    17     4     7    1
    18     7     8   ar
    19     8     9   ar
    20     9    10   ar
    21    10    11   ar
    22    11    12   ar
    23    12    13   ar
    24    13    14   ar
    25    14    17    1
    26    17    18    1
    27    17    19    1
    28    17    20    1
    29    14    15   ar
    30    15    16   ar
    31     4     5    1
    32     5     6    1
    33    31    22    1
    34     6     1    1
    35    30    24    1
    36    16     7   ar
    37    16    11   ar
@<TRIPOS>MOLECULE
*****
 33 37 0 0 0
SMALL
GASTEIGER

@<TRIPOS>ATOM
      1 C           5.3326   -1.6032   24.8615 C.3     1  UNL1        0.0118
      2 C           6.2143   -0.5517   24.2556 C.3     1  UNL1        0.0009
      3 C           6.4828   -0.5574   22.7799 C.3     1  UNL1        0.0044
      4 C           5.8698   -1.6145   21.9100 C.3     1  UNL1        0.0224
      5 C           4.9882   -2.6660   22.5159 C.3     1  UNL1        0.0044
      6 C           4.7195   -2.6604   23.9917 C.3     1  UNL1        0.0009
      7 C           6.1384   -1.6202   20.4342 C.ar    1  UNL1       -0.0195
      8 C           7.4830   -2.0392   19.9183 C.ar    1  UNL1        0.0164
      9 C           7.7516   -2.0448   18.4425 C.ar    1  UNL1        0.0985
     10 N           6.6755   -1.6314   17.4828 N.ar    1  UNL1       -0.2439
     11 C           5.3309   -1.2124   17.9988 C.ar    1  UNL1        0.0810
     12 C           4.2548   -0.7990   17.0390 C.ar    1  UNL1        0.0190
     13 C           2.9101   -0.3799   17.5550 C.ar    1  UNL1        0.0054
     14 C           2.6415   -0.3743   19.0308 C.ar    1  UNL1        0.0715
     15 C           3.7176   -0.7877   19.9905 C.ar    1  UNL1        0.0050
     16 C           5.0623   -1.2068   19.4745 C.ar    1  UNL1        0.0137
     17 C           1.2968    0.0447   19.5468 C.3     1  UNL1        0.4186
     18 F          -0.0479    0.4638   20.0627 F       1  UNL1       -0.1659
     19 F           1.5998   -0.6054   20.8642 F       1  UNL1       -0.1659
     20 F           0.9939    0.6949   18.2294 F       1  UNL1       -0.1659
     21 C           5.0640   -1.5975   26.3373 C.3     1  UNL1        0.1121
     22 C           5.7974   -2.5479   27.2367 C.2     1  UNL1        0.3551
     23 N           5.8658   -2.4705   28.7332 N.2     1  UNL1        0.0108
     24 C           6.7018   -3.6172   29.2190 C.2     1  UNL1        0.4184
     25 N           7.1127   -4.0471   30.5960 N.2     1  UNL1       -0.0268
     26 C           7.9720   -5.2632   30.7769 C.2     1  UNL1        0.2435
     27 C           8.4203   -6.0494   29.5807 C.2     1  UNL1        0.0906
     28 CL          9.2796   -7.2656   29.7616 Cl      1  UNL1       -0.0825
     29 C           8.0093   -5.6195   28.2036 C.3     1  UNL1        0.1238
     30 C           7.1501   -4.4034   28.0228 C.2     1  UNL1        0.2635
     31 N           6.5911   -3.7425   26.7977 N.2     1  UNL1       -0.0346
     32 C           4.4931    0.7311   27.3382 C.3     1  UNL1        0.0006
     33 C           4.0621   -0.6415   26.9135 C.3     1  UNL1        0.0124
@<TRIPOS>BOND
     1    32    33    1
     2    33    21    1
     3    21    22    1
     4    22    23    2
     5    23    24    1
     6    24    25    2
     7    25    26    1
     8    26    27    2
     9    27    28    1
    10    27    29    1
    11    29    30    1
    12    30    31    2
    13     1    21    1
    14     1     2    1
    15     2     3    1
    16     3     4    1
    17     4     7    1
    18     7     8   ar
    19     8     9   ar
    20     9    10   ar
    21    10    11   ar
    22    11    12   ar
    23    12    13   ar
    24    13    14   ar
    25    14    17    1
    26    17    18    1
    27    17    19    1
    28    17    20    1
    29    14    15   ar
    30    15    16   ar
    31     4     5    1
    32     5     6    1
    33    31    22    1
    34     6     1    1
    35    30    24    1
    36    16     7   ar
    37    16    11   ar
