@<TRIPOS>MOLECULE
*****
 34 36 0 0 0
SMALL
GASTEIGER

@<TRIPOS>ATOM
      1 C          -6.2374  -15.4841   25.0988 C.ar    1  UNL1        0.2167
      2 N          -5.3319  -16.5758   24.6107 N.ar    1  UNL1       -0.2184
      3 C          -5.7226  -17.3971   23.4179 C.ar    1  UNL1        0.0628
      4 C          -7.0190  -17.1268   22.7133 C.ar    1  UNL1        0.0336
      5 C          -7.9245  -16.0352   23.2015 C.ar    1  UNL1        0.1358
      6 N          -7.5338  -15.2138   24.3942 N.ar    1  UNL1       -0.2095
      7 C          -7.4098  -17.9481   21.5205 C.3     1  UNL1        0.1229
      8 N          -6.5042  -19.0397   21.0324 N.am    1  UNL1       -0.2749
      9 C          -6.8950  -19.8611   19.8396 C.2     1  UNL1        0.2262
     10 O          -5.9894  -20.9527   19.3514 O.2     1  UNL1       -0.2748
     11 C          -5.2079  -19.3100   21.7370 C.3     1  UNL1        0.1000
     12 C          -4.8171  -18.4887   22.9297 C.3     1  UNL1        0.0672
     13 C          -9.2209  -15.7649   22.4969 C.2     1  UNL1        0.2604
     14 N         -10.5107  -15.7944   23.2620 N.am    1  UNL1       -0.3241
     15 O          -9.2273  -15.4650   21.0271 O.2     1  UNL1       -0.2687
     16 H         -10.5065  -15.9912   24.2266 H       1  UNL1        0.1453
     17 H         -11.3615  -15.6170   22.7995 H       1  UNL1        0.1453
     18 N          -5.8467  -14.6628   26.2917 N.pl3   1  UNL1       -0.3030
     19 H          -5.0897  -14.0362   26.2313 H       1  UNL1        0.1496
     20 C          -8.0090  -15.3352   27.5653 C.3     1  UNL1        0.0230
     21 C          -6.6092  -14.7961   27.5765 C.3     1  UNL1        0.0896
     22 C          -8.1913  -19.5908   19.1350 C.3     1  UNL1        0.0900
     23 C          -9.4429  -20.2926   19.5719 C.3     1  UNL1        0.0359
     24 C         -10.4026  -19.6070   20.4988 C.ar    1  UNL1       -0.0215
     25 C         -11.2017  -18.4328   20.0167 C.ar    1  UNL1       -0.0011
     26 C         -12.1613  -17.7473   20.9436 C.ar    1  UNL1        0.0369
     27 C         -12.3218  -18.2360   22.3526 C.ar    1  UNL1        0.1468
     28 C         -11.5226  -19.4103   22.8348 C.ar    1  UNL1        0.0369
     29 C         -10.5630  -20.0958   21.9079 C.ar    1  UNL1       -0.0011
     30 O         -13.2814  -17.5504   23.2795 O.3     1  UNL1       -0.4045
     31 C         -13.7086  -18.2245   24.5496 C.3     1  UNL1        0.5753
     32 F         -14.1357  -18.8987   25.8197 F       1  UNL1       -0.1328
     33 F         -15.1211  -18.2756   24.0474 F       1  UNL1       -0.1328
     34 F         -12.2961  -18.1734   25.0517 F       1  UNL1       -0.1328
@<TRIPOS>BOND
     1    20    21    1
     2    21    18    1
     3    18     1    1
     4     1     2   ar
     5     2     3   ar
     6     3     4   ar
     7     4     5   ar
     8     5    13    1
     9    13    14   am
    10    13    15    2
    11     5     6   ar
    12     4     7    1
    13     7     8    1
    14     8     9   am
    15     9    10    2
    16     9    22    1
    17    22    23    1
    18    23    24    1
    19    24    25   ar
    20    25    26   ar
    21    26    27   ar
    22    27    30    1
    23    30    31    1
    24    31    32    1
    25    31    33    1
    26    31    34    1
    27    27    28   ar
    28    28    29   ar
    29     8    11    1
    30    11    12    1
    31     6     1   ar
    32    29    24   ar
    33    12     3    1
    34    18    19    1
    35    14    16    1
    36    14    17    1
@<TRIPOS>MOLECULE
*****
 34 36 0 0 0
SMALL
GASTEIGER

@<TRIPOS>ATOM
      1 C          -5.9522  -15.1696   25.7383 C.ar    1  UNL1        0.2167
      2 N          -4.8440  -16.1367   25.4445 N.ar    1  UNL1       -0.2184
      3 C          -4.9001  -16.9898   24.2119 C.ar    1  UNL1        0.0628
      4 C          -6.0645  -16.8756   23.2732 C.ar    1  UNL1        0.0336
      5 C          -7.1727  -15.9084   23.5670 C.ar    1  UNL1        0.1358
      6 N          -7.1166  -15.0554   24.7995 N.ar    1  UNL1       -0.2095
      7 C          -6.1206  -17.7287   22.0406 C.3     1  UNL1        0.1229
      8 N          -5.0124  -18.6958   21.7469 N.am    1  UNL1       -0.2749
      9 C          -5.0684  -19.5489   20.5143 C.2     1  UNL1        0.2262
     10 O          -3.9602  -20.5161   20.2205 O.2     1  UNL1       -0.2748
     11 C          -3.8480  -18.8100   22.6856 C.3     1  UNL1        0.1000
     12 C          -3.7919  -17.9570   23.9181 C.3     1  UNL1        0.0672
     13 C          -8.3371  -15.7942   22.6283 C.2     1  UNL1        0.2604
     14 N          -8.1950  -15.0275   21.3469 N.am    1  UNL1       -0.3241
     15 O          -9.6435  -16.4469   22.9709 O.2     1  UNL1       -0.2687
     16 H          -7.3376  -14.5992   21.1220 H       1  UNL1        0.1453
     17 H          -8.9593  -14.9526   20.7308 H       1  UNL1        0.1453
     18 N          -5.8962  -14.3165   26.9709 N.pl3   1  UNL1       -0.3030
     19 H          -5.1639  -13.6690   27.0885 H       1  UNL1        0.1496
     20 C          -8.2506  -15.1356   27.7028 C.3     1  UNL1        0.0230
     21 C          -6.9558  -14.4499   28.0241 C.3     1  UNL1        0.0896
     22 C          -6.2328  -19.4347   19.5755 C.3     1  UNL1        0.0900
     23 C          -7.4120  -20.3491   19.7285 C.3     1  UNL1        0.0359
     24 C          -8.7411  -19.7951   20.1485 C.ar    1  UNL1       -0.0215
     25 C          -9.1199  -19.7733   21.5997 C.ar    1  UNL1       -0.0011
     26 C         -10.4490  -19.2193   22.0197 C.ar    1  UNL1        0.0369
     27 C         -11.3995  -18.6872   20.9885 C.ar    1  UNL1        0.1468
     28 C         -11.0208  -18.7090   19.5372 C.ar    1  UNL1        0.0369
     29 C          -9.6916  -19.2630   19.1172 C.ar    1  UNL1       -0.0011
     30 O         -12.7287  -18.1332   21.4085 O.3     1  UNL1       -0.4045
     31 C         -12.8000  -16.8189   22.1278 C.3     1  UNL1        0.5753
     32 F         -12.8713  -15.5045   22.8471 F       1  UNL1       -0.1328
     33 F         -13.1862  -17.5308   23.3903 F       1  UNL1       -0.1328
     34 F         -12.4137  -16.1069   20.8653 F       1  UNL1       -0.1328
@<TRIPOS>BOND
     1    20    21    1
     2    21    18    1
     3    18     1    1
     4     1     2   ar
     5     2     3   ar
     6     3     4   ar
     7     4     5   ar
     8     5    13    1
     9    13    14   am
    10    13    15    2
    11     5     6   ar
    12     4     7    1
    13     7     8    1
    14     8     9   am
    15     9    10    2
    16     9    22    1
    17    22    23    1
    18    23    24    1
    19    24    25   ar
    20    25    26   ar
    21    26    27   ar
    22    27    30    1
    23    30    31    1
    24    31    32    1
    25    31    33    1
    26    31    34    1
    27    27    28   ar
    28    28    29   ar
    29     8    11    1
    30    11    12    1
    31     6     1   ar
    32    29    24   ar
    33    12     3    1
    34    18    19    1
    35    14    16    1
    36    14    17    1
@<TRIPOS>MOLECULE
*****
 34 36 0 0 0
SMALL
GASTEIGER

@<TRIPOS>ATOM
      1 C           1.6247   -0.1293   29.3717 C.ar    1  UNL1        0.2167
      2 N           2.8947   -0.9244   29.4406 N.ar    1  UNL1       -0.2184
      3 C           3.9109   -0.6242   30.5023 C.ar    1  UNL1        0.0628
      4 C           3.6571    0.4713   31.4951 C.ar    1  UNL1        0.0336
      5 C           2.3871    1.2665   31.4261 C.ar    1  UNL1        0.1358
      6 N           1.3709    0.9662   30.3644 N.ar    1  UNL1       -0.2095
      7 C           4.6733    0.7715   32.5568 C.3     1  UNL1        0.1229
      8 N           5.9432   -0.0237   32.6257 N.am    1  UNL1       -0.2749
      9 C           6.9595    0.2766   33.6874 C.2     1  UNL1        0.2262
     10 O           8.2295   -0.5186   33.7563 O.2     1  UNL1       -0.2748
     11 C           6.1971   -1.1191   31.6329 C.3     1  UNL1        0.1000
     12 C           5.1809   -1.4194   30.5713 C.3     1  UNL1        0.0672
     13 C           2.1332    2.3619   32.4189 C.2     1  UNL1        0.2604
     14 N           1.4826    2.0471   33.7332 N.am    1  UNL1       -0.3241
     15 O           2.5301    3.7723   32.0972 O.2     1  UNL1       -0.2687
     16 H           1.2221    1.1214   33.9442 H       1  UNL1        0.1453
     17 H           1.3160    2.7661   34.3847 H       1  UNL1        0.1453
     18 N           0.6085   -0.4295   28.3100 N.pl3   1  UNL1       -0.3030
     19 H           0.7944   -1.1178   27.6311 H       1  UNL1        0.1496
     20 C          -1.8046   -0.0774   29.2062 C.3     1  UNL1        0.0230
     21 C          -0.6911    0.3190   28.2826 C.3     1  UNL1        0.0896
     22 C           6.7057    1.3721   34.6802 C.3     1  UNL1        0.0900
     23 C           6.7931    1.0871   36.1502 C.3     1  UNL1        0.0359
     24 C           5.6544    1.4550   37.0545 C.ar    1  UNL1       -0.0215
     25 C           5.6616    2.7723   37.7717 C.ar    1  UNL1       -0.0011
     26 C           4.5228    3.1402   38.6761 C.ar    1  UNL1        0.0369
     27 C           3.3768    2.1907   38.8633 C.ar    1  UNL1        0.1468
     28 C           3.3696    0.8733   38.1461 C.ar    1  UNL1        0.0369
     29 C           4.5083    0.5054   37.2417 C.ar    1  UNL1       -0.0011
     30 O           2.2380    2.5586   39.7676 O.3     1  UNL1       -0.4045
     31 C           0.8294    2.2274   39.3726 C.3     1  UNL1        0.5753
     32 F          -0.5792    1.8962   38.9775 F       1  UNL1       -0.1328
     33 F           0.7661    1.1979   40.4616 F       1  UNL1       -0.1328
     34 F           0.8928    3.2569   38.2836 F       1  UNL1       -0.1328
@<TRIPOS>BOND
     1    20    21    1
     2    21    18    1
     3    18     1    1
     4     1     2   ar
     5     2     3   ar
     6     3     4   ar
     7     4     5   ar
     8     5    13    1
     9    13    14   am
    10    13    15    2
    11     5     6   ar
    12     4     7    1
    13     7     8    1
    14     8     9   am
    15     9    10    2
    16     9    22    1
    17    22    23    1
    18    23    24    1
    19    24    25   ar
    20    25    26   ar
    21    26    27   ar
    22    27    30    1
    23    30    31    1
    24    31    32    1
    25    31    33    1
    26    31    34    1
    27    27    28   ar
    28    28    29   ar
    29     8    11    1
    30    11    12    1
    31     6     1   ar
    32    29    24   ar
    33    12     3    1
    34    18    19    1
    35    14    16    1
    36    14    17    1
@<TRIPOS>MOLECULE
*****
 34 36 0 0 0
SMALL
GASTEIGER

@<TRIPOS>ATOM
      1 C           1.6746    1.6700   32.2134 C.ar    1  UNL1        0.2167
      2 N           3.0981    1.2787   31.9479 N.ar    1  UNL1       -0.2184
      3 C           3.4808    0.6968   30.6194 C.ar    1  UNL1        0.0628
      4 C           2.4398    0.5061   29.5563 C.ar    1  UNL1        0.0336
      5 C           1.0162    0.8974   29.8219 C.ar    1  UNL1        0.1358
      6 N           0.6337    1.4793   31.1504 N.ar    1  UNL1       -0.2095
      7 C           2.8223   -0.0758   28.2278 C.3     1  UNL1        0.1229
      8 N           4.2458   -0.4671   27.9624 N.am    1  UNL1       -0.2749
      9 C           4.6285   -1.0491   26.6338 C.2     1  UNL1        0.2262
     10 O           6.0520   -1.4403   26.3684 O.2     1  UNL1       -0.2748
     11 C           5.2868   -0.2764   29.0254 C.3     1  UNL1        0.1000
     12 C           4.9043    0.3055   30.3539 C.3     1  UNL1        0.0672
     13 C          -0.0247    0.7067   28.7588 C.2     1  UNL1        0.2604
     14 N          -0.7504   -0.6012   28.6457 N.am    1  UNL1       -0.3241
     15 O          -0.3400    1.8239   27.8088 O.2     1  UNL1       -0.2687
     16 H          -0.5435   -1.3345   29.2692 H       1  UNL1        0.1453
     17 H          -1.4336   -0.7263   27.9480 H       1  UNL1        0.1453
     18 N           1.2920    2.2520   33.5420 N.pl3   1  UNL1       -0.3030
     19 H           0.3572    2.2083   33.8477 H       1  UNL1        0.1496
     20 C           2.8822    2.1707   35.5949 C.3     1  UNL1        0.0230
     21 C           2.3337    2.9004   34.4047 C.3     1  UNL1        0.0896
     22 C           3.5875   -1.2398   25.5708 C.3     1  UNL1        0.0900
     23 C           3.6341   -0.4148   24.3189 C.3     1  UNL1        0.0359
     24 C           3.6252   -1.0861   22.9775 C.ar    1  UNL1       -0.0215
     25 C           2.7785   -0.5351   21.8687 C.ar    1  UNL1       -0.0011
     26 C           2.7696   -1.2064   20.5274 C.ar    1  UNL1        0.0369
     27 C           3.6073   -2.4287   20.2948 C.ar    1  UNL1        0.1468
     28 C           4.4540   -2.9798   21.4037 C.ar    1  UNL1        0.0369
     29 C           4.4630   -2.3085   22.7450 C.ar    1  UNL1       -0.0011
     30 O           3.5984   -3.1000   18.9534 O.3     1  UNL1       -0.4045
     31 C           4.2149   -4.4577   18.7901 C.3     1  UNL1        0.5753
     32 F           4.8315   -5.8154   18.6267 F       1  UNL1       -0.1328
     33 F           2.9624   -5.0902   19.3203 F       1  UNL1       -0.1328
     34 F           5.4674   -3.8251   18.2599 F       1  UNL1       -0.1328
@<TRIPOS>BOND
     1    20    21    1
     2    21    18    1
     3    18     1    1
     4     1     2   ar
     5     2     3   ar
     6     3     4   ar
     7     4     5   ar
     8     5    13    1
     9    13    14   am
    10    13    15    2
    11     5     6   ar
    12     4     7    1
    13     7     8    1
    14     8     9   am
    15     9    10    2
    16     9    22    1
    17    22    23    1
    18    23    24    1
    19    24    25   ar
    20    25    26   ar
    21    26    27   ar
    22    27    30    1
    23    30    31    1
    24    31    32    1
    25    31    33    1
    26    31    34    1
    27    27    28   ar
    28    28    29   ar
    29     8    11    1
    30    11    12    1
    31     6     1   ar
    32    29    24   ar
    33    12     3    1
    34    18    19    1
    35    14    16    1
    36    14    17    1
@<TRIPOS>MOLECULE
*****
 34 36 0 0 0
SMALL
GASTEIGER

@<TRIPOS>ATOM
      1 C          -0.0755    1.9048   26.7920 C.ar    1  UNL1        0.2167
      2 N          -1.1258    2.6195   25.9945 N.ar    1  UNL1       -0.2184
      3 C          -0.9588    2.7861   24.5132 C.ar    1  UNL1        0.0628
      4 C           0.2585    2.2379   23.8293 C.ar    1  UNL1        0.0336
      5 C           1.3088    1.5231   24.6268 C.ar    1  UNL1        0.1358
      6 N           1.1418    1.3566   26.1081 N.ar    1  UNL1       -0.2095
      7 C           0.4255    2.4045   22.3480 C.3     1  UNL1        0.1229
      8 N          -0.6248    3.1192   21.5505 N.am    1  UNL1       -0.2749
      9 C          -0.4578    3.2858   20.0691 C.2     1  UNL1        0.2262
     10 O          -1.5081    4.0006   19.2717 O.2     1  UNL1       -0.2748
     11 C          -1.8421    3.6674   22.2344 C.3     1  UNL1        0.1000
     12 C          -2.0091    3.5009   23.7157 C.3     1  UNL1        0.0672
     13 C           2.5261    0.9750   23.9430 C.2     1  UNL1        0.2604
     14 N           2.6639   -0.5031   23.7280 N.am    1  UNL1       -0.3241
     15 O           3.6057    1.9049   23.4741 O.2     1  UNL1       -0.2687
     16 H           1.9553   -1.1135   24.0357 H       1  UNL1        0.1453
     17 H           3.4628   -0.8629   23.2791 H       1  UNL1        0.1453
     18 N          -0.2425    1.7382   28.2734 N.pl3   1  UNL1       -0.3030
     19 H          -0.4153    2.5240   28.8407 H       1  UNL1        0.1496
     20 C          -1.3383   -0.5360   28.8876 C.3     1  UNL1        0.0230
     21 C          -0.1461    0.3743   28.8903 C.3     1  UNL1        0.0896
     22 C           0.7595    2.7376   19.3853 C.3     1  UNL1        0.0900
     23 C           0.6849    1.4285   18.6569 C.3     1  UNL1        0.0359
     24 C           1.7064    0.3629   18.9230 C.ar    1  UNL1       -0.0215
     25 C           1.5540   -0.5427   20.1090 C.ar    1  UNL1       -0.0011
     26 C           2.5756   -1.6084   20.3751 C.ar    1  UNL1        0.0369
     27 C           3.7495   -1.7684   19.4553 C.ar    1  UNL1        0.1468
     28 C           3.9020   -0.8628   18.2692 C.ar    1  UNL1        0.0369
     29 C           2.8804    0.2028   18.0031 C.ar    1  UNL1       -0.0011
     30 O           4.7711   -2.8341   19.7214 O.3     1  UNL1       -0.4045
     31 C           4.7087   -4.1353   18.9779 C.3     1  UNL1        0.5753
     32 F           4.6463   -5.4366   18.2342 F       1  UNL1       -0.1328
     33 F           3.9011   -4.7330   20.0916 F       1  UNL1       -0.1328
     34 F           5.5162   -3.5376   17.8641 F       1  UNL1       -0.1328
@<TRIPOS>BOND
     1    20    21    1
     2    21    18    1
     3    18     1    1
     4     1     2   ar
     5     2     3   ar
     6     3     4   ar
     7     4     5   ar
     8     5    13    1
     9    13    14   am
    10    13    15    2
    11     5     6   ar
    12     4     7    1
    13     7     8    1
    14     8     9   am
    15     9    10    2
    16     9    22    1
    17    22    23    1
    18    23    24    1
    19    24    25   ar
    20    25    26   ar
    21    26    27   ar
    22    27    30    1
    23    30    31    1
    24    31    32    1
    25    31    33    1
    26    31    34    1
    27    27    28   ar
    28    28    29   ar
    29     8    11    1
    30    11    12    1
    31     6     1   ar
    32    29    24   ar
    33    12     3    1
    34    18    19    1
    35    14    16    1
    36    14    17    1
@<TRIPOS>MOLECULE
*****
 34 36 0 0 0
SMALL
GASTEIGER

@<TRIPOS>ATOM
      1 C           6.6420   -4.4867   30.1787 C.ar    1  UNL1        0.2167
      2 N           7.1886   -5.7124   29.5087 N.ar    1  UNL1       -0.2184
      3 C           7.3589   -5.7399   28.0186 C.ar    1  UNL1        0.0628
      4 C           6.9827   -4.5415   27.1986 C.ar    1  UNL1        0.0336
      5 C           6.4361   -3.3158   27.8686 C.ar    1  UNL1        0.1358
      6 N           6.2658   -3.2884   29.3586 N.ar    1  UNL1       -0.2095
      7 C           7.1530   -4.5689   25.7085 C.3     1  UNL1        0.1229
      8 N           7.6996   -5.7946   25.0386 N.am    1  UNL1       -0.2749
      9 C           7.8699   -5.8220   23.5485 C.2     1  UNL1        0.2262
     10 O           8.4165   -7.0477   22.8785 O.2     1  UNL1       -0.2748
     11 C           8.0758   -6.9929   25.8586 C.3     1  UNL1        0.1000
     12 C           7.9055   -6.9656   27.3486 C.3     1  UNL1        0.0672
     13 C           6.0599   -2.1175   27.0486 C.2     1  UNL1        0.2604
     14 N           4.6707   -1.9923   26.4969 N.am    1  UNL1       -0.3241
     15 O           7.0730   -1.0443   26.7801 O.2     1  UNL1       -0.2687
     16 H           4.0058   -2.6966   26.6731 H       1  UNL1        0.1453
     17 H           4.4238   -1.2058   25.9587 H       1  UNL1        0.1453
     18 N           6.4717   -4.4593   31.6688 N.pl3   1  UNL1       -0.3030
     19 H           6.6442   -5.2707   32.1990 H       1  UNL1        0.1496
     20 C           7.0533   -2.1501   32.7076 C.3     1  UNL1        0.0230
     21 C           6.0386   -3.1956   32.3510 C.3     1  UNL1        0.0896
     22 C           7.4937   -4.6237   22.7284 C.3     1  UNL1        0.0900
     23 C           8.1732   -4.3701   21.4155 C.3     1  UNL1        0.0359
     24 C           7.4677   -3.5932   20.3436 C.ar    1  UNL1       -0.0215
     25 C           6.0420   -3.9105   20.0024 C.ar    1  UNL1       -0.0011
     26 C           5.3365   -3.1336   18.9306 C.ar    1  UNL1        0.0369
     27 C           6.0569   -2.0394   18.2000 C.ar    1  UNL1        0.1468
     28 C           7.4827   -1.7220   18.5412 C.ar    1  UNL1        0.0369
     29 C           8.1882   -2.4989   19.6130 C.ar    1  UNL1       -0.0011
     30 O           5.3514   -1.2625   17.1282 O.3     1  UNL1       -0.4045
     31 C           4.1025   -0.4986   17.4543 C.3     1  UNL1        0.5753
     32 F           2.8534    0.2654   17.7804 F       1  UNL1       -0.1328
     33 F           4.7960    0.1363   18.6230 F       1  UNL1       -0.1328
     34 F           3.4090   -1.1334   16.2856 F       1  UNL1       -0.1328
@<TRIPOS>BOND
     1    20    21    1
     2    21    18    1
     3    18     1    1
     4     1     2   ar
     5     2     3   ar
     6     3     4   ar
     7     4     5   ar
     8     5    13    1
     9    13    14   am
    10    13    15    2
    11     5     6   ar
    12     4     7    1
    13     7     8    1
    14     8     9   am
    15     9    10    2
    16     9    22    1
    17    22    23    1
    18    23    24    1
    19    24    25   ar
    20    25    26   ar
    21    26    27   ar
    22    27    30    1
    23    30    31    1
    24    31    32    1
    25    31    33    1
    26    31    34    1
    27    27    28   ar
    28    28    29   ar
    29     8    11    1
    30    11    12    1
    31     6     1   ar
    32    29    24   ar
    33    12     3    1
    34    18    19    1
    35    14    16    1
    36    14    17    1
@<TRIPOS>MOLECULE
*****
 34 36 0 0 0
SMALL
GASTEIGER

@<TRIPOS>ATOM
      1 C          -3.6953    4.3889   23.7336 C.ar    1  UNL1        0.2167
      2 N          -3.2801    3.9302   25.1001 N.ar    1  UNL1       -0.2184
      3 C          -1.9774    3.2100   25.2858 C.ar    1  UNL1        0.0628
      4 C          -1.0901    2.9485   24.1051 C.ar    1  UNL1        0.0336
      5 C          -1.5054    3.4071   22.7386 C.ar    1  UNL1        0.1358
      6 N          -2.8080    4.1273   22.5529 N.ar    1  UNL1       -0.2095
      7 C           0.2125    2.2283   24.2908 C.3     1  UNL1        0.1229
      8 N           0.6278    1.7697   25.6572 N.am    1  UNL1       -0.2749
      9 C           1.9304    1.0495   25.8430 C.2     1  UNL1        0.2262
     10 O           2.3457    0.5908   27.2094 O.2     1  UNL1       -0.2748
     11 C          -0.2596    2.0312   26.8380 C.3     1  UNL1        0.1000
     12 C          -1.5622    2.7514   26.6523 C.3     1  UNL1        0.0672
     13 C          -0.6180    3.1456   21.5579 C.2     1  UNL1        0.2604
     14 N          -0.7326    1.8532   20.8052 N.am    1  UNL1       -0.3241
     15 O           0.3841    4.1765   21.1298 O.2     1  UNL1       -0.2687
     16 H          -1.3903    1.1766   21.0862 H       1  UNL1        0.1453
     17 H          -0.1502    1.6815   20.0302 H       1  UNL1        0.1453
     18 N          -4.9980    5.1091   23.5479 N.pl3   1  UNL1       -0.3030
     19 H          -5.1164    6.0149   23.9149 H       1  UNL1        0.1496
     20 C          -7.5202    4.5226   23.3367 C.3     1  UNL1        0.0230
     21 C          -6.1203    4.4491   22.8030 C.3     1  UNL1        0.0896
     22 C           2.8178    0.7879   24.6622 C.3     1  UNL1        0.0900
     23 C           3.3859   -0.5824   24.4400 C.3     1  UNL1        0.0359
     24 C           3.4430   -1.1550   23.0547 C.ar    1  UNL1       -0.0215
     25 C           4.3010   -2.3527   22.7730 C.ar    1  UNL1       -0.0011
     26 C           4.3581   -2.9253   21.3878 C.ar    1  UNL1        0.0369
     27 C           3.5572   -2.3002   20.2843 C.ar    1  UNL1        0.1468
     28 C           2.6992   -1.1025   20.5659 C.ar    1  UNL1        0.0369
     29 C           2.6421   -0.5299   21.9512 C.ar    1  UNL1       -0.0011
     30 O           3.6143   -2.8729   18.8990 O.3     1  UNL1       -0.4045
     31 C           4.1798   -4.2443   18.6771 C.3     1  UNL1        0.5753
     32 F           4.7454   -5.6158   18.4552 F       1  UNL1       -0.1328
     33 F           5.4854   -3.6377   18.2558 F       1  UNL1       -0.1328
     34 F           2.8743   -4.8508   19.0985 F       1  UNL1       -0.1328
@<TRIPOS>BOND
     1    20    21    1
     2    21    18    1
     3    18     1    1
     4     1     2   ar
     5     2     3   ar
     6     3     4   ar
     7     4     5   ar
     8     5    13    1
     9    13    14   am
    10    13    15    2
    11     5     6   ar
    12     4     7    1
    13     7     8    1
    14     8     9   am
    15     9    10    2
    16     9    22    1
    17    22    23    1
    18    23    24    1
    19    24    25   ar
    20    25    26   ar
    21    26    27   ar
    22    27    30    1
    23    30    31    1
    24    31    32    1
    25    31    33    1
    26    31    34    1
    27    27    28   ar
    28    28    29   ar
    29     8    11    1
    30    11    12    1
    31     6     1   ar
    32    29    24   ar
    33    12     3    1
    34    18    19    1
    35    14    16    1
    36    14    17    1
@<TRIPOS>MOLECULE
*****
 34 36 0 0 0
SMALL
GASTEIGER

@<TRIPOS>ATOM
      1 C           6.3209   -3.9512   23.5735 C.ar    1  UNL1        0.2167
      2 N           5.5596   -2.8469   24.2450 N.ar    1  UNL1       -0.2184
      3 C           4.5073   -2.0928   23.4874 C.ar    1  UNL1        0.0628
      4 C           4.2162   -2.4431   22.0582 C.ar    1  UNL1        0.0336
      5 C           4.9775   -3.5475   21.3867 C.ar    1  UNL1        0.1358
      6 N           6.0298   -4.3015   22.1443 N.ar    1  UNL1       -0.2095
      7 C           3.1640   -1.6890   21.3005 C.3     1  UNL1        0.1229
      8 N           2.4028   -0.5847   21.9720 N.am    1  UNL1       -0.2749
      9 C           1.3504    0.1694   21.2143 C.2     1  UNL1        0.2262
     10 O           0.5892    1.2737   21.8858 O.2     1  UNL1       -0.2748
     11 C           2.6938   -0.2344   23.4012 C.3     1  UNL1        0.1000
     12 C           3.7461   -0.9884   24.1589 C.3     1  UNL1        0.0672
     13 C           4.6865   -3.8977   19.9575 C.2     1  UNL1        0.2604
     14 N           3.5937   -4.8722   19.6317 N.am    1  UNL1       -0.3241
     15 O           5.4883   -3.2735   18.8540 O.2     1  UNL1       -0.2687
     16 H           3.0674   -5.2819   20.3559 H       1  UNL1        0.1453
     17 H           3.4026   -5.1021   18.6937 H       1  UNL1        0.1453
     18 N           7.3732   -4.7053   24.3312 N.pl3   1  UNL1       -0.3030
     19 H           7.6224   -4.4228   25.2408 H       1  UNL1        0.1496
     20 C           8.1280   -7.1885   24.4488 C.3     1  UNL1        0.0230
     21 C           8.0458   -5.8897   23.7030 C.3     1  UNL1        0.0896
     22 C           1.0594   -0.1809   19.7851 C.3     1  UNL1        0.0900
     23 C           1.4811    0.7470   18.6847 C.3     1  UNL1        0.0359
     24 C           2.8915    0.7141   18.1751 C.ar    1  UNL1       -0.0215
     25 C           3.8042    1.8793   18.4183 C.ar    1  UNL1       -0.0011
     26 C           5.2146    1.8464   17.9088 C.ar    1  UNL1        0.0369
     27 C           5.7123    0.6483   17.1560 C.ar    1  UNL1        0.1468
     28 C           4.7996   -0.5170   16.9128 C.ar    1  UNL1        0.0369
     29 C           3.3892   -0.4841   17.4223 C.ar    1  UNL1       -0.0011
     30 O           7.1228    0.6154   16.6465 O.3     1  UNL1       -0.4045
     31 C           8.2597    0.9561   17.5636 C.3     1  UNL1        0.5753
     32 F           9.3967    1.2969   18.4808 F       1  UNL1       -0.1328
     33 F           7.8214   -0.1235   18.5081 F       1  UNL1       -0.1328
     34 F           8.6980    2.0358   16.6192 F       1  UNL1       -0.1328
@<TRIPOS>BOND
     1    20    21    1
     2    21    18    1
     3    18     1    1
     4     1     2   ar
     5     2     3   ar
     6     3     4   ar
     7     4     5   ar
     8     5    13    1
     9    13    14   am
    10    13    15    2
    11     5     6   ar
    12     4     7    1
    13     7     8    1
    14     8     9   am
    15     9    10    2
    16     9    22    1
    17    22    23    1
    18    23    24    1
    19    24    25   ar
    20    25    26   ar
    21    26    27   ar
    22    27    30    1
    23    30    31    1
    24    31    32    1
    25    31    33    1
    26    31    34    1
    27    27    28   ar
    28    28    29   ar
    29     8    11    1
    30    11    12    1
    31     6     1   ar
    32    29    24   ar
    33    12     3    1
    34    18    19    1
    35    14    16    1
    36    14    17    1
@<TRIPOS>MOLECULE
*****
 34 36 0 0 0
SMALL
GASTEIGER

@<TRIPOS>ATOM
      1 C          -2.3441    3.4778   24.9385 C.ar    1  UNL1        0.2167
      2 N          -1.9122    2.9929   26.2906 N.ar    1  UNL1       -0.2184
      3 C          -0.6205    2.2454   26.4420 C.ar    1  UNL1        0.0628
      4 C           0.2392    1.9829   25.2412 C.ar    1  UNL1        0.0336
      5 C          -0.1927    2.4678   23.8890 C.ar    1  UNL1        0.1358
      6 N          -1.4843    3.2153   23.7377 N.ar    1  UNL1       -0.2095
      7 C           1.5308    1.2354   25.3925 C.3     1  UNL1        0.1229
      8 N           1.9627    0.7505   26.7446 N.am    1  UNL1       -0.2749
      9 C           3.2544    0.0030   26.8960 C.2     1  UNL1        0.2262
     10 O           3.6863   -0.4820   28.2482 O.2     1  UNL1       -0.2748
     11 C           1.1030    1.0130   27.9454 C.3     1  UNL1        0.1000
     12 C          -0.1887    1.7605   27.7941 C.3     1  UNL1        0.0672
     13 C           0.6670    2.2053   22.6882 C.2     1  UNL1        0.2604
     14 N           1.7469    3.1761   22.3122 N.am    1  UNL1       -0.3241
     15 O           0.4469    0.9719   21.8634 O.2     1  UNL1       -0.2687
     16 H           1.8914    3.9856   22.8536 H       1  UNL1        0.1453
     17 H           2.3112    3.0038   21.5241 H       1  UNL1        0.1453
     18 N          -3.6358    4.2254   24.7871 N.pl3   1  UNL1       -0.3030
     19 H          -3.6709    5.1908   24.9765 H       1  UNL1        0.1496
     20 C          -5.0809    3.1836   22.8960 C.3     1  UNL1        0.0230
     21 C          -4.8739    3.5018   24.3471 C.3     1  UNL1        0.0896
     22 C           4.1142   -0.2596   25.6952 C.3     1  UNL1        0.0900
     23 C           4.2928   -1.6615   25.1928 C.3     1  UNL1        0.0359
     24 C           4.1587   -1.9561   23.7281 C.ar    1  UNL1       -0.0215
     25 C           3.3480   -1.0481   22.8516 C.ar    1  UNL1       -0.0011
     26 C           3.2140   -1.3427   21.3869 C.ar    1  UNL1        0.0369
     27 C           3.8906   -2.5452   20.7988 C.ar    1  UNL1        0.1468
     28 C           4.7013   -3.4533   21.6753 C.ar    1  UNL1        0.0369
     29 C           4.8354   -3.1587   23.1399 C.ar    1  UNL1       -0.0011
     30 O           3.7565   -2.8398   19.3341 O.3     1  UNL1       -0.4045
     31 C           4.2442   -4.1474   18.7843 C.3     1  UNL1        0.5753
     32 F           4.7319   -5.4551   18.2345 F       1  UNL1       -0.1328
     33 F           2.9563   -4.7992   19.1923 F       1  UNL1       -0.1328
     34 F           5.5321   -3.4956   18.3764 F       1  UNL1       -0.1328
@<TRIPOS>BOND
     1    20    21    1
     2    21    18    1
     3    18     1    1
     4     1     2   ar
     5     2     3   ar
     6     3     4   ar
     7     4     5   ar
     8     5    13    1
     9    13    14   am
    10    13    15    2
    11     5     6   ar
    12     4     7    1
    13     7     8    1
    14     8     9   am
    15     9    10    2
    16     9    22    1
    17    22    23    1
    18    23    24    1
    19    24    25   ar
    20    25    26   ar
    21    26    27   ar
    22    27    30    1
    23    30    31    1
    24    31    32    1
    25    31    33    1
    26    31    34    1
    27    27    28   ar
    28    28    29   ar
    29     8    11    1
    30    11    12    1
    31     6     1   ar
    32    29    24   ar
    33    12     3    1
    34    18    19    1
    35    14    16    1
    36    14    17    1
