@<TRIPOS>MOLECULE
*****
 24 26 0 0 0
SMALL
GASTEIGER

@<TRIPOS>ATOM
      1 C          -9.2878  -19.1751   21.7066 C.ar    1  UNL1        0.0012
      2 C          -9.3410  -19.4214   20.2279 C.ar    1  UNL1       -0.0003
      3 C          -8.0779  -19.6981   19.4678 C.ar    1  UNL1       -0.0045
      4 C          -6.7615  -19.7286   20.1863 C.ar    1  UNL1       -0.0247
      5 C          -6.7083  -19.4824   21.6649 C.ar    1  UNL1       -0.0247
      6 C          -7.9714  -19.2056   22.4251 C.ar    1  UNL1       -0.0045
      7 C          -5.2754  -19.5750   22.0989 C.3     1  UNL1        0.0437
      8 C          -4.4431  -19.8784   20.8885 C.3     1  UNL1        0.0838
      9 C          -5.3615  -19.9734   19.7064 C.3     1  UNL1        0.0437
     10 C         -14.3403  -18.0682   24.7476 C.3     1  UNL1        0.0521
     11 C         -13.0772  -18.3449   23.9873 C.ar    1  UNL1        0.0594
     12 C         -12.9463  -17.8967   22.5619 C.ar    1  UNL1        0.0147
     13 C         -11.6831  -18.1734   21.8016 C.ar    1  UNL1        0.0028
     14 C         -10.5509  -18.8984   22.4668 C.ar    1  UNL1        0.0191
     15 C         -10.6819  -19.3467   23.8923 C.ar    1  UNL1        0.0984
     16 N         -11.9449  -19.0700   24.6525 N.ar    1  UNL1       -0.2481
     17 N          -2.9538  -20.0558   20.8644 N.3     1  UNL1       -0.1841
     18 H          -2.7412  -20.6528   20.0652 H       1  UNL1        0.1484
     19 S          -2.0574  -18.8576   20.7604 S.O2    1  UNL1        0.0390
     20 O          -1.7271  -18.9782   22.2186 O.2     1  UNL1       -0.1576
     21 O          -2.3877  -18.7371   19.3022 O.2     1  UNL1       -0.1576
     22 C          -1.1610  -17.6594   20.6564 C.3     1  UNL1        0.1457
     23 C          -1.5812  -16.3535   21.2632 C.3     1  UNL1        0.0270
     24 C           0.1555  -17.7671   19.9457 C.3     1  UNL1        0.0270
@<TRIPOS>BOND
     1    10    11    1
     2    11    12   ar
     3    12    13   ar
     4    13    14   ar
     5    14     1    1
     6     1     2   ar
     7     2     3   ar
     8     3     4   ar
     9     4     5   ar
    10     5     6   ar
    11     5     7    1
    12     7     8    1
    13     8    17    1
    14    17    19    1
    15    19    20    2
    16    19    21    2
    17    19    22    1
    18    22    23    1
    19    22    24    1
    20     8     9    1
    21    14    15   ar
    22    15    16   ar
    23    16    11   ar
    24     6     1   ar
    25     9     4    1
    26    17    18    1
@<TRIPOS>MOLECULE
*****
 24 26 0 0 0
SMALL
GASTEIGER

@<TRIPOS>ATOM
      1 C          -8.9613  -17.9125   23.3157 C.ar    1  UNL1        0.0012
      2 C          -8.2072  -16.6927   23.7554 C.ar    1  UNL1       -0.0003
      3 C          -6.7298  -16.5971   23.5144 C.ar    1  UNL1       -0.0045
      4 C          -6.0066  -17.7212   22.8337 C.ar    1  UNL1       -0.0247
      5 C          -6.7607  -18.9410   22.3941 C.ar    1  UNL1       -0.0247
      6 C          -8.2381  -19.0366   22.6350 C.ar    1  UNL1       -0.0045
      7 C          -5.7854  -19.8826   21.7522 C.3     1  UNL1        0.0437
      8 C          -4.4284  -19.2448   21.7951 C.3     1  UNL1        0.0838
      9 C          -4.5651  -17.9089   22.4636 C.3     1  UNL1        0.0437
     10 C         -14.8711  -18.2954   24.2795 C.3     1  UNL1        0.0521
     11 C         -13.3937  -18.1996   24.0386 C.ar    1  UNL1        0.0594
     12 C         -12.8711  -17.3697   22.9036 C.ar    1  UNL1        0.0147
     13 C         -11.3936  -17.2740   22.6626 C.ar    1  UNL1        0.0028
     14 C         -10.4388  -18.0082   23.5566 C.ar    1  UNL1        0.0191
     15 C         -10.9614  -18.8381   24.6916 C.ar    1  UNL1        0.0984
     16 N         -12.4388  -18.9338   24.9326 N.ar    1  UNL1       -0.2481
     17 N          -3.1578  -19.8386   21.2630 N.3     1  UNL1       -0.1841
     18 H          -3.4224  -20.6559   20.7131 H       1  UNL1        0.1484
     19 S          -2.2474  -19.0138   20.4022 S.O2    1  UNL1        0.0390
     20 O          -3.2378  -19.0935   19.2784 O.2     1  UNL1       -0.1576
     21 O          -1.2571  -18.9341   21.5260 O.2     1  UNL1       -0.1576
     22 C          -1.3370  -18.1890   19.5414 C.3     1  UNL1        0.1457
     23 C          -1.8139  -17.6876   18.2105 C.3     1  UNL1        0.0270
     24 C           0.0502  -17.8656   20.0115 C.3     1  UNL1        0.0270
@<TRIPOS>BOND
     1    10    11    1
     2    11    12   ar
     3    12    13   ar
     4    13    14   ar
     5    14     1    1
     6     1     2   ar
     7     2     3   ar
     8     3     4   ar
     9     4     5   ar
    10     5     6   ar
    11     5     7    1
    12     7     8    1
    13     8    17    1
    14    17    19    1
    15    19    20    2
    16    19    21    2
    17    19    22    1
    18    22    23    1
    19    22    24    1
    20     8     9    1
    21    14    15   ar
    22    15    16   ar
    23    16    11   ar
    24     6     1   ar
    25     9     4    1
    26    17    18    1
@<TRIPOS>MOLECULE
*****
 24 26 0 0 0
SMALL
GASTEIGER

@<TRIPOS>ATOM
      1 C          -8.5677  -16.8601   23.6875 C.ar    1  UNL1        0.0012
      2 C          -8.1128  -15.5338   24.2201 C.ar    1  UNL1       -0.0003
      3 C          -6.6515  -15.1961   24.2432 C.ar    1  UNL1       -0.0045
      4 C          -5.6451  -16.1848   23.7337 C.ar    1  UNL1       -0.0247
      5 C          -6.1000  -17.5112   23.2010 C.ar    1  UNL1       -0.0247
      6 C          -7.5613  -17.8488   23.1779 C.ar    1  UNL1       -0.0045
      7 C          -4.8856  -18.2785   22.7693 C.3     1  UNL1        0.0437
      8 C          -3.6801  -17.4263   23.0351 C.3     1  UNL1        0.0838
      9 C          -4.1495  -16.1324   23.6312 C.3     1  UNL1        0.0437
     10 C         -14.4130  -18.2109   23.5950 C.3     1  UNL1        0.0521
     11 C         -12.9517  -17.8733   23.6182 C.ar    1  UNL1        0.0594
     12 C         -12.0105  -18.6729   24.4695 C.ar    1  UNL1        0.0147
     13 C         -10.5492  -18.3352   24.4926 C.ar    1  UNL1        0.0028
     14 C         -10.0290  -17.1979   23.6644 C.ar    1  UNL1        0.0191
     15 C         -10.9702  -16.3982   22.8131 C.ar    1  UNL1        0.0984
     16 N         -12.4315  -16.7359   22.7899 N.ar    1  UNL1       -0.2481
     17 N          -2.2553  -17.8022   22.7543 N.3     1  UNL1       -0.1841
     18 H          -2.1145  -18.7344   23.1438 H       1  UNL1        0.1484
     19 S          -1.7553  -17.8436   21.3407 S.O2    1  UNL1        0.0390
     20 O          -1.8520  -16.3487   21.2628 O.2     1  UNL1       -0.1576
     21 O          -1.6587  -19.3384   21.4185 O.2     1  UNL1       -0.1576
     22 C          -1.2553  -17.8849   19.9270 C.3     1  UNL1        0.1457
     23 C           0.2194  -17.9077   19.6535 C.3     1  UNL1        0.0270
     24 C          -2.2299  -17.9034   18.7870 C.3     1  UNL1        0.0270
@<TRIPOS>BOND
     1    10    11    1
     2    11    12   ar
     3    12    13   ar
     4    13    14   ar
     5    14     1    1
     6     1     2   ar
     7     2     3   ar
     8     3     4   ar
     9     4     5   ar
    10     5     6   ar
    11     5     7    1
    12     7     8    1
    13     8    17    1
    14    17    19    1
    15    19    20    2
    16    19    21    2
    17    19    22    1
    18    22    23    1
    19    22    24    1
    20     8     9    1
    21    14    15   ar
    22    15    16   ar
    23    16    11   ar
    24     6     1   ar
    25     9     4    1
    26    17    18    1
@<TRIPOS>MOLECULE
*****
 24 26 0 0 0
SMALL
GASTEIGER

@<TRIPOS>ATOM
      1 C           5.5317   -1.2365   32.4924 C.ar    1  UNL1        0.0012
      2 C           5.1701    0.0423   31.7970 C.ar    1  UNL1       -0.0003
      3 C           4.6818    1.2165   32.5925 C.ar    1  UNL1       -0.0045
      4 C           4.5551    1.1117   34.0835 C.ar    1  UNL1       -0.0247
      5 C           4.9167   -0.1671   34.7789 C.ar    1  UNL1       -0.0247
      6 C           5.4051   -1.3413   33.9834 C.ar    1  UNL1       -0.0045
      7 C           4.6908    0.0249   36.2493 C.3     1  UNL1        0.0437
      8 C           4.1895    1.4225   36.4626 C.3     1  UNL1        0.0838
      9 C           4.1056    2.0942   35.1241 C.3     1  UNL1        0.0437
     10 C           7.4850   -5.9332   29.3102 C.3     1  UNL1        0.0521
     11 C           6.9967   -4.7591   30.1058 C.ar    1  UNL1        0.0594
     12 C           6.9108   -4.8495   31.6006 C.ar    1  UNL1        0.0147
     13 C           6.4224   -3.6753   32.3961 C.ar    1  UNL1        0.0028
     14 C           6.0201   -2.4107   31.6969 C.ar    1  UNL1        0.0191
     15 C           6.1060   -2.3203   30.2021 C.ar    1  UNL1        0.0984
     16 N           6.5943   -3.4945   29.4065 N.ar    1  UNL1       -0.2481
     17 N           3.8345    2.0399   37.7828 N.3     1  UNL1       -0.1841
     18 H           3.7900    3.0480   37.6340 H       1  UNL1        0.1484
     19 S           2.5634    1.6482   38.4763 S.O2    1  UNL1        0.0390
     20 O           1.7678    2.3360   37.4068 O.2     1  UNL1       -0.1576
     21 O           3.3590    0.9603   39.5459 O.2     1  UNL1       -0.1576
     22 C           1.2923    1.2564   39.1699 C.3     1  UNL1        0.1457
     23 C           0.2299    2.2841   39.4252 C.3     1  UNL1        0.0270
     24 C           1.0838   -0.1629   39.6080 C.3     1  UNL1        0.0270
@<TRIPOS>BOND
     1    10    11    1
     2    11    12   ar
     3    12    13   ar
     4    13    14   ar
     5    14     1    1
     6     1     2   ar
     7     2     3   ar
     8     3     4   ar
     9     4     5   ar
    10     5     6   ar
    11     5     7    1
    12     7     8    1
    13     8    17    1
    14    17    19    1
    15    19    20    2
    16    19    21    2
    17    19    22    1
    18    22    23    1
    19    22    24    1
    20     8     9    1
    21    14    15   ar
    22    15    16   ar
    23    16    11   ar
    24     6     1   ar
    25     9     4    1
    26    17    18    1
@<TRIPOS>MOLECULE
*****
 24 26 0 0 0
SMALL
GASTEIGER

@<TRIPOS>ATOM
      1 C         -12.5697   -2.4694   18.8158 C.ar    1  UNL1        0.0012
      2 C         -12.0042   -1.2762   18.1041 C.ar    1  UNL1       -0.0003
      3 C         -12.7623    0.0180   18.0909 C.ar    1  UNL1       -0.0045
      4 C         -14.0859    0.1191   18.7893 C.ar    1  UNL1       -0.0247
      5 C         -14.6514   -1.0740   19.5011 C.ar    1  UNL1       -0.0247
      6 C         -13.8933   -2.3683   19.5143 C.ar    1  UNL1       -0.0045
      7 C         -15.9692   -0.6765   20.0972 C.3     1  UNL1        0.0437
      8 C         -16.2181    0.7623   19.7539 C.3     1  UNL1        0.0838
      9 C         -15.0542    1.2541   18.9456 C.3     1  UNL1        0.0437
     10 C          -9.5376   -7.6466   18.8690 C.3     1  UNL1        0.0521
     11 C         -10.2956   -6.3523   18.8557 C.ar    1  UNL1        0.0594
     12 C          -9.5678   -5.0591   18.6366 C.ar    1  UNL1        0.0147
     13 C         -10.3259   -3.7648   18.6233 C.ar    1  UNL1        0.0028
     14 C         -11.8116   -3.7637   18.8291 C.ar    1  UNL1        0.0191
     15 C         -12.5394   -5.0569   19.0482 C.ar    1  UNL1        0.0984
     16 N         -11.7814   -6.3512   19.0615 N.ar    1  UNL1       -0.2481
     17 N         -17.4200    1.5680   20.1496 N.3     1  UNL1       -0.1841
     18 H         -18.2351    0.9730   20.0013 H       1  UNL1        0.1484
     19 S         -17.5309    2.1153   21.5417 S.O2    1  UNL1        0.0390
     20 O         -16.4923    3.1481   21.2184 O.2     1  UNL1       -0.1576
     21 O         -18.5696    1.0825   21.8651 O.2     1  UNL1       -0.1576
     22 C         -17.6418    2.6626   22.9339 C.3     1  UNL1        0.1457
     23 C         -18.7666    2.2247   23.8246 C.3     1  UNL1        0.0270
     24 C         -16.6280    3.6478   23.4354 C.3     1  UNL1        0.0270
@<TRIPOS>BOND
     1    10    11    1
     2    11    12   ar
     3    12    13   ar
     4    13    14   ar
     5    14     1    1
     6     1     2   ar
     7     2     3   ar
     8     3     4   ar
     9     4     5   ar
    10     5     6   ar
    11     5     7    1
    12     7     8    1
    13     8    17    1
    14    17    19    1
    15    19    20    2
    16    19    21    2
    17    19    22    1
    18    22    23    1
    19    22    24    1
    20     8     9    1
    21    14    15   ar
    22    15    16   ar
    23    16    11   ar
    24     6     1   ar
    25     9     4    1
    26    17    18    1
