@<TRIPOS>MOLECULE
*****
 38 40 0 0 0
SMALL
GASTEIGER

@<TRIPOS>ATOM
      1 C          -2.1336  -17.2486   21.6868 C.3     1  UNL1        0.0770
      2 C          -1.4573  -18.1753   22.6532 C.3     1  UNL1        0.0214
      3 N          -5.1792  -15.2071   23.2055 N.am    1  UNL1       -0.2683
      4 C          -4.3532  -16.3504   22.6951 C.2     1  UNL1        0.3044
      5 O          -4.9207  -17.7389   22.6827 O.2     1  UNL1       -0.2525
      6 N          -2.9597  -16.1053   22.1972 N.am    1  UNL1       -0.2902
      7 H          -4.8068  -14.2958   23.2136 H       1  UNL1        0.1564
      8 H          -2.5872  -15.1940   22.2053 H       1  UNL1        0.1509
      9 C          -9.0888  -15.8888   23.2249 C.ar    1  UNL1        0.0360
     10 C          -7.6953  -15.6436   22.7270 C.ar    1  UNL1        0.0176
     11 C          -6.5728  -15.4523   23.7035 C.ar    1  UNL1        0.0517
     12 C          -6.8438  -15.5061   25.1778 C.ar    1  UNL1        0.0176
     13 C          -8.2373  -15.7513   25.6756 C.ar    1  UNL1        0.0360
     14 C          -9.3598  -15.9427   24.6992 C.ar    1  UNL1        0.0058
     15 C         -11.6201  -16.2222   22.7437 C.3     1  UNL1        0.0773
     16 C         -10.2113  -16.0802   22.2485 C.2     1  UNL1        0.1735
     17 O          -9.9251  -16.1295   20.7769 O.2     1  UNL1       -0.2913
     18 C          -8.5084  -15.8052   27.1500 C.2     1  UNL1        0.1735
     19 C          -8.4804  -14.5458   27.9642 C.3     1  UNL1        0.0773
     20 O          -8.8075  -17.1185   27.8101 O.2     1  UNL1       -0.2913
     21 C          -1.9838  -17.4651   20.2101 C.3     1  UNL1        0.0661
     22 C          -3.1997  -17.6566   19.3530 C.3     1  UNL1        0.1738
     23 O          -3.4668  -16.7220   18.2105 O.3     1  UNL1       -0.3697
     24 H          -4.2864  -16.9844   17.7630 H       1  UNL1        0.2119
     25 N          -4.1487  -18.7828   19.6383 N.3     1  UNL1       -0.2511
     26 C          -3.6171  -20.1423   19.9833 C.3     1  UNL1        0.0742
     27 C          -4.5661  -21.2683   20.2687 C.3     1  UNL1        0.0175
     28 C          -6.0466  -21.0349   20.2090 C.3     1  UNL1        0.0031
     29 C          -6.5782  -19.6753   19.8640 C.3     1  UNL1        0.0205
     30 C          -5.6292  -18.5493   19.5787 C.3     1  UNL1        0.0745
     31 C          -8.0587  -19.4419   19.8043 C.3     1  UNL1        0.0277
     32 C          -8.8808  -19.5168   21.0566 C.ar    1  UNL1       -0.0220
     33 C         -10.3702  -19.6724   20.9679 C.ar    1  UNL1       -0.0020
     34 C         -11.1923  -19.7473   22.2202 C.ar    1  UNL1        0.0293
     35 C         -10.5253  -19.6667   23.5613 C.ar    1  UNL1        0.1401
     36 F         -11.3475  -19.7416   24.8137 F       1  UNL1       -0.2042
     37 C          -9.0360  -19.5111   23.6501 C.ar    1  UNL1        0.0293
     38 C          -8.2138  -19.4362   22.3977 C.ar    1  UNL1       -0.0020
@<TRIPOS>BOND
     1    15    16    1
     2    16    17    2
     3    16     9    1
     4     9    10   ar
     5    10    11   ar
     6    11     3    1
     7     3     4   am
     8     4     5    2
     9     4     6   am
    10     6     1    1
    11     1     2    1
    12     1    21    1
    13    21    22    1
    14    22    23    1
    15    22    25    1
    16    25    26    1
    17    26    27    1
    18    27    28    1
    19    28    29    1
    20    29    31    1
    21    31    32    1
    22    32    33   ar
    23    33    34   ar
    24    34    35   ar
    25    35    36    1
    26    35    37   ar
    27    37    38   ar
    28    29    30    1
    29    11    12   ar
    30    12    13   ar
    31    13    18    1
    32    18    19    1
    33    18    20    2
    34    13    14   ar
    35    14     9   ar
    36    30    25    1
    37    38    32   ar
    38     3     7    1
    39     6     8    1
    40    23    24    1
@<TRIPOS>MOLECULE
*****
 38 40 0 0 0
SMALL
GASTEIGER

@<TRIPOS>ATOM
      1 C          -2.1354  -17.2439   21.7082 C.3     1  UNL1        0.0770
      2 C          -1.4791  -18.1727   22.6863 C.3     1  UNL1        0.0214
      3 N          -5.1922  -15.2000   23.2009 N.am    1  UNL1       -0.2683
      4 C          -4.3598  -16.3452   22.7052 C.2     1  UNL1        0.3044
      5 O          -4.9196  -17.7369   22.7108 O.2     1  UNL1       -0.2525
      6 N          -2.9678  -16.0988   22.2039 N.am    1  UNL1       -0.2902
      7 H          -4.8249  -14.2866   23.1972 H       1  UNL1        0.1564
      8 H          -2.6004  -15.1854   22.2002 H       1  UNL1        0.1509
      9 C          -8.2451  -15.7393   25.6786 C.ar    1  UNL1        0.0360
     10 C          -6.8531  -15.4928   25.1772 C.ar    1  UNL1        0.0176
     11 C          -6.5843  -15.4465   23.7022 C.ar    1  UNL1        0.0517
     12 C          -7.7076  -15.6468   22.7285 C.ar    1  UNL1        0.0176
     13 C          -9.0997  -15.8932   23.2299 C.ar    1  UNL1        0.0360
     14 C          -9.3684  -15.9395   24.7049 C.ar    1  UNL1        0.0058
     15 C          -8.4913  -14.5211   27.9601 C.3     1  UNL1        0.0773
     16 C          -8.5139  -15.7856   27.1536 C.2     1  UNL1        0.1735
     17 O          -8.8053  -17.0964   27.8220 O.2     1  UNL1       -0.2913
     18 C         -10.2231  -16.0935   22.2562 C.2     1  UNL1        0.1735
     19 C         -11.6304  -16.2388   22.7544 C.3     1  UNL1        0.0773
     20 O          -9.9391  -16.1484   20.7844 O.2     1  UNL1       -0.2913
     21 C          -1.9593  -17.4604   20.2344 C.3     1  UNL1        0.0661
     22 C          -3.1589  -17.6687   19.3583 C.3     1  UNL1        0.1738
     23 O          -3.3994  -16.7619   18.1879 O.3     1  UNL1       -0.3697
     24 H          -4.2111  -17.0323   17.7308 H       1  UNL1        0.2119
     25 N          -4.1180  -18.7838   19.6526 N.3     1  UNL1       -0.2511
     26 C          -3.5988  -20.1457   20.0070 C.3     1  UNL1        0.0742
     27 C          -4.5579  -21.2608   20.3013 C.3     1  UNL1        0.0175
     28 C          -6.0362  -21.0140   20.2413 C.3     1  UNL1        0.0031
     29 C          -6.5555  -19.6521   19.8870 C.3     1  UNL1        0.0205
     30 C          -5.5963  -18.5370   19.5926 C.3     1  UNL1        0.0745
     31 C          -8.0338  -19.4052   19.8270 C.3     1  UNL1        0.0277
     32 C          -8.8608  -19.4969   21.0750 C.ar    1  UNL1       -0.0220
     33 C         -10.3473  -19.6734   20.9785 C.ar    1  UNL1       -0.0020
     34 C         -11.1742  -19.7650   22.2266 C.ar    1  UNL1        0.0293
     35 C         -10.5148  -19.6803   23.5712 C.ar    1  UNL1        0.1401
     36 F         -11.3418  -19.7720   24.8193 F       1  UNL1       -0.2042
     37 C          -9.0283  -19.5039   23.6677 C.ar    1  UNL1        0.0293
     38 C          -8.2013  -19.4122   22.4196 C.ar    1  UNL1       -0.0020
@<TRIPOS>BOND
     1    15    16    1
     2    16    17    2
     3    16     9    1
     4     9    10   ar
     5    10    11   ar
     6    11     3    1
     7     3     4   am
     8     4     5    2
     9     4     6   am
    10     6     1    1
    11     1     2    1
    12     1    21    1
    13    21    22    1
    14    22    23    1
    15    22    25    1
    16    25    26    1
    17    26    27    1
    18    27    28    1
    19    28    29    1
    20    29    31    1
    21    31    32    1
    22    32    33   ar
    23    33    34   ar
    24    34    35   ar
    25    35    36    1
    26    35    37   ar
    27    37    38   ar
    28    29    30    1
    29    11    12   ar
    30    12    13   ar
    31    13    18    1
    32    18    19    1
    33    18    20    2
    34    13    14   ar
    35    14     9   ar
    36    30    25    1
    37    38    32   ar
    38     3     7    1
    39     6     8    1
    40    23    24    1
@<TRIPOS>MOLECULE
*****
 38 40 0 0 0
SMALL
GASTEIGER

@<TRIPOS>ATOM
      1 C          -6.3060  -15.6454   26.2138 C.3     1  UNL1        0.0770
      2 C          -6.6645  -14.7688   27.3771 C.3     1  UNL1        0.0214
      3 N          -9.3000  -17.8699   24.8584 N.am    1  UNL1       -0.2683
      4 C          -8.4582  -16.6712   25.1816 C.2     1  UNL1        0.3044
      5 O          -8.9270  -15.2995   24.7958 O.2     1  UNL1       -0.2525
      6 N          -7.1478  -16.8441   25.8906 N.am    1  UNL1       -0.2902
      7 H          -8.9924  -18.7702   25.1116 H       1  UNL1        0.1564
      8 H          -6.8401  -17.7444   26.1438 H       1  UNL1        0.1509
      9 C         -11.9638  -16.8645   22.0937 C.ar    1  UNL1        0.0360
     10 C         -10.6534  -17.0375   22.8028 C.ar    1  UNL1        0.0176
     11 C         -10.6106  -17.6969   24.1494 C.ar    1  UNL1        0.0517
     12 C         -11.8782  -18.1833   24.7870 C.ar    1  UNL1        0.0176
     13 C         -13.1886  -18.0102   24.0779 C.ar    1  UNL1        0.0360
     14 C         -13.2314  -17.3509   22.7313 C.ar    1  UNL1        0.0058
     15 C         -10.7302  -15.8254   20.0570 C.3     1  UNL1        0.0773
     16 C         -12.0067  -16.2051   20.7471 C.2     1  UNL1        0.1735
     17 O         -13.3260  -15.9255   20.0906 O.2     1  UNL1       -0.2913
     18 C         -14.4563  -18.4966   24.7155 C.2     1  UNL1        0.1735
     19 C         -15.7008  -18.6461   23.8916 C.3     1  UNL1        0.0773
     20 O         -14.4794  -18.8335   26.1770 O.2     1  UNL1       -0.2913
     21 C          -5.1057  -15.3233   25.3739 C.3     1  UNL1        0.0661
     22 C          -5.1510  -15.5332   23.8894 C.3     1  UNL1        0.1738
     23 O          -5.7553  -14.4857   23.0019 O.3     1  UNL1       -0.3697
     24 H          -5.7047  -14.7764   22.0779 H       1  UNL1        0.2119
     25 N          -4.5918  -16.7906   23.2922 N.3     1  UNL1       -0.2511
     26 C          -3.1146  -16.9218   23.0676 C.3     1  UNL1        0.0742
     27 C          -2.5556  -18.1791   22.4705 C.3     1  UNL1        0.0175
     28 C          -3.4738  -19.3052   22.0981 C.3     1  UNL1        0.0031
     29 C          -4.9510  -19.1740   22.3227 C.3     1  UNL1        0.0205
     30 C          -5.5100  -17.9167   22.9198 C.3     1  UNL1        0.0745
     31 C          -5.8692  -20.3002   21.9502 C.3     1  UNL1        0.0277
     32 C          -7.1579  -20.0130   21.2384 C.ar    1  UNL1       -0.0220
     33 C          -8.4466  -19.9778   22.0053 C.ar    1  UNL1       -0.0020
     34 C          -9.7353  -19.6906   21.2935 C.ar    1  UNL1        0.0293
     35 C          -9.7354  -19.4386   19.8148 C.ar    1  UNL1        0.1401
     36 F         -11.0242  -19.1514   19.1030 F       1  UNL1       -0.2042
     37 C          -8.4468  -19.4738   19.0479 C.ar    1  UNL1        0.0293
     38 C          -7.1580  -19.7610   19.7597 C.ar    1  UNL1       -0.0020
@<TRIPOS>BOND
     1    15    16    1
     2    16    17    2
     3    16     9    1
     4     9    10   ar
     5    10    11   ar
     6    11     3    1
     7     3     4   am
     8     4     5    2
     9     4     6   am
    10     6     1    1
    11     1     2    1
    12     1    21    1
    13    21    22    1
    14    22    23    1
    15    22    25    1
    16    25    26    1
    17    26    27    1
    18    27    28    1
    19    28    29    1
    20    29    31    1
    21    31    32    1
    22    32    33   ar
    23    33    34   ar
    24    34    35   ar
    25    35    36    1
    26    35    37   ar
    27    37    38   ar
    28    29    30    1
    29    11    12   ar
    30    12    13   ar
    31    13    18    1
    32    18    19    1
    33    18    20    2
    34    13    14   ar
    35    14     9   ar
    36    30    25    1
    37    38    32   ar
    38     3     7    1
    39     6     8    1
    40    23    24    1
@<TRIPOS>MOLECULE
*****
 38 40 0 0 0
SMALL
GASTEIGER

@<TRIPOS>ATOM
      1 C          -6.3333  -15.6349   26.2248 C.3     1  UNL1        0.0770
      2 C          -6.6824  -14.7764   27.4042 C.3     1  UNL1        0.0214
      3 N          -9.3166  -17.8672   24.8586 N.am    1  UNL1       -0.2683
      4 C          -8.4797  -16.6662   25.1860 C.2     1  UNL1        0.3044
      5 O          -8.9524  -15.2954   24.8017 O.2     1  UNL1       -0.2525
      6 N          -7.1702  -16.8359   25.8974 N.am    1  UNL1       -0.2902
      7 H          -9.0064  -18.7669   25.1108 H       1  UNL1        0.1564
      8 H          -6.8600  -17.7356   26.1496 H       1  UNL1        0.1509
      9 C         -13.2038  -18.0147   24.0721 C.ar    1  UNL1        0.0360
     10 C         -11.8942  -18.1844   24.7836 C.ar    1  UNL1        0.0176
     11 C         -10.6262  -17.6974   24.1471 C.ar    1  UNL1        0.0517
     12 C         -10.6678  -17.0407   22.7992 C.ar    1  UNL1        0.0176
     13 C         -11.9774  -16.8710   22.0877 C.ar    1  UNL1        0.0360
     14 C         -13.2453  -17.3580   22.7242 C.ar    1  UNL1        0.0058
     15 C         -15.7064  -18.6843   23.8767 C.3     1  UNL1        0.0773
     16 C         -14.4717  -18.5016   24.7086 C.2     1  UNL1        0.1735
     17 O         -14.5050  -18.8059   26.1770 O.2     1  UNL1       -0.2913
     18 C         -12.0190  -16.2143   20.7397 C.2     1  UNL1        0.1735
     19 C         -10.7414  -15.8572   20.0396 C.3     1  UNL1        0.0773
     20 O         -13.3383  -15.9146   20.0919 O.2     1  UNL1       -0.2913
     21 C          -5.1473  -15.2924   25.3726 C.3     1  UNL1        0.0661
     22 C          -5.1989  -15.5167   23.8904 C.3     1  UNL1        0.1738
     23 O          -5.8225  -14.4856   22.9971 O.3     1  UNL1       -0.3697
     24 H          -5.7737  -14.7842   22.0755 H       1  UNL1        0.2119
     25 N          -4.6269  -16.7721   23.3015 N.3     1  UNL1       -0.2511
     26 C          -3.1467  -16.8958   23.0926 C.3     1  UNL1        0.0742
     27 C          -2.5748  -18.1512   22.5037 C.3     1  UNL1        0.0175
     28 C          -3.4830  -19.2829   22.1237 C.3     1  UNL1        0.0031
     29 C          -4.9632  -19.1592   22.3326 C.3     1  UNL1        0.0205
     30 C          -5.5352  -17.9038   22.9215 C.3     1  UNL1        0.0745
     31 C          -5.8715  -20.2909   21.9527 C.3     1  UNL1        0.0277
     32 C          -7.1659  -20.0098   21.2490 C.ar    1  UNL1       -0.0220
     33 C          -8.4477  -19.9631   22.0268 C.ar    1  UNL1       -0.0020
     34 C          -9.7422  -19.6820   21.3231 C.ar    1  UNL1        0.0293
     35 C          -9.7550  -19.4477   19.8416 C.ar    1  UNL1        0.1401
     36 F         -11.0496  -19.1666   19.1378 F       1  UNL1       -0.2042
     37 C          -8.4733  -19.4944   19.0637 C.ar    1  UNL1        0.0293
     38 C          -7.1787  -19.7755   19.7675 C.ar    1  UNL1       -0.0020
@<TRIPOS>BOND
     1    15    16    1
     2    16    17    2
     3    16     9    1
     4     9    10   ar
     5    10    11   ar
     6    11     3    1
     7     3     4   am
     8     4     5    2
     9     4     6   am
    10     6     1    1
    11     1     2    1
    12     1    21    1
    13    21    22    1
    14    22    23    1
    15    22    25    1
    16    25    26    1
    17    26    27    1
    18    27    28    1
    19    28    29    1
    20    29    31    1
    21    31    32    1
    22    32    33   ar
    23    33    34   ar
    24    34    35   ar
    25    35    36    1
    26    35    37   ar
    27    37    38   ar
    28    29    30    1
    29    11    12   ar
    30    12    13   ar
    31    13    18    1
    32    18    19    1
    33    18    20    2
    34    13    14   ar
    35    14     9   ar
    36    30    25    1
    37    38    32   ar
    38     3     7    1
    39     6     8    1
    40    23    24    1
@<TRIPOS>MOLECULE
*****
 38 40 0 0 0
SMALL
GASTEIGER

@<TRIPOS>ATOM
      1 C          -4.8930  -16.1998   23.8830 C.3     1  UNL1        0.0770
      2 C          -4.4966  -14.9773   23.1093 C.3     1  UNL1        0.0214
      3 N          -8.8267  -16.4606   24.3396 N.am    1  UNL1       -0.2683
      4 C          -7.4769  -16.3897   23.6891 C.2     1  UNL1        0.3044
      5 O          -7.3612  -16.4377   22.1943 O.2     1  UNL1       -0.2525
      6 N          -6.2428  -16.2707   24.5334 N.am    1  UNL1       -0.2902
      7 H          -8.9026  -16.4290   25.3206 H       1  UNL1        0.1564
      8 H          -6.3187  -16.2392   25.5145 H       1  UNL1        0.1509
      9 C         -11.3114  -16.1305   21.2626 C.ar    1  UNL1        0.0360
     10 C         -10.0773  -16.0115   22.1070 C.ar    1  UNL1        0.0176
     11 C         -10.0608  -16.5796   23.4952 C.ar    1  UNL1        0.0517
     12 C         -11.2782  -17.2665   24.0390 C.ar    1  UNL1        0.0176
     13 C         -12.5123  -17.3855   23.1946 C.ar    1  UNL1        0.0360
     14 C         -12.5288  -16.8174   21.8065 C.ar    1  UNL1        0.0058
     15 C         -12.4842  -15.8457   18.9619 C.3     1  UNL1        0.0773
     16 C         -11.3279  -15.5624   19.8745 C.2     1  UNL1        0.1735
     17 O         -10.1882  -14.7112   19.3988 O.2     1  UNL1       -0.2913
     18 C         -13.7298  -18.0725   23.7385 C.2     1  UNL1        0.1735
     19 C         -13.8261  -18.3798   25.2034 C.3     1  UNL1        0.0773
     20 O         -14.8510  -18.4522   22.8172 O.2     1  UNL1       -0.2913
     21 C          -3.9397  -17.3513   24.0062 C.3     1  UNL1        0.0661
     22 C          -3.1252  -17.7807   22.8220 C.3     1  UNL1        0.1738
     23 O          -1.7178  -17.2876   22.6613 O.3     1  UNL1       -0.3697
     24 H          -1.3364  -17.6572   21.8495 H       1  UNL1        0.2119
     25 N          -3.7183  -18.7031   21.7986 N.3     1  UNL1       -0.2511
     26 C          -2.8725  -19.7723   21.1729 C.3     1  UNL1        0.0742
     27 C          -3.4656  -20.6947   20.1495 C.3     1  UNL1        0.0175
     28 C          -4.9044  -20.5480   19.7518 C.3     1  UNL1        0.0031
     29 C          -5.7502  -19.4788   20.3775 C.3     1  UNL1        0.0205
     30 C          -5.1571  -18.5564   21.4008 C.3     1  UNL1        0.0745
     31 C          -7.1890  -19.3321   19.9797 C.3     1  UNL1        0.0277
     32 C          -8.2752  -19.6349   20.9689 C.ar    1  UNL1       -0.0220
     33 C          -7.9309  -19.8883   22.4067 C.ar    1  UNL1       -0.0020
     34 C          -9.0171  -20.1911   23.3959 C.ar    1  UNL1        0.0293
     35 C         -10.4476  -20.2407   22.9473 C.ar    1  UNL1        0.1401
     36 F         -11.5338  -20.5435   23.9365 F       1  UNL1       -0.2042
     37 C         -10.7919  -19.9873   21.5095 C.ar    1  UNL1        0.0293
     38 C          -9.7057  -19.6845   20.5203 C.ar    1  UNL1       -0.0020
@<TRIPOS>BOND
     1    15    16    1
     2    16    17    2
     3    16     9    1
     4     9    10   ar
     5    10    11   ar
     6    11     3    1
     7     3     4   am
     8     4     5    2
     9     4     6   am
    10     6     1    1
    11     1     2    1
    12     1    21    1
    13    21    22    1
    14    22    23    1
    15    22    25    1
    16    25    26    1
    17    26    27    1
    18    27    28    1
    19    28    29    1
    20    29    31    1
    21    31    32    1
    22    32    33   ar
    23    33    34   ar
    24    34    35   ar
    25    35    36    1
    26    35    37   ar
    27    37    38   ar
    28    29    30    1
    29    11    12   ar
    30    12    13   ar
    31    13    18    1
    32    18    19    1
    33    18    20    2
    34    13    14   ar
    35    14     9   ar
    36    30    25    1
    37    38    32   ar
    38     3     7    1
    39     6     8    1
    40    23    24    1
@<TRIPOS>MOLECULE
*****
 38 40 0 0 0
SMALL
GASTEIGER

@<TRIPOS>ATOM
      1 C          -4.8595  -16.1183   23.8850 C.3     1  UNL1        0.0770
      2 C          -4.4229  -14.8899   23.1430 C.3     1  UNL1        0.0214
      3 N          -8.7980  -16.3603   24.3084 N.am    1  UNL1       -0.2683
      4 C          -7.4414  -16.3121   23.6703 C.2     1  UNL1        0.3044
      5 O          -7.3100  -16.4097   22.1792 O.2     1  UNL1       -0.2525
      6 N          -6.2161  -16.1664   24.5232 N.am    1  UNL1       -0.2902
      7 H          -8.8842  -16.2962   25.2870 H       1  UNL1        0.1564
      8 H          -6.3023  -16.1024   25.5018 H       1  UNL1        0.1509
      9 C         -12.4555  -17.3628   23.1389 C.ar    1  UNL1        0.0360
     10 C         -11.2303  -17.2170   23.9918 C.ar    1  UNL1        0.0176
     11 C         -10.0233  -16.5060   23.4554 C.ar    1  UNL1        0.0517
     12 C         -10.0416  -15.9407   22.0662 C.ar    1  UNL1        0.0176
     13 C         -11.2669  -16.0864   21.2133 C.ar    1  UNL1        0.0360
     14 C         -12.4738  -16.7975   21.7497 C.ar    1  UNL1        0.0058
     15 C         -13.7524  -18.4013   25.1363 C.3     1  UNL1        0.0773
     16 C         -13.6625  -18.0738   23.6753 C.2     1  UNL1        0.1735
     17 O         -14.7795  -18.4575   22.7506 O.2     1  UNL1       -0.2913
     18 C         -11.2852  -15.5211   19.8240 C.2     1  UNL1        0.1735
     19 C         -12.4343  -15.8206   18.9075 C.3     1  UNL1        0.0773
     20 O         -10.1544  -14.6564   19.3512 O.2     1  UNL1       -0.2913
     21 C          -3.9395  -17.2984   23.9890 C.3     1  UNL1        0.0661
     22 C          -3.1216  -17.7185   22.8038 C.3     1  UNL1        0.1738
     23 O          -1.7203  -17.2090   22.6409 O.3     1  UNL1       -0.3697
     24 H          -1.3358  -17.5742   21.8288 H       1  UNL1        0.2119
     25 N          -3.7052  -18.6482   21.7814 N.3     1  UNL1       -0.2511
     26 C          -2.8502  -19.7132   21.1614 C.3     1  UNL1        0.0742
     27 C          -3.4338  -20.6428   20.1391 C.3     1  UNL1        0.0175
     28 C          -4.8725  -20.5074   19.7368 C.3     1  UNL1        0.0031
     29 C          -5.7275  -19.4424   20.3568 C.3     1  UNL1        0.0205
     30 C          -5.1439  -18.5127   21.3791 C.3     1  UNL1        0.0745
     31 C          -7.1662  -19.3069   19.9545 C.3     1  UNL1        0.0277
     32 C          -8.2531  -19.6151   20.9413 C.ar    1  UNL1       -0.0220
     33 C          -9.6855  -19.6380   20.4965 C.ar    1  UNL1       -0.0020
     34 C         -10.7724  -19.9461   21.4832 C.ar    1  UNL1        0.0293
     35 C         -10.4270  -20.2314   22.9148 C.ar    1  UNL1        0.1401
     36 F         -11.5139  -20.5395   23.9015 F       1  UNL1       -0.2042
     37 C          -8.9946  -20.2085   23.3596 C.ar    1  UNL1        0.0293
     38 C          -7.9077  -19.9003   22.3728 C.ar    1  UNL1       -0.0020
@<TRIPOS>BOND
     1    15    16    1
     2    16    17    2
     3    16     9    1
     4     9    10   ar
     5    10    11   ar
     6    11     3    1
     7     3     4   am
     8     4     5    2
     9     4     6   am
    10     6     1    1
    11     1     2    1
    12     1    21    1
    13    21    22    1
    14    22    23    1
    15    22    25    1
    16    25    26    1
    17    26    27    1
    18    27    28    1
    19    28    29    1
    20    29    31    1
    21    31    32    1
    22    32    33   ar
    23    33    34   ar
    24    34    35   ar
    25    35    36    1
    26    35    37   ar
    27    37    38   ar
    28    29    30    1
    29    11    12   ar
    30    12    13   ar
    31    13    18    1
    32    18    19    1
    33    18    20    2
    34    13    14   ar
    35    14     9   ar
    36    30    25    1
    37    38    32   ar
    38     3     7    1
    39     6     8    1
    40    23    24    1
@<TRIPOS>MOLECULE
*****
 38 40 0 0 0
SMALL
GASTEIGER

@<TRIPOS>ATOM
      1 C          -4.6393  -16.3769   24.9618 C.3     1  UNL1        0.0770
      2 C          -4.4991  -16.4564   26.4531 C.3     1  UNL1        0.0214
      3 N          -7.9873  -15.1379   23.2282 N.am    1  UNL1       -0.2683
      4 C          -6.9575  -16.0424   23.8375 C.2     1  UNL1        0.3044
      5 O          -7.2161  -17.5170   23.9318 O.2     1  UNL1       -0.2525
      6 N          -5.6692  -15.4724   24.3525 N.am    1  UNL1       -0.2902
      7 H          -7.8177  -14.1701   23.1663 H       1  UNL1        0.1564
      8 H          -5.4995  -14.5046   24.2905 H       1  UNL1        0.1509
      9 C         -11.0502  -15.9137   20.8268 C.ar    1  UNL1        0.0360
     10 C          -9.7619  -15.3437   21.3417 C.ar    1  UNL1        0.0176
     11 C          -9.2758  -15.7080   22.7132 C.ar    1  UNL1        0.0517
     12 C         -10.0779  -16.6422   23.5697 C.ar    1  UNL1        0.0176
     13 C         -11.3662  -17.2122   23.0547 C.ar    1  UNL1        0.0360
     14 C         -11.8524  -16.8480   21.6833 C.ar    1  UNL1        0.0058
     15 C         -12.9270  -15.9175   19.0302 C.3     1  UNL1        0.0773
     16 C         -11.5364  -15.5495   19.4553 C.2     1  UNL1        0.1735
     17 O         -10.6319  -14.8172   18.5089 O.2     1  UNL1       -0.2913
     18 C         -12.1685  -18.1465   23.9113 C.2     1  UNL1        0.1735
     19 C         -13.6618  -18.0169   23.9675 C.3     1  UNL1        0.0773
     20 O         -11.4773  -19.2104   24.7116 O.2     1  UNL1       -0.2913
     21 C          -3.7497  -17.2019   24.0798 C.3     1  UNL1        0.0661
     22 C          -3.4811  -16.7680   22.6693 C.3     1  UNL1        0.1738
     23 O          -3.2039  -15.3249   22.3684 O.3     1  UNL1       -0.3697
     24 H          -3.0526  -15.2163   21.4165 H       1  UNL1        0.2119
     25 N          -3.4897  -17.7773   21.5596 N.3     1  UNL1       -0.2511
     26 C          -2.3949  -17.7740   20.5343 C.3     1  UNL1        0.0742
     27 C          -2.4036  -18.7833   19.4247 C.3     1  UNL1        0.0175
     28 C          -3.5071  -19.7957   19.3403 C.3     1  UNL1        0.0031
     29 C          -4.6020  -19.7990   20.3656 C.3     1  UNL1        0.0205
     30 C          -4.5933  -18.7897   21.4752 C.3     1  UNL1        0.0745
     31 C          -5.7055  -20.8114   20.2812 C.3     1  UNL1        0.0277
     32 C          -7.1179  -20.3636   20.0479 C.ar    1  UNL1       -0.0220
     33 C          -7.8071  -20.6973   18.7580 C.ar    1  UNL1       -0.0020
     34 C          -9.2195  -20.2495   18.5246 C.ar    1  UNL1        0.0293
     35 C          -9.9428  -19.4681   19.5811 C.ar    1  UNL1        0.1401
     36 F         -11.3553  -19.0203   19.3476 F       1  UNL1       -0.2042
     37 C          -9.2537  -19.1344   20.8709 C.ar    1  UNL1        0.0293
     38 C          -7.8412  -19.5822   21.1043 C.ar    1  UNL1       -0.0020
@<TRIPOS>BOND
     1    15    16    1
     2    16    17    2
     3    16     9    1
     4     9    10   ar
     5    10    11   ar
     6    11     3    1
     7     3     4   am
     8     4     5    2
     9     4     6   am
    10     6     1    1
    11     1     2    1
    12     1    21    1
    13    21    22    1
    14    22    23    1
    15    22    25    1
    16    25    26    1
    17    26    27    1
    18    27    28    1
    19    28    29    1
    20    29    31    1
    21    31    32    1
    22    32    33   ar
    23    33    34   ar
    24    34    35   ar
    25    35    36    1
    26    35    37   ar
    27    37    38   ar
    28    29    30    1
    29    11    12   ar
    30    12    13   ar
    31    13    18    1
    32    18    19    1
    33    18    20    2
    34    13    14   ar
    35    14     9   ar
    36    30    25    1
    37    38    32   ar
    38     3     7    1
    39     6     8    1
    40    23    24    1
@<TRIPOS>MOLECULE
*****
 38 40 0 0 0
SMALL
GASTEIGER

@<TRIPOS>ATOM
      1 C          -4.6245  -16.4187   24.9499 C.3     1  UNL1        0.0770
      2 C          -4.5740  -16.5860   26.4397 C.3     1  UNL1        0.0214
      3 N          -7.9520  -15.1464   23.2011 N.am    1  UNL1       -0.2683
      4 C          -6.9359  -16.0605   23.8191 C.2     1  UNL1        0.3044
      5 O          -7.2153  -17.5305   23.9244 O.2     1  UNL1       -0.2525
      6 N          -5.6406  -15.5046   24.3319 N.am    1  UNL1       -0.2902
      7 H          -7.7687  -14.1816   23.1319 H       1  UNL1        0.1564
      8 H          -5.4572  -14.5398   24.2627 H       1  UNL1        0.1509
      9 C         -11.3551  -17.1814   23.0347 C.ar    1  UNL1        0.0360
     10 C         -10.0597  -16.6255   23.5474 C.ar    1  UNL1        0.0176
     11 C          -9.2475  -15.7023   22.6883 C.ar    1  UNL1        0.0517
     12 C          -9.7306  -15.3350   21.3166 C.ar    1  UNL1        0.0176
     13 C         -11.0260  -15.8910   20.8039 C.ar    1  UNL1        0.0360
     14 C         -11.8382  -16.8142   21.6630 C.ar    1  UNL1        0.0058
     15 C         -13.6612  -17.9746   23.9306 C.3     1  UNL1        0.0773
     16 C         -12.1674  -18.1046   23.8937 C.2     1  UNL1        0.1735
     17 O         -11.4858  -19.1579   24.7159 O.2     1  UNL1       -0.2913
     18 C         -11.5092  -15.5237   19.4321 C.2     1  UNL1        0.1735
     19 C         -12.9010  -15.8850   19.0055 C.3     1  UNL1        0.0773
     20 O         -10.6004  -14.7951   18.4870 O.2     1  UNL1       -0.2913
     21 C          -3.6589  -17.1655   24.0782 C.3     1  UNL1        0.0661
     22 C          -3.4588  -16.7479   22.6515 C.3     1  UNL1        0.1738
     23 O          -3.2242  -15.3043   22.3184 O.3     1  UNL1       -0.3697
     24 H          -3.1154  -15.2073   21.3594 H       1  UNL1        0.2119
     25 N          -3.4935  -17.7740   21.5578 N.3     1  UNL1       -0.2511
     26 C          -2.4205  -17.7896   20.5098 C.3     1  UNL1        0.0742
     27 C          -2.4552  -18.8156   19.4162 C.3     1  UNL1        0.0175
     28 C          -3.5628  -19.8260   19.3706 C.3     1  UNL1        0.0031
     29 C          -4.6358  -19.8104   20.4186 C.3     1  UNL1        0.0205
     30 C          -4.6011  -18.7844   21.5122 C.3     1  UNL1        0.0745
     31 C          -5.7435  -20.8209   20.3730 C.3     1  UNL1        0.0277
     32 C          -7.1531  -20.3775   20.1154 C.ar    1  UNL1       -0.0220
     33 C          -7.9114  -19.6351   21.1755 C.ar    1  UNL1       -0.0020
     34 C          -9.3210  -19.1917   20.9179 C.ar    1  UNL1        0.0293
     35 C          -9.9723  -19.4905   19.6001 C.ar    1  UNL1        0.1401
     36 F         -11.3819  -19.0471   19.3424 F       1  UNL1       -0.2042
     37 C          -9.2140  -20.2329   18.5400 C.ar    1  UNL1        0.0293
     38 C          -7.8043  -20.6763   18.7976 C.ar    1  UNL1       -0.0020
@<TRIPOS>BOND
     1    15    16    1
     2    16    17    2
     3    16     9    1
     4     9    10   ar
     5    10    11   ar
     6    11     3    1
     7     3     4   am
     8     4     5    2
     9     4     6   am
    10     6     1    1
    11     1     2    1
    12     1    21    1
    13    21    22    1
    14    22    23    1
    15    22    25    1
    16    25    26    1
    17    26    27    1
    18    27    28    1
    19    28    29    1
    20    29    31    1
    21    31    32    1
    22    32    33   ar
    23    33    34   ar
    24    34    35   ar
    25    35    36    1
    26    35    37   ar
    27    37    38   ar
    28    29    30    1
    29    11    12   ar
    30    12    13   ar
    31    13    18    1
    32    18    19    1
    33    18    20    2
    34    13    14   ar
    35    14     9   ar
    36    30    25    1
    37    38    32   ar
    38     3     7    1
    39     6     8    1
    40    23    24    1
@<TRIPOS>MOLECULE
*****
 38 40 0 0 0
SMALL
GASTEIGER

@<TRIPOS>ATOM
      1 C          -5.4544  -15.0096   26.3058 C.3     1  UNL1        0.0770
      2 C          -4.7941  -13.6811   26.5282 C.3     1  UNL1        0.0214
      3 N          -3.7929  -17.7848   24.0063 N.am    1  UNL1       -0.2683
      4 C          -4.6112  -16.6029   24.4350 C.2     1  UNL1        0.3044
      5 O          -5.4046  -15.8327   23.4213 O.2     1  UNL1       -0.2525
      6 N          -4.6361  -16.1914   25.8771 N.am    1  UNL1       -0.2902
      7 H          -3.2722  -18.2903   24.6715 H       1  UNL1        0.1564
      8 H          -4.1154  -16.6969   26.5424 H       1  UNL1        0.1509
      9 C          -4.9281  -19.3032   20.5198 C.ar    1  UNL1        0.0360
     10 C          -4.9529  -18.8917   21.9620 C.ar    1  UNL1        0.0176
     11 C          -3.7680  -18.1963   22.5640 C.ar    1  UNL1        0.0517
     12 C          -2.5583  -17.9125   21.7239 C.ar    1  UNL1        0.0176
     13 C          -2.5335  -18.3240   20.2817 C.ar    1  UNL1        0.0360
     14 C          -3.7184  -19.0194   19.6796 C.ar    1  UNL1        0.0058
     15 C          -6.2093  -21.4947   19.9667 C.3     1  UNL1        0.0773
     16 C          -6.1130  -19.9986   19.9177 C.2     1  UNL1        0.1735
     17 O          -7.2016  -19.1979   19.2667 O.2     1  UNL1       -0.2913
     18 C          -1.3237  -18.0402   19.4414 C.2     1  UNL1        0.1735
     19 C          -0.0133  -17.7199   20.0974 C.3     1  UNL1        0.0773
     20 O          -1.4243  -18.0767   17.9453 O.2     1  UNL1       -0.2913
     21 C          -6.9328  -15.1561   26.5121 C.3     1  UNL1        0.0661
     22 C          -7.8521  -15.2245   25.3287 C.3     1  UNL1        0.1738
     23 O          -7.7901  -14.1652   24.2686 O.3     1  UNL1       -0.3697
     24 H          -8.4457  -14.3579   23.5802 H       1  UNL1        0.2119
     25 N          -8.8334  -16.3523   25.2056 N.3     1  UNL1       -0.2511
     26 C          -8.9136  -17.3973   26.2786 C.3     1  UNL1        0.0742
     27 C          -9.8949  -18.5250   26.1554 C.3     1  UNL1        0.0175
     28 C         -10.7960  -18.6078   24.9591 C.3     1  UNL1        0.0031
     29 C         -10.7158  -17.5629   23.8860 C.3     1  UNL1        0.0205
     30 C          -9.7345  -16.4351   24.0093 C.3     1  UNL1        0.0745
     31 C         -11.6169  -17.6456   22.6897 C.3     1  UNL1        0.0277
     32 C         -11.1654  -18.3757   21.4597 C.ar    1  UNL1       -0.0220
     33 C         -11.2488  -17.7088   20.1186 C.ar    1  UNL1       -0.0020
     34 C         -10.7972  -18.4389   18.8886 C.ar    1  UNL1        0.0293
     35 C         -10.2622  -19.8359   18.9996 C.ar    1  UNL1        0.1401
     36 F          -9.8106  -20.5659   17.7694 F       1  UNL1       -0.2042
     37 C         -10.1788  -20.5027   20.3405 C.ar    1  UNL1        0.0293
     38 C         -10.6304  -19.7727   21.5707 C.ar    1  UNL1       -0.0020
@<TRIPOS>BOND
     1    15    16    1
     2    16    17    2
     3    16     9    1
     4     9    10   ar
     5    10    11   ar
     6    11     3    1
     7     3     4   am
     8     4     5    2
     9     4     6   am
    10     6     1    1
    11     1     2    1
    12     1    21    1
    13    21    22    1
    14    22    23    1
    15    22    25    1
    16    25    26    1
    17    26    27    1
    18    27    28    1
    19    28    29    1
    20    29    31    1
    21    31    32    1
    22    32    33   ar
    23    33    34   ar
    24    34    35   ar
    25    35    36    1
    26    35    37   ar
    27    37    38   ar
    28    29    30    1
    29    11    12   ar
    30    12    13   ar
    31    13    18    1
    32    18    19    1
    33    18    20    2
    34    13    14   ar
    35    14     9   ar
    36    30    25    1
    37    38    32   ar
    38     3     7    1
    39     6     8    1
    40    23    24    1
