@<TRIPOS>MOLECULE
*****
 29 32 0 0 0
SMALL
GASTEIGER

@<TRIPOS>ATOM
      1 C          -6.6783  -16.5604   23.9039 C.3     1  UNL1        0.1025
      2 C          -7.8048  -16.0055   24.7242 C.3     1  UNL1        0.0259
      3 C          -9.2258  -16.2783   24.3287 C.3     1  UNL1        0.0450
      4 C          -9.5202  -17.1059   23.1128 C.ar    1  UNL1        0.0335
      5 C         -10.8102  -17.5387   22.4815 C.ar    1  UNL1       -0.0035
      6 C         -10.4809  -18.3610   21.2710 C.ar    1  UNL1        0.0133
      7 C         -11.3481  -19.0509   20.2600 C.ar    1  UNL1        0.0012
      8 C         -10.7217  -19.8162   19.1322 C.ar    1  UNL1        0.0001
      9 C          -9.2282  -19.8916   19.0154 C.ar    1  UNL1        0.0015
     10 C          -8.3610  -19.2018   20.0264 C.ar    1  UNL1        0.0172
     11 C          -8.9874  -18.4365   21.1542 C.ar    1  UNL1        0.0594
     12 N          -8.3936  -17.6608   22.2925 N.ar    1  UNL1       -0.3295
     13 C          -6.9727  -17.3880   22.6880 C.3     1  UNL1        0.1233
     14 C          -4.9589  -15.6041   25.6009 C.3     1  UNL1        0.1149
     15 N          -5.2572  -16.2876   24.2994 N.3     1  UNL1       -0.1535
     16 S          -4.1346  -16.6983   23.3933 S.O2    1  UNL1        0.0633
     17 O          -4.1148  -15.3234   22.7943 O.2     1  UNL1       -0.1528
     18 O          -4.1544  -18.0734   23.9923 O.2     1  UNL1       -0.1528
     19 C          -3.0120  -17.1092   22.4872 C.ar    1  UNL1        0.1223
     20 C          -2.1854  -16.0653   21.7964 C.ar    1  UNL1        0.0222
     21 C          -1.0627  -16.4761   20.8903 C.ar    1  UNL1        0.0310
     22 C          -0.7668  -17.9308   20.6751 C.ar    1  UNL1        0.1402
     23 F           0.3559  -18.3417   19.7691 F       1  UNL1       -0.2042
     24 C          -1.5934  -18.9746   21.3659 C.ar    1  UNL1        0.0310
     25 C          -2.7159  -18.5638   22.2719 C.ar    1  UNL1        0.0222
     26 C         -12.1877  -17.2073   22.9742 C.3     1  UNL1        0.0691
     27 C         -12.8516  -18.0863   23.9925 C.2     1  UNL1        0.0548
     28 O         -12.0209  -18.9600   24.8848 O.co2   1  UNL1       -0.5488
     29 O         -14.3463  -18.0913   24.1183 O.co2   1  UNL1       -0.5488
@<TRIPOS>UNITY_ATOM_ATTR
28 1
charge -1
@<TRIPOS>BOND
     1    14    15    1
     2     1    15    1
     3     1     2    1
     4     2     3    1
     5     3     4    1
     6     4     5   ar
     7     5    26    1
     8    26    27    1
     9    27    28   ar
    10    27    29   ar
    11     5     6   ar
    12     6     7   ar
    13     7     8   ar
    14     8     9   ar
    15     9    10   ar
    16    10    11   ar
    17    11    12   ar
    18    12    13    1
    19    15    16    1
    20    16    17    2
    21    16    18    2
    22    16    19    1
    23    19    20   ar
    24    20    21   ar
    25    21    22   ar
    26    22    23    1
    27    22    24   ar
    28    24    25   ar
    29    13     1    1
    30    25    19   ar
    31    12     4   ar
    32    11     6   ar
@<TRIPOS>MOLECULE
*****
 29 32 0 0 0
SMALL
GASTEIGER

@<TRIPOS>ATOM
      1 C          -6.3826  -16.5169   23.7709 C.3     1  UNL1        0.1025
      2 C          -5.0166  -15.9215   23.9428 C.3     1  UNL1        0.0259
      3 C          -3.8383  -16.5345   23.2459 C.3     1  UNL1        0.0450
      4 C          -4.0259  -17.7428   22.3771 C.ar    1  UNL1        0.0335
      5 C          -3.0598  -18.5589   21.5705 C.ar    1  UNL1       -0.0035
      6 C          -3.8287  -19.6587   20.9001 C.ar    1  UNL1        0.0133
      7 C          -3.4027  -20.7666   19.9832 C.ar    1  UNL1        0.0012
      8 C          -4.4179  -21.7382   19.4586 C.ar    1  UNL1        0.0001
      9 C          -5.8593  -21.6018   19.8509 C.ar    1  UNL1        0.0015
     10 C          -6.2854  -20.4938   20.7678 C.ar    1  UNL1        0.0172
     11 C          -5.2701  -19.5223   21.2924 C.ar    1  UNL1        0.0594
     12 N          -5.3919  -18.3382   22.2052 N.ar    1  UNL1       -0.3295
     13 C          -6.5703  -17.7253   22.9022 C.3     1  UNL1        0.1233
     14 C          -7.3553  -14.7870   25.4478 C.3     1  UNL1        0.1149
     15 N          -7.5611  -15.9039   24.4679 N.3     1  UNL1       -0.1535
     16 S          -8.9452  -16.4080   24.1848 S.O2    1  UNL1        0.0633
     17 O          -8.9646  -17.1017   25.5146 O.2     1  UNL1       -0.1528
     18 O          -8.9258  -15.7142   22.8550 O.2     1  UNL1       -0.1528
     19 C         -10.3293  -16.9120   23.9017 C.ar    1  UNL1        0.1223
     20 C         -11.2240  -16.1593   22.9619 C.ar    1  UNL1        0.0222
     21 C         -12.6081  -16.6633   22.6787 C.ar    1  UNL1        0.0310
     22 C         -13.0975  -17.9200   23.3354 C.ar    1  UNL1        0.1402
     23 F         -14.4817  -18.4240   23.0523 F       1  UNL1       -0.2042
     24 C         -12.2029  -18.6726   24.2752 C.ar    1  UNL1        0.0310
     25 C         -10.8189  -18.1687   24.5583 C.ar    1  UNL1        0.0222
     26 C          -1.5839  -18.3177   21.4545 C.3     1  UNL1        0.0691
     27 C          -0.9544  -18.1550   20.1027 C.2     1  UNL1        0.0548
     28 O          -1.6683  -17.3862   19.0306 O.co2   1  UNL1       -0.5488
     29 O           0.3889  -18.7611   19.8230 O.co2   1  UNL1       -0.5488
@<TRIPOS>UNITY_ATOM_ATTR
28 1
charge -1
@<TRIPOS>BOND
     1    14    15    1
     2     1    15    1
     3     1     2    1
     4     2     3    1
     5     3     4    1
     6     4     5   ar
     7     5    26    1
     8    26    27    1
     9    27    28   ar
    10    27    29   ar
    11     5     6   ar
    12     6     7   ar
    13     7     8   ar
    14     8     9   ar
    15     9    10   ar
    16    10    11   ar
    17    11    12   ar
    18    12    13    1
    19    15    16    1
    20    16    17    2
    21    16    18    2
    22    16    19    1
    23    19    20   ar
    24    20    21   ar
    25    21    22   ar
    26    22    23    1
    27    22    24   ar
    28    24    25   ar
    29    13     1    1
    30    25    19   ar
    31    12     4   ar
    32    11     6   ar
@<TRIPOS>MOLECULE
*****
 29 32 0 0 0
SMALL
GASTEIGER

@<TRIPOS>ATOM
      1 C          -6.8372  -19.1806   21.0622 C.3     1  UNL1        0.1025
      2 C          -8.1836  -19.1488   20.4019 C.3     1  UNL1        0.0259
      3 C          -9.2974  -18.3475   21.0080 C.3     1  UNL1        0.0450
      4 C          -9.0646  -17.5779   22.2744 C.ar    1  UNL1        0.0335
      5 C          -9.9645  -16.7055   23.0985 C.ar    1  UNL1       -0.0035
      6 C          -9.1741  -16.1982   24.2681 C.ar    1  UNL1        0.0133
      7 C          -9.5393  -15.2995   25.4123 C.ar    1  UNL1        0.0012
      8 C          -8.5161  -14.9597   26.4551 C.ar    1  UNL1        0.0001
      9 C          -7.1278  -15.5186   26.3538 C.ar    1  UNL1        0.0015
     10 C          -6.7626  -16.4172   25.2097 C.ar    1  UNL1        0.0172
     11 C          -7.7858  -16.7570   24.1669 C.ar    1  UNL1        0.0594
     12 N          -7.7182  -17.6097   22.9347 N.ar    1  UNL1       -0.3295
     13 C          -6.6044  -18.4111   22.3286 C.3     1  UNL1        0.1233
     14 C          -5.9834  -21.3747   19.9635 C.3     1  UNL1        0.1149
     15 N          -5.7233  -19.9820   20.4561 N.3     1  UNL1       -0.1535
     16 S          -4.3495  -19.3905   20.3427 S.O2    1  UNL1        0.0633
     17 O          -3.8493  -20.3536   21.3781 O.2     1  UNL1       -0.1528
     18 O          -4.8498  -18.4274   19.3072 O.2     1  UNL1       -0.1528
     19 C          -2.9758  -18.7990   20.2293 C.ar    1  UNL1        0.1223
     20 C          -2.1155  -18.6607   21.4504 C.ar    1  UNL1        0.0222
     21 C          -0.7418  -18.0691   21.3369 C.ar    1  UNL1        0.0310
     22 C          -0.2283  -17.6159   20.0024 C.ar    1  UNL1        0.1402
     23 F           1.1455  -17.0243   19.8889 F       1  UNL1       -0.2042
     24 C          -1.0885  -17.7542   18.7814 C.ar    1  UNL1        0.0310
     25 C          -2.4622  -18.3457   18.8948 C.ar    1  UNL1        0.0222
     26 C         -11.4023  -16.3950   22.8047 C.3     1  UNL1        0.0691
     27 C         -12.3939  -17.5098   22.6496 C.2     1  UNL1        0.0548
     28 O         -12.8065  -18.3181   23.8439 O.co2   1  UNL1       -0.5488
     29 O         -12.9728  -17.8164   21.3002 O.co2   1  UNL1       -0.5488
@<TRIPOS>UNITY_ATOM_ATTR
28 1
charge -1
@<TRIPOS>BOND
     1    14    15    1
     2     1    15    1
     3     1     2    1
     4     2     3    1
     5     3     4    1
     6     4     5   ar
     7     5    26    1
     8    26    27    1
     9    27    28   ar
    10    27    29   ar
    11     5     6   ar
    12     6     7   ar
    13     7     8   ar
    14     8     9   ar
    15     9    10   ar
    16    10    11   ar
    17    11    12   ar
    18    12    13    1
    19    15    16    1
    20    16    17    2
    21    16    18    2
    22    16    19    1
    23    19    20   ar
    24    20    21   ar
    25    21    22   ar
    26    22    23    1
    27    22    24   ar
    28    24    25   ar
    29    13     1    1
    30    25    19   ar
    31    12     4   ar
    32    11     6   ar
@<TRIPOS>MOLECULE
*****
 29 32 0 0 0
SMALL
GASTEIGER

@<TRIPOS>ATOM
      1 C          -7.2464  -19.7450   21.3557 C.3     1  UNL1        0.1025
      2 C          -7.4947  -19.2351   19.9670 C.3     1  UNL1        0.0259
      3 C          -8.8131  -18.6076   19.6232 C.3     1  UNL1        0.0450
      4 C          -9.8830  -18.4900   20.6679 C.ar    1  UNL1        0.0335
      5 C         -11.2711  -17.9234   20.6236 C.ar    1  UNL1       -0.0035
      6 C         -11.8807  -18.0831   21.9849 C.ar    1  UNL1        0.0133
      7 C         -13.2260  -17.7086   22.5324 C.ar    1  UNL1        0.0012
      8 C         -13.5599  -17.9995   23.9655 C.ar    1  UNL1        0.0001
      9 C         -12.5484  -18.6649   24.8511 C.ar    1  UNL1        0.0015
     10 C         -11.2031  -19.0394   24.3036 C.ar    1  UNL1        0.0172
     11 C         -10.8692  -18.7485   22.8705 C.ar    1  UNL1        0.0594
     12 N          -9.6346  -19.0000   22.0565 N.ar    1  UNL1       -0.3295
     13 C          -8.3163  -19.6275   22.4004 C.3     1  UNL1        0.1233
     14 C          -5.8885  -21.6782   22.4370 C.3     1  UNL1        0.1149
     15 N          -5.9280  -20.3725   21.6996 N.3     1  UNL1       -0.1535
     16 S          -4.6493  -19.6943   21.3061 S.O2    1  UNL1        0.0633
     17 O          -4.4136  -20.7444   20.2614 O.2     1  UNL1       -0.1528
     18 O          -4.8849  -18.6441   22.3509 O.2     1  UNL1       -0.1528
     19 C          -3.3705  -19.0160   20.9126 C.ar    1  UNL1        0.1223
     20 C          -2.4423  -18.4943   21.9693 C.ar    1  UNL1        0.0222
     21 C          -1.1636  -17.8160   21.5758 C.ar    1  UNL1        0.0310
     22 C          -0.8132  -17.6594   20.1257 C.ar    1  UNL1        0.1402
     23 F           0.4655  -16.9811   19.7323 F       1  UNL1       -0.2042
     24 C          -1.7414  -18.1810   19.0692 C.ar    1  UNL1        0.0310
     25 C          -3.0200  -18.8593   19.4626 C.ar    1  UNL1        0.0222
     26 C         -11.9335  -17.3055   19.4280 C.3     1  UNL1        0.0691
     27 C         -11.9423  -15.8146   19.2625 C.2     1  UNL1        0.0548
     28 O         -10.6505  -15.0711   19.0933 O.co2   1  UNL1       -0.5488
     29 O         -13.2429  -15.0672   19.2661 O.co2   1  UNL1       -0.5488
@<TRIPOS>UNITY_ATOM_ATTR
28 1
charge -1
@<TRIPOS>BOND
     1    14    15    1
     2     1    15    1
     3     1     2    1
     4     2     3    1
     5     3     4    1
     6     4     5   ar
     7     5    26    1
     8    26    27    1
     9    27    28   ar
    10    27    29   ar
    11     5     6   ar
    12     6     7   ar
    13     7     8   ar
    14     8     9   ar
    15     9    10   ar
    16    10    11   ar
    17    11    12   ar
    18    12    13    1
    19    15    16    1
    20    16    17    2
    21    16    18    2
    22    16    19    1
    23    19    20   ar
    24    20    21   ar
    25    21    22   ar
    26    22    23    1
    27    22    24   ar
    28    24    25   ar
    29    13     1    1
    30    25    19   ar
    31    12     4   ar
    32    11     6   ar
@<TRIPOS>MOLECULE
*****
 29 32 0 0 0
SMALL
GASTEIGER

@<TRIPOS>ATOM
      1 C           0.5691    2.2808   19.9836 C.3     1  UNL1        0.1025
      2 C           0.7883    1.7170   18.6110 C.3     1  UNL1        0.0259
      3 C           1.6436    0.4983   18.4287 C.3     1  UNL1        0.0450
      4 C           2.2796   -0.1566   19.6189 C.ar    1  UNL1        0.0335
      5 C           3.1662   -1.3595   19.7482 C.ar    1  UNL1       -0.0035
      6 C           3.4950   -1.5392   21.2007 C.ar    1  UNL1        0.0133
      7 C           4.3283   -2.5560   21.9229 C.ar    1  UNL1        0.0012
      8 C           4.4782   -2.4808   23.4135 C.ar    1  UNL1        0.0001
      9 C           3.7948   -1.3888   24.1819 C.ar    1  UNL1        0.0015
     10 C           2.9614   -0.3720   23.4597 C.ar    1  UNL1        0.0172
     11 C           2.8115   -0.4472   21.9691 C.ar    1  UNL1        0.0594
     12 N           2.0604    0.4073   20.9915 N.ar    1  UNL1       -0.3295
     13 C           1.2051    1.6260   21.1738 C.3     1  UNL1        0.1233
     14 C          -0.0697    4.7044   19.2990 C.3     1  UNL1        0.1149
     15 N          -0.2862    3.4996   20.1660 N.3     1  UNL1       -0.1535
     16 S          -1.3579    3.5134   21.2154 S.O2    1  UNL1        0.0633
     17 O          -2.1007    2.4438   20.4711 O.2     1  UNL1       -0.1528
     18 O          -0.6152    4.5831   21.9597 O.2     1  UNL1       -0.1528
     19 C          -2.4296    3.5273   22.2648 C.ar    1  UNL1        0.1223
     20 C          -2.0600    3.6599   23.7126 C.ar    1  UNL1        0.0222
     21 C          -3.1317    3.6738   24.7620 C.ar    1  UNL1        0.0310
     22 C          -4.5729    3.5551   24.3636 C.ar    1  UNL1        0.1402
     23 F          -5.6446    3.5690   25.4131 F       1  UNL1       -0.2042
     24 C          -4.9425    3.4225   22.9160 C.ar    1  UNL1        0.0310
     25 C          -3.8709    3.4086   21.8666 C.ar    1  UNL1        0.0222
     26 C           3.6408   -2.2301   18.6227 C.3     1  UNL1        0.0691
     27 C           4.5225   -1.6580   17.5524 C.2     1  UNL1        0.0548
     28 O           6.0138   -1.6967   17.7089 O.co2   1  UNL1       -0.5488
     29 O           3.9128   -1.0471   16.3255 O.co2   1  UNL1       -0.5488
@<TRIPOS>UNITY_ATOM_ATTR
28 1
charge -1
@<TRIPOS>BOND
     1    14    15    1
     2     1    15    1
     3     1     2    1
     4     2     3    1
     5     3     4    1
     6     4     5   ar
     7     5    26    1
     8    26    27    1
     9    27    28   ar
    10    27    29   ar
    11     5     6   ar
    12     6     7   ar
    13     7     8   ar
    14     8     9   ar
    15     9    10   ar
    16    10    11   ar
    17    11    12   ar
    18    12    13    1
    19    15    16    1
    20    16    17    2
    21    16    18    2
    22    16    19    1
    23    19    20   ar
    24    20    21   ar
    25    21    22   ar
    26    22    23    1
    27    22    24   ar
    28    24    25   ar
    29    13     1    1
    30    25    19   ar
    31    12     4   ar
    32    11     6   ar
@<TRIPOS>MOLECULE
*****
 29 32 0 0 0
SMALL
GASTEIGER

@<TRIPOS>ATOM
      1 C           0.7300    2.3096   20.0974 C.3     1  UNL1        0.1025
      2 C           0.9070    1.7710   18.7087 C.3     1  UNL1        0.0259
      3 C           1.7239    0.5334   18.4827 C.3     1  UNL1        0.0450
      4 C           2.3638   -0.1655   19.6455 C.ar    1  UNL1        0.0335
      5 C           3.2184   -1.3953   19.7308 C.ar    1  UNL1       -0.0035
      6 C           3.5696   -1.6167   21.1722 C.ar    1  UNL1        0.0133
      7 C           4.3876   -2.6723   21.8553 C.ar    1  UNL1        0.0012
      8 C           4.5680   -2.6350   23.3439 C.ar    1  UNL1        0.0001
      9 C           3.9304   -1.5420   24.1495 C.ar    1  UNL1        0.0015
     10 C           3.1124   -0.4864   23.4664 C.ar    1  UNL1        0.0172
     11 C           2.9320   -0.5238   21.9778 C.ar    1  UNL1        0.0594
     12 N           2.1868    0.3731   21.0342 N.ar    1  UNL1       -0.3295
     13 C           1.3699    1.6106   21.2602 C.3     1  UNL1        0.1233
     14 C           0.5529    4.7721   20.9067 C.3     1  UNL1        0.1149
     15 N          -0.0870    3.5472   20.3234 N.3     1  UNL1       -0.1535
     16 S          -1.5437    3.5598   19.9660 S.O2    1  UNL1        0.0633
     17 O          -1.2768    4.5949   18.9139 O.2     1  UNL1       -0.1528
     18 O          -1.8107    2.5245   21.0182 O.2     1  UNL1       -0.1528
     19 C          -3.0005    3.5723   19.6088 C.ar    1  UNL1        0.1223
     20 C          -3.4237    3.8406   18.1949 C.ar    1  UNL1        0.0222
     21 C          -4.8805    3.8531   17.8376 C.ar    1  UNL1        0.0310
     22 C          -5.9140    3.5972   18.8942 C.ar    1  UNL1        0.1402
     23 F          -7.3708    3.6097   18.5370 F       1  UNL1       -0.2042
     24 C          -5.4908    3.3289   20.3080 C.ar    1  UNL1        0.0310
     25 C          -4.0341    3.3164   20.6653 C.ar    1  UNL1        0.0222
     26 C           3.6467   -2.2531   18.5772 C.3     1  UNL1        0.0691
     27 C           4.5483   -1.6906   17.5184 C.2     1  UNL1        0.0548
     28 O           6.0366   -1.8162   17.6564 O.co2   1  UNL1       -0.5488
     29 O           3.9614   -1.0026   16.3217 O.co2   1  UNL1       -0.5488
@<TRIPOS>UNITY_ATOM_ATTR
28 1
charge -1
@<TRIPOS>BOND
     1    14    15    1
     2     1    15    1
     3     1     2    1
     4     2     3    1
     5     3     4    1
     6     4     5   ar
     7     5    26    1
     8    26    27    1
     9    27    28   ar
    10    27    29   ar
    11     5     6   ar
    12     6     7   ar
    13     7     8   ar
    14     8     9   ar
    15     9    10   ar
    16    10    11   ar
    17    11    12   ar
    18    12    13    1
    19    15    16    1
    20    16    17    2
    21    16    18    2
    22    16    19    1
    23    19    20   ar
    24    20    21   ar
    25    21    22   ar
    26    22    23    1
    27    22    24   ar
    28    24    25   ar
    29    13     1    1
    30    25    19   ar
    31    12     4   ar
    32    11     6   ar
@<TRIPOS>MOLECULE
*****
 29 32 0 0 0
SMALL
GASTEIGER

@<TRIPOS>ATOM
      1 C           0.0929    2.5752   21.6226 C.3     1  UNL1        0.1025
      2 C           1.0749    2.2212   22.6997 C.3     1  UNL1        0.0259
      3 C           0.6874    2.3580   24.1423 C.3     1  UNL1        0.0450
      4 C          -0.6822    2.8487   24.5077 C.ar    1  UNL1        0.0335
      5 C          -1.3436    3.0839   25.8333 C.ar    1  UNL1       -0.0035
      6 C          -2.7344    3.5832   25.5755 C.ar    1  UNL1        0.0133
      7 C          -3.8459    3.9804   26.5010 C.ar    1  UNL1        0.0012
      8 C          -5.1556    4.4511   25.9415 C.ar    1  UNL1        0.0001
      9 C          -5.3537    4.5245   24.4564 C.ar    1  UNL1        0.0015
     10 C          -4.2422    4.1273   23.5309 C.ar    1  UNL1        0.0172
     11 C          -2.9325    3.6566   24.0904 C.ar    1  UNL1        0.0594
     12 N          -1.6642    3.2027   23.4306 N.ar    1  UNL1       -0.3295
     13 C          -1.2767    3.0659   21.9880 C.3     1  UNL1        0.1233
     14 C          -0.0149    3.4335   19.1727 C.3     1  UNL1        0.1149
     15 N           0.4804    2.4385   20.1799 N.3     1  UNL1       -0.1535
     16 S           1.3633    1.3066   19.7446 S.O2    1  UNL1        0.0633
     17 O           2.4786    2.2757   19.4864 O.2     1  UNL1       -0.1528
     18 O           0.2480    0.3374   20.0028 O.2     1  UNL1       -0.1528
     19 C           2.2461    0.1747   19.3093 C.ar    1  UNL1        0.1223
     20 C           2.3759   -1.0483   20.1682 C.ar    1  UNL1        0.0222
     21 C           3.2587   -2.1802   19.7330 C.ar    1  UNL1        0.0310
     22 C           4.0117   -2.0890   18.4389 C.ar    1  UNL1        0.1402
     23 F           4.8946   -3.2210   18.0036 F       1  UNL1       -0.2042
     24 C           3.8820   -0.8661   17.5801 C.ar    1  UNL1        0.0310
     25 C           2.9992    0.2657   18.0153 C.ar    1  UNL1        0.0222
     26 C          -0.7231    2.8592   27.1804 C.3     1  UNL1        0.0691
     27 C          -0.4679    1.4627   27.6651 C.2     1  UNL1        0.0548
     28 O           0.8421    0.7942   27.3704 O.co2   1  UNL1       -0.5488
     29 O          -1.5228    0.7348   28.4445 O.co2   1  UNL1       -0.5488
@<TRIPOS>UNITY_ATOM_ATTR
28 1
charge -1
@<TRIPOS>BOND
     1    14    15    1
     2     1    15    1
     3     1     2    1
     4     2     3    1
     5     3     4    1
     6     4     5   ar
     7     5    26    1
     8    26    27    1
     9    27    28   ar
    10    27    29   ar
    11     5     6   ar
    12     6     7   ar
    13     7     8   ar
    14     8     9   ar
    15     9    10   ar
    16    10    11   ar
    17    11    12   ar
    18    12    13    1
    19    15    16    1
    20    16    17    2
    21    16    18    2
    22    16    19    1
    23    19    20   ar
    24    20    21   ar
    25    21    22   ar
    26    22    23    1
    27    22    24   ar
    28    24    25   ar
    29    13     1    1
    30    25    19   ar
    31    12     4   ar
    32    11     6   ar
@<TRIPOS>MOLECULE
*****
 29 32 0 0 0
SMALL
GASTEIGER

@<TRIPOS>ATOM
      1 C           0.4422    2.9940   20.3122 C.3     1  UNL1        0.1025
      2 C          -0.8102    3.8033   20.1496 C.3     1  UNL1        0.0259
      3 C          -1.6966    4.0593   21.3323 C.3     1  UNL1        0.0450
      4 C          -1.3305    3.5059   22.6776 C.ar    1  UNL1        0.0335
      5 C          -2.0033    3.5927   24.0154 C.ar    1  UNL1       -0.0035
      6 C          -1.1666    2.8369   25.0049 C.ar    1  UNL1        0.0133
      7 C          -1.3345    2.5816   26.4734 C.ar    1  UNL1        0.0012
      8 C          -0.3126    1.7724   27.2155 C.ar    1  UNL1        0.0001
      9 C           0.8772    1.2185   26.4891 C.ar    1  UNL1        0.0015
     10 C           1.0451    1.4739   25.0206 C.ar    1  UNL1        0.0172
     11 C           0.0232    2.2831   24.2785 C.ar    1  UNL1        0.0594
     12 N          -0.0781    2.6965   22.8402 N.ar    1  UNL1       -0.3295
     13 C           0.8082    2.4406   21.6575 C.3     1  UNL1        0.1233
     14 C           1.5181    3.8025   18.0897 C.3     1  UNL1        0.1149
     15 N           1.3287    2.7380   19.1294 N.3     1  UNL1       -0.1535
     16 S           2.0256    1.4174   18.9865 S.O2    1  UNL1        0.0633
     17 O           0.7344    0.7815   18.5646 O.2     1  UNL1       -0.1528
     18 O           3.3170    2.0534   19.4084 O.2     1  UNL1       -0.1528
     19 C           2.7226    0.0969   18.8436 C.ar    1  UNL1        0.1223
     20 C           2.5109   -0.9777   19.8686 C.ar    1  UNL1        0.0222
     21 C           3.2080   -2.2982   19.7257 C.ar    1  UNL1        0.0310
     22 C           4.1167   -2.5440   18.5579 C.ar    1  UNL1        0.1402
     23 F           4.8137   -3.8646   18.4150 F       1  UNL1       -0.2042
     24 C           4.3283   -1.4695   17.5330 C.ar    1  UNL1        0.0310
     25 C           3.6314   -0.1490   17.6758 C.ar    1  UNL1        0.0222
     26 C          -3.2872    4.3093   24.3119 C.3     1  UNL1        0.0691
     27 C          -4.5861    3.5590   24.2953 C.2     1  UNL1        0.0548
     28 O          -5.0395    2.8720   23.0414 O.co2   1  UNL1       -0.5488
     29 O          -5.4314    3.4958   25.5328 O.co2   1  UNL1       -0.5488
@<TRIPOS>UNITY_ATOM_ATTR
28 1
charge -1
@<TRIPOS>BOND
     1    14    15    1
     2     1    15    1
     3     1     2    1
     4     2     3    1
     5     3     4    1
     6     4     5   ar
     7     5    26    1
     8    26    27    1
     9    27    28   ar
    10    27    29   ar
    11     5     6   ar
    12     6     7   ar
    13     7     8   ar
    14     8     9   ar
    15     9    10   ar
    16    10    11   ar
    17    11    12   ar
    18    12    13    1
    19    15    16    1
    20    16    17    2
    21    16    18    2
    22    16    19    1
    23    19    20   ar
    24    20    21   ar
    25    21    22   ar
    26    22    23    1
    27    22    24   ar
    28    24    25   ar
    29    13     1    1
    30    25    19   ar
    31    12     4   ar
    32    11     6   ar
@<TRIPOS>MOLECULE
*****
 29 32 0 0 0
SMALL
GASTEIGER

@<TRIPOS>ATOM
      1 C           7.5887   -4.7417   25.3822 C.3     1  UNL1        0.1025
      2 C           8.0368   -5.3533   24.0879 C.3     1  UNL1        0.0259
      3 C           7.3994   -4.9295   22.7979 C.3     1  UNL1        0.0450
      4 C           6.3140   -3.8942   22.8022 C.ar    1  UNL1        0.0335
      5 C           5.5065   -3.2819   21.6962 C.ar    1  UNL1       -0.0035
      6 C           4.5594   -2.2920   22.3070 C.ar    1  UNL1        0.0133
      7 C           3.5234   -1.3903   21.7041 C.ar    1  UNL1        0.0012
      8 C           2.7095   -0.4891   22.5846 C.ar    1  UNL1        0.0001
      9 C           2.9317   -0.4895   24.0680 C.ar    1  UNL1        0.0015
     10 C           3.9677   -1.3912   24.6710 C.ar    1  UNL1        0.0172
     11 C           4.7815   -2.2925   23.7905 C.ar    1  UNL1        0.0594
     12 N           5.8659   -3.2826   24.0965 N.ar    1  UNL1       -0.3295
     13 C           6.5033   -3.7064   25.3865 C.3     1  UNL1        0.1233
     14 C           9.3886   -6.1133   26.6587 C.3     1  UNL1        0.1149
     15 N           8.2261   -5.1655   26.6723 N.3     1  UNL1       -0.1535
     16 S           7.7008   -4.6414   27.9759 S.O2    1  UNL1        0.0633
     17 O           6.7046   -5.7617   28.0251 O.2     1  UNL1       -0.1528
     18 O           8.6969   -3.5210   27.9268 O.2     1  UNL1       -0.1528
     19 C           7.1755   -4.1172   29.2795 C.ar    1  UNL1        0.1223
     20 C           7.2886   -4.9492   30.5226 C.ar    1  UNL1        0.0222
     21 C           6.7633   -4.4250   31.8262 C.ar    1  UNL1        0.0310
     22 C           6.1251   -3.0689   31.8867 C.ar    1  UNL1        0.1402
     23 F           5.5998   -2.5447   33.1903 F       1  UNL1       -0.2042
     24 C           6.0121   -2.2370   30.6437 C.ar    1  UNL1        0.0310
     25 C           6.5373   -2.7612   29.3401 C.ar    1  UNL1        0.0222
     26 C           5.6252   -3.6032   20.2359 C.3     1  UNL1        0.0691
     27 C           4.5557   -4.4048   19.5549 C.2     1  UNL1        0.0548
     28 O           4.8162   -5.8320   19.1737 O.co2   1  UNL1       -0.5488
     29 O           3.2258   -3.7792   19.2550 O.co2   1  UNL1       -0.5488
@<TRIPOS>UNITY_ATOM_ATTR
28 1
charge -1
@<TRIPOS>BOND
     1    14    15    1
     2     1    15    1
     3     1     2    1
     4     2     3    1
     5     3     4    1
     6     4     5   ar
     7     5    26    1
     8    26    27    1
     9    27    28   ar
    10    27    29   ar
    11     5     6   ar
    12     6     7   ar
    13     7     8   ar
    14     8     9   ar
    15     9    10   ar
    16    10    11   ar
    17    11    12   ar
    18    12    13    1
    19    15    16    1
    20    16    17    2
    21    16    18    2
    22    16    19    1
    23    19    20   ar
    24    20    21   ar
    25    21    22   ar
    26    22    23    1
    27    22    24   ar
    28    24    25   ar
    29    13     1    1
    30    25    19   ar
    31    12     4   ar
    32    11     6   ar
