@<TRIPOS>MOLECULE
*****
 37 40 0 0 0
SMALL
GASTEIGER

@<TRIPOS>ATOM
      1 C          -5.4494  -17.1369   23.2514 C.ar    1  UNL1        0.2019
      2 N          -4.1746  -16.4077   22.9465 N.ar    1  UNL1       -0.2135
      3 C          -3.3233  -17.2995   22.0922 C.ar    1  UNL1        0.1001
      4 C          -1.9631  -17.1110   21.4886 C.ar    1  UNL1        0.0252
      5 C          -1.3516  -18.2030   20.6618 C.ar    1  UNL1        0.0547
      6 C          -2.1003  -19.4835   20.4386 C.ar    1  UNL1        0.0061
      7 C          -3.4605  -19.6719   21.0422 C.ar    1  UNL1        0.0189
      8 C          -4.0720  -18.5799   21.8690 C.ar    1  UNL1        0.0802
      9 N          -5.3860  -18.4795   22.5854 N.ar    1  UNL1       -0.2953
     10 C           0.0086  -18.0145   20.0582 C.2     1  UNL1        0.2428
     11 N           0.5887  -16.6370   19.9316 N.am    1  UNL1       -0.3253
     12 O           0.7887  -19.2036   19.5812 O.2     1  UNL1       -0.2704
     13 H           0.0766  -15.8566   20.2446 H       1  UNL1        0.1453
     14 H           1.4814  -16.5133   19.5354 H       1  UNL1        0.1453
     15 N          -6.5878  -16.6153   24.0773 N.pl3   1  UNL1       -0.2839
     16 H          -6.4267  -16.3060   24.9979 H       1  UNL1        0.1550
     17 C         -10.7389  -16.4639   22.3466 C.ar    1  UNL1        0.1058
     18 C         -10.5434  -16.7775   23.8004 C.ar    1  UNL1        0.0196
     19 C          -9.1597  -16.8279   24.3773 C.ar    1  UNL1        0.0160
     20 C          -7.9714  -16.5648   23.5004 C.ar    1  UNL1        0.0505
     21 C          -8.1669  -16.2513   22.0466 C.ar    1  UNL1        0.0160
     22 C          -9.5507  -16.2009   21.4697 C.ar    1  UNL1        0.0196
     23 C         -13.5063  -16.3630   21.1928 C.3     1  UNL1        0.1816
     24 S         -12.1226  -16.4135   21.7697 S.O2    1  UNL1        0.0105
     25 O         -11.5673  -15.8739   20.4850 O.2     1  UNL1       -0.1686
     26 O         -12.6779  -16.9531   23.0543 O.2     1  UNL1       -0.1686
     27 C          -6.4498  -19.5361   22.6284 C.3     1  UNL1        0.1354
     28 C          -7.5254  -19.5604   21.5832 C.ar    1  UNL1        0.0044
     29 C          -7.1974  -19.2132   20.1612 C.ar    1  UNL1       -0.0024
     30 C          -8.2730  -19.2375   19.1160 C.ar    1  UNL1       -0.0003
     31 C          -9.6766  -19.6091   19.4927 C.ar    1  UNL1       -0.0001
     32 C         -10.0045  -19.9564   20.9146 C.ar    1  UNL1        0.0036
     33 C          -8.9289  -19.9320   21.9598 C.ar    1  UNL1        0.0693
     34 C          -9.2570  -20.2793   23.3817 C.3     1  UNL1        0.4183
     35 F          -9.5851  -20.6266   24.8036 F       1  UNL1       -0.1659
     36 F          -7.9509  -21.0064   23.5055 F       1  UNL1       -0.1659
     37 F         -10.5631  -19.5522   23.2580 F       1  UNL1       -0.1659
@<TRIPOS>BOND
     1    23    24    1
     2    24    25    2
     3    24    26    2
     4    24    17    1
     5    17    18   ar
     6    18    19   ar
     7    19    20   ar
     8    20    15    1
     9    15     1    1
    10     1     2   ar
    11     2     3   ar
    12     3     4   ar
    13     4     5   ar
    14     5    10    1
    15    10    11   am
    16    10    12    2
    17     5     6   ar
    18     6     7   ar
    19     7     8   ar
    20     8     9   ar
    21     9    27    1
    22    27    28    1
    23    28    29   ar
    24    29    30   ar
    25    30    31   ar
    26    31    32   ar
    27    32    33   ar
    28    33    34    1
    29    34    35    1
    30    34    36    1
    31    34    37    1
    32    20    21   ar
    33    21    22   ar
    34    22    17   ar
    35     9     1   ar
    36    33    28   ar
    37     8     3   ar
    38    15    16    1
    39    11    13    1
    40    11    14    1
@<TRIPOS>MOLECULE
*****
 37 40 0 0 0
SMALL
GASTEIGER

@<TRIPOS>ATOM
      1 C          -7.7897  -19.6952   22.7225 C.ar    1  UNL1        0.2019
      2 N          -9.1370  -20.3509   22.6531 N.ar    1  UNL1       -0.2135
      3 C         -10.1805  -19.2796   22.7695 C.ar    1  UNL1        0.1001
      4 C         -11.6794  -19.3338   22.7650 C.ar    1  UNL1        0.0252
      5 C         -12.4760  -18.0703   22.9019 C.ar    1  UNL1        0.0547
      6 C         -11.7736  -16.7524   23.0433 C.ar    1  UNL1        0.0061
      7 C         -10.2746  -16.6982   23.0478 C.ar    1  UNL1        0.0189
      8 C          -9.4780  -17.9618   22.9108 C.ar    1  UNL1        0.0802
      9 N          -8.0005  -18.2187   22.8818 N.ar    1  UNL1       -0.2953
     10 C         -13.9751  -18.1244   22.8975 C.2     1  UNL1        0.2428
     11 N         -14.7305  -18.0929   24.1930 N.am    1  UNL1       -0.3253
     12 O         -14.7186  -18.2101   21.5976 O.2     1  UNL1       -0.2704
     13 H         -14.2425  -18.0366   25.0461 H       1  UNL1        0.1453
     14 H         -15.7144  -18.1284   24.1901 H       1  UNL1        0.1453
     15 N          -6.4643  -20.3935   22.6460 N.pl3   1  UNL1       -0.2839
     16 H          -6.3220  -21.2346   23.1374 H       1  UNL1        0.1550
     17 C          -3.1389  -18.6437   20.1702 C.ar    1  UNL1        0.1058
     18 C          -4.5054  -18.8160   19.5762 C.ar    1  UNL1        0.0196
     19 C          -5.6139  -19.3992   20.4014 C.ar    1  UNL1        0.0160
     20 C          -5.3558  -19.8102   21.8208 C.ar    1  UNL1        0.0505
     21 C          -3.9893  -19.6379   22.4149 C.ar    1  UNL1        0.0160
     22 C          -2.8808  -19.0546   21.5896 C.ar    1  UNL1        0.0196
     23 C          -0.9219  -17.4772   18.5197 C.3     1  UNL1        0.1816
     24 S          -2.0303  -18.0604   19.3449 S.O2    1  UNL1        0.0105
     25 O          -1.0385  -18.9229   20.0676 O.2     1  UNL1       -0.1686
     26 O          -3.0222  -17.1979   18.6223 O.2     1  UNL1       -0.1686
     27 C          -6.9229  -17.1811   22.9926 C.3     1  UNL1        0.1354
     28 C          -6.7210  -16.4443   24.2834 C.ar    1  UNL1        0.0044
     29 C          -7.8535  -16.3158   25.2587 C.ar    1  UNL1       -0.0024
     30 C          -7.6517  -15.5790   26.5496 C.ar    1  UNL1       -0.0003
     31 C          -6.3174  -14.9706   26.8651 C.ar    1  UNL1       -0.0001
     32 C          -5.1850  -15.0990   25.8899 C.ar    1  UNL1        0.0036
     33 C          -5.3868  -15.8359   24.5990 C.ar    1  UNL1        0.0693
     34 C          -4.2544  -15.9643   23.6239 C.3     1  UNL1        0.4183
     35 F          -3.1219  -16.0926   22.6486 F       1  UNL1       -0.1659
     36 F          -3.8580  -17.2658   24.2555 F       1  UNL1       -0.1659
     37 F          -4.6507  -14.6628   22.9922 F       1  UNL1       -0.1659
@<TRIPOS>BOND
     1    23    24    1
     2    24    25    2
     3    24    26    2
     4    24    17    1
     5    17    18   ar
     6    18    19   ar
     7    19    20   ar
     8    20    15    1
     9    15     1    1
    10     1     2   ar
    11     2     3   ar
    12     3     4   ar
    13     4     5   ar
    14     5    10    1
    15    10    11   am
    16    10    12    2
    17     5     6   ar
    18     6     7   ar
    19     7     8   ar
    20     8     9   ar
    21     9    27    1
    22    27    28    1
    23    28    29   ar
    24    29    30   ar
    25    30    31   ar
    26    31    32   ar
    27    32    33   ar
    28    33    34    1
    29    34    35    1
    30    34    36    1
    31    34    37    1
    32    20    21   ar
    33    21    22   ar
    34    22    17   ar
    35     9     1   ar
    36    33    28   ar
    37     8     3   ar
    38    15    16    1
    39    11    13    1
    40    11    14    1
@<TRIPOS>MOLECULE
*****
 37 40 0 0 0
SMALL
GASTEIGER

@<TRIPOS>ATOM
      1 C           6.4644   -2.3123   24.3858 C.ar    1  UNL1        0.2019
      2 N           6.3093   -3.0821   25.6639 N.ar    1  UNL1       -0.2135
      3 C           6.9246   -4.4359   25.4673 C.ar    1  UNL1        0.1001
      4 C           7.0665   -5.6163   26.3818 C.ar    1  UNL1        0.0252
      5 C           7.7438   -6.8636   25.8968 C.ar    1  UNL1        0.0547
      6 C           8.2791   -6.9306   24.4972 C.ar    1  UNL1        0.0061
      7 C           8.1371   -5.7502   23.5826 C.ar    1  UNL1        0.0189
      8 C           7.4599   -4.5029   24.0676 C.ar    1  UNL1        0.0802
      9 N           7.1754   -3.1905   23.3993 N.ar    1  UNL1       -0.2953
     10 C           7.8857   -8.0441   26.8114 C.2     1  UNL1        0.2428
     11 N           6.7970   -9.0736   26.8817 N.am    1  UNL1       -0.3253
     12 O           9.1164   -8.1951   27.6556 O.2     1  UNL1       -0.2704
     13 H           5.9893   -8.9745   26.3276 H       1  UNL1        0.1453
     14 H           6.8902   -9.8483   27.4820 H       1  UNL1        0.1453
     15 N           5.9914   -0.9106   24.1378 N.pl3   1  UNL1       -0.2839
     16 H           6.3001   -0.1771   24.7174 H       1  UNL1        0.1550
     17 C           3.1611   -0.0581   20.7448 C.ar    1  UNL1        0.1058
     18 C           2.7426   -0.9706   21.8593 C.ar    1  UNL1        0.0196
     19 C           3.6859   -1.2548   22.9903 C.ar    1  UNL1        0.0160
     20 C           5.0480   -0.6265   23.0068 C.ar    1  UNL1        0.0505
     21 C           5.4665    0.2860   21.8923 C.ar    1  UNL1        0.0160
     22 C           4.5231    0.5701   20.7612 C.ar    1  UNL1        0.0196
     23 C           1.2742    0.5101   18.4828 C.3     1  UNL1        0.1816
     24 S           2.2176    0.2260   19.6137 S.O2    1  UNL1        0.0105
     25 O           1.3417   -0.9070   20.0598 O.2     1  UNL1       -0.1686
     26 O           3.0936    1.3590   19.1676 O.2     1  UNL1       -0.1686
     27 C           7.5384   -2.8210   21.9915 C.3     1  UNL1        0.1354
     28 C           6.5473   -3.0227   20.8839 C.ar    1  UNL1        0.0044
     29 C           5.2660   -3.7566   21.1483 C.ar    1  UNL1       -0.0024
     30 C           4.2748   -3.9583   20.0406 C.ar    1  UNL1       -0.0003
     31 C           4.5649   -3.4260   18.6686 C.ar    1  UNL1       -0.0001
     32 C           5.8460   -2.6920   18.4042 C.ar    1  UNL1        0.0036
     33 C           6.8372   -2.4904   19.5118 C.ar    1  UNL1        0.0693
     34 C           8.1184   -1.7564   19.2473 C.3     1  UNL1        0.4183
     35 F           9.3995   -1.0224   18.9829 F       1  UNL1       -0.1659
     36 F           8.8313   -3.0644   19.0713 F       1  UNL1       -0.1659
     37 F           7.4054   -0.4485   19.4234 F       1  UNL1       -0.1659
@<TRIPOS>BOND
     1    23    24    1
     2    24    25    2
     3    24    26    2
     4    24    17    1
     5    17    18   ar
     6    18    19   ar
     7    19    20   ar
     8    20    15    1
     9    15     1    1
    10     1     2   ar
    11     2     3   ar
    12     3     4   ar
    13     4     5   ar
    14     5    10    1
    15    10    11   am
    16    10    12    2
    17     5     6   ar
    18     6     7   ar
    19     7     8   ar
    20     8     9   ar
    21     9    27    1
    22    27    28    1
    23    28    29   ar
    24    29    30   ar
    25    30    31   ar
    26    31    32   ar
    27    32    33   ar
    28    33    34    1
    29    34    35    1
    30    34    36    1
    31    34    37    1
    32    20    21   ar
    33    21    22   ar
    34    22    17   ar
    35     9     1   ar
    36    33    28   ar
    37     8     3   ar
    38    15    16    1
    39    11    13    1
    40    11    14    1
@<TRIPOS>MOLECULE
*****
 37 40 0 0 0
SMALL
GASTEIGER

@<TRIPOS>ATOM
      1 C          -6.9150  -19.2350   19.7865 C.ar    1  UNL1        0.2019
      2 N          -5.7566  -18.9231   18.8861 N.ar    1  UNL1       -0.2135
      3 C          -4.5353  -18.7602   19.7417 C.ar    1  UNL1        0.1001
      4 C          -3.1078  -18.4468   19.4040 C.ar    1  UNL1        0.0252
      5 C          -2.0840  -18.3447   20.4955 C.ar    1  UNL1        0.0547
      6 C          -2.4877  -18.5559   21.9247 C.ar    1  UNL1        0.0061
      7 C          -3.9152  -18.8693   22.2623 C.ar    1  UNL1        0.0189
      8 C          -4.9390  -18.9714   21.1708 C.ar    1  UNL1        0.0802
      9 N          -6.4097  -19.2648   21.1985 N.ar    1  UNL1       -0.2953
     10 C          -0.6564  -18.0313   20.1579 C.2     1  UNL1        0.2428
     11 N          -0.1437  -16.6284   20.2958 N.am    1  UNL1       -0.3253
     12 O           0.2584  -19.1208   19.6824 O.2     1  UNL1       -0.2704
     13 H          -0.7442  -15.9134   20.6078 H       1  UNL1        0.1453
     14 H           0.7932  -16.4227   20.0742 H       1  UNL1        0.1453
     15 N          -8.3303  -19.4748   19.3512 N.pl3   1  UNL1       -0.2839
     16 H          -8.5133  -19.8786   18.4722 H       1  UNL1        0.1550
     17 C         -11.7400  -18.3490   22.0635 C.ar    1  UNL1        0.1058
     18 C         -10.9083  -17.2790   21.4205 C.ar    1  UNL1        0.0196
     19 C          -9.7718  -17.6542   20.5164 C.ar    1  UNL1        0.0160
     20 C          -9.4669  -19.0996   20.2553 C.ar    1  UNL1        0.0505
     21 C         -10.2985  -20.1696   20.8983 C.ar    1  UNL1        0.0160
     22 C         -11.4351  -19.7942   21.8025 C.ar    1  UNL1        0.0196
     23 C         -14.0131  -17.5982   23.8717 C.3     1  UNL1        0.1816
     24 S         -12.8766  -17.9736   22.9677 S.O2    1  UNL1        0.0105
     25 O         -13.2655  -16.8755   22.0228 O.2     1  UNL1       -0.1686
     26 O         -12.4877  -19.0717   23.9125 O.2     1  UNL1       -0.1686
     27 C          -7.2310  -19.5399   22.4232 C.3     1  UNL1        0.1354
     28 C          -7.8516  -18.4038   23.1808 C.ar    1  UNL1        0.0044
     29 C          -7.4226  -16.9936   22.9025 C.ar    1  UNL1       -0.0024
     30 C          -8.0432  -15.8574   23.6601 C.ar    1  UNL1       -0.0003
     31 C          -9.0929  -16.1314   24.6959 C.ar    1  UNL1       -0.0001
     32 C          -9.5220  -17.5415   24.9742 C.ar    1  UNL1        0.0036
     33 C          -8.9014  -18.6777   24.2166 C.ar    1  UNL1        0.0693
     34 C          -9.3305  -20.0878   24.4950 C.3     1  UNL1        0.4183
     35 F          -9.7595  -21.4979   24.7732 F       1  UNL1       -0.1659
     36 F         -10.1865  -19.6037   25.6276 F       1  UNL1       -0.1659
     37 F          -8.4745  -20.5718   23.3623 F       1  UNL1       -0.1659
@<TRIPOS>BOND
     1    23    24    1
     2    24    25    2
     3    24    26    2
     4    24    17    1
     5    17    18   ar
     6    18    19   ar
     7    19    20   ar
     8    20    15    1
     9    15     1    1
    10     1     2   ar
    11     2     3   ar
    12     3     4   ar
    13     4     5   ar
    14     5    10    1
    15    10    11   am
    16    10    12    2
    17     5     6   ar
    18     6     7   ar
    19     7     8   ar
    20     8     9   ar
    21     9    27    1
    22    27    28    1
    23    28    29   ar
    24    29    30   ar
    25    30    31   ar
    26    31    32   ar
    27    32    33   ar
    28    33    34    1
    29    34    35    1
    30    34    36    1
    31    34    37    1
    32    20    21   ar
    33    21    22   ar
    34    22    17   ar
    35     9     1   ar
    36    33    28   ar
    37     8     3   ar
    38    15    16    1
    39    11    13    1
    40    11    14    1
@<TRIPOS>MOLECULE
*****
 37 40 0 0 0
SMALL
GASTEIGER

@<TRIPOS>ATOM
      1 C          -5.6237  -19.8019   22.0378 C.ar    1  UNL1        0.2019
      2 N          -4.3562  -20.3803   21.4820 N.ar    1  UNL1       -0.2135
      3 C          -3.3931  -19.2531   21.2542 C.ar    1  UNL1        0.1001
      4 C          -1.9909  -19.2231   20.7224 C.ar    1  UNL1        0.0252
      5 C          -1.2609  -17.9179   20.6057 C.ar    1  UNL1        0.0547
      6 C          -1.9331  -16.6429   21.0207 C.ar    1  UNL1        0.0061
      7 C          -3.3353  -16.6729   21.5525 C.ar    1  UNL1        0.0189
      8 C          -4.0653  -17.9780   21.6692 C.ar    1  UNL1        0.0802
      9 N          -5.4439  -18.3172   22.1535 N.ar    1  UNL1       -0.2953
     10 C           0.1414  -17.8878   20.0739 C.2     1  UNL1        0.2428
     11 N           0.9082  -16.5988   20.0532 N.am    1  UNL1       -0.3253
     12 O           0.7769  -19.1468   19.5629 O.2     1  UNL1       -0.2704
     13 H           0.4910  -15.7725   20.3886 H       1  UNL1        0.1453
     14 H           1.8285  -16.5790   19.7042 H       1  UNL1        0.1453
     15 N          -6.8548  -20.5728   22.4122 N.pl3   1  UNL1       -0.2839
     16 H          -6.7742  -21.4902   22.7601 H       1  UNL1        0.1550
     17 C         -10.9161  -18.6920   21.9454 C.ar    1  UNL1        0.1058
     18 C         -10.5283  -19.3255   23.2485 C.ar    1  UNL1        0.0196
     19 C          -9.1745  -19.9525   23.4042 C.ar    1  UNL1        0.0160
     20 C          -8.2085  -19.9459   22.2566 C.ar    1  UNL1        0.0505
     21 C          -8.5963  -19.3123   20.9535 C.ar    1  UNL1        0.0160
     22 C          -9.9501  -18.6853   20.7979 C.ar    1  UNL1        0.0196
     23 C         -13.6237  -17.4381   21.6341 C.3     1  UNL1        0.1816
     24 S         -12.2699  -18.0650   21.7898 S.O2    1  UNL1        0.0105
     25 O         -11.9834  -17.8061   20.3404 O.2     1  UNL1       -0.1686
     26 O         -12.5565  -18.3240   23.2392 O.2     1  UNL1       -0.1686
     27 C          -6.4636  -17.3427   22.6639 C.3     1  UNL1        0.1354
     28 C          -6.2526  -16.6574   23.9813 C.ar    1  UNL1        0.0044
     29 C          -4.8874  -16.6298   24.6022 C.ar    1  UNL1       -0.0024
     30 C          -4.6763  -15.9444   25.9197 C.ar    1  UNL1       -0.0003
     31 C          -5.8305  -15.2867   26.6163 C.ar    1  UNL1       -0.0001
     32 C          -7.1957  -15.3144   25.9955 C.ar    1  UNL1        0.0036
     33 C          -7.4068  -15.9997   24.6780 C.ar    1  UNL1        0.0693
     34 C          -8.7720  -16.0273   24.0572 C.3     1  UNL1        0.4183
     35 F         -10.1372  -16.0548   23.4364 F       1  UNL1       -0.1659
     36 F          -9.2210  -17.0193   25.0888 F       1  UNL1       -0.1659
     37 F          -8.3230  -15.0352   23.0257 F       1  UNL1       -0.1659
@<TRIPOS>BOND
     1    23    24    1
     2    24    25    2
     3    24    26    2
     4    24    17    1
     5    17    18   ar
     6    18    19   ar
     7    19    20   ar
     8    20    15    1
     9    15     1    1
    10     1     2   ar
    11     2     3   ar
    12     3     4   ar
    13     4     5   ar
    14     5    10    1
    15    10    11   am
    16    10    12    2
    17     5     6   ar
    18     6     7   ar
    19     7     8   ar
    20     8     9   ar
    21     9    27    1
    22    27    28    1
    23    28    29   ar
    24    29    30   ar
    25    30    31   ar
    26    31    32   ar
    27    32    33   ar
    28    33    34    1
    29    34    35    1
    30    34    36    1
    31    34    37    1
    32    20    21   ar
    33    21    22   ar
    34    22    17   ar
    35     9     1   ar
    36    33    28   ar
    37     8     3   ar
    38    15    16    1
    39    11    13    1
    40    11    14    1
@<TRIPOS>MOLECULE
*****
 37 40 0 0 0
SMALL
GASTEIGER

@<TRIPOS>ATOM
      1 C           4.0326   -1.6457   23.1323 C.ar    1  UNL1        0.2019
      2 N           4.1851   -1.1111   24.5254 N.ar    1  UNL1       -0.2135
      3 C           5.1505   -1.9949   25.2581 C.ar    1  UNL1        0.1001
      4 C           5.6825   -1.9551   26.6600 C.ar    1  UNL1        0.0252
      5 C           6.6588   -2.9962   27.1215 C.ar    1  UNL1        0.0547
      6 C           7.1030   -4.0771   26.1811 C.ar    1  UNL1        0.0061
      7 C           6.5710   -4.1169   24.7792 C.ar    1  UNL1        0.0189
      8 C           5.5948   -3.0758   24.3177 C.ar    1  UNL1        0.0802
      9 N           4.9038   -2.8600   23.0039 N.ar    1  UNL1       -0.2953
     10 C           7.1908   -2.9564   28.5234 C.2     1  UNL1        0.2428
     11 N           8.4366   -2.1797   28.8311 N.am    1  UNL1       -0.3253
     12 O           6.4771   -3.6934   29.6177 O.2     1  UNL1       -0.2704
     13 H           8.9051   -1.6960   28.1128 H       1  UNL1        0.1453
     14 H           8.7858   -2.1535   29.7512 H       1  UNL1        0.1453
     15 N           3.1618   -1.0676   22.0564 N.pl3   1  UNL1       -0.2839
     16 H           2.1982   -1.2689   22.0419 H       1  UNL1        0.1550
     17 C           4.9538    1.5867   18.8952 C.ar    1  UNL1        0.1058
     18 C           5.5526    1.5482   20.2700 C.ar    1  UNL1        0.0196
     19 C           4.9553    0.6635   21.3237 C.ar    1  UNL1        0.0160
     20 C           3.7591   -0.1829   21.0027 C.ar    1  UNL1        0.0505
     21 C           3.1603   -0.1444   19.6279 C.ar    1  UNL1        0.0160
     22 C           3.7577    0.7405   18.5742 C.ar    1  UNL1        0.0196
     23 C           6.1486    3.3563   16.7878 C.3     1  UNL1        0.1816
     24 S           5.5512    2.4716   17.8415 S.O2    1  UNL1        0.0105
     25 O           6.7892    1.6247   17.8323 O.2     1  UNL1       -0.1686
     26 O           4.3132    3.3184   17.8507 O.2     1  UNL1       -0.1686
     27 C           5.0573   -3.7094   21.7771 C.3     1  UNL1        0.1354
     28 C           5.6243   -3.1173   20.5210 C.ar    1  UNL1        0.0044
     29 C           6.8583   -2.2667   20.5834 C.ar    1  UNL1       -0.0024
     30 C           7.4254   -1.6746   19.3273 C.ar    1  UNL1       -0.0003
     31 C           6.7585   -1.9330   18.0088 C.ar    1  UNL1       -0.0001
     32 C           5.5245   -2.7836   17.9464 C.ar    1  UNL1        0.0036
     33 C           4.9574   -3.3757   19.2025 C.ar    1  UNL1        0.0693
     34 C           3.7235   -4.2263   19.1400 C.3     1  UNL1        0.4183
     35 F           2.4896   -5.0769   19.0775 F       1  UNL1       -0.1659
     36 F           2.8865   -3.0396   19.5157 F       1  UNL1       -0.1659
     37 F           4.5605   -5.4130   18.7643 F       1  UNL1       -0.1659
@<TRIPOS>BOND
     1    23    24    1
     2    24    25    2
     3    24    26    2
     4    24    17    1
     5    17    18   ar
     6    18    19   ar
     7    19    20   ar
     8    20    15    1
     9    15     1    1
    10     1     2   ar
    11     2     3   ar
    12     3     4   ar
    13     4     5   ar
    14     5    10    1
    15    10    11   am
    16    10    12    2
    17     5     6   ar
    18     6     7   ar
    19     7     8   ar
    20     8     9   ar
    21     9    27    1
    22    27    28    1
    23    28    29   ar
    24    29    30   ar
    25    30    31   ar
    26    31    32   ar
    27    32    33   ar
    28    33    34    1
    29    34    35    1
    30    34    36    1
    31    34    37    1
    32    20    21   ar
    33    21    22   ar
    34    22    17   ar
    35     9     1   ar
    36    33    28   ar
    37     8     3   ar
    38    15    16    1
    39    11    13    1
    40    11    14    1
@<TRIPOS>MOLECULE
*****
 37 40 0 0 0
SMALL
GASTEIGER

@<TRIPOS>ATOM
      1 C           6.0679   -3.5349   24.3606 C.ar    1  UNL1        0.2019
      2 N           5.6790   -2.5404   25.4140 N.ar    1  UNL1       -0.2135
      3 C           4.6215   -1.6455   24.8389 C.ar    1  UNL1        0.1001
      4 C           3.8654   -0.4857   25.4161 C.ar    1  UNL1        0.0252
      5 C           2.8446    0.2327   24.5843 C.ar    1  UNL1        0.0547
      6 C           2.5799   -0.2087   23.1754 C.ar    1  UNL1        0.0061
      7 C           3.3360   -1.3684   22.5982 C.ar    1  UNL1        0.0189
      8 C           4.3568   -2.0868   23.4299 C.ar    1  UNL1        0.0802
      9 N           5.2507   -3.2546   23.1344 N.ar    1  UNL1       -0.2953
     10 C           2.0885    1.3926   25.1615 C.2     1  UNL1        0.2428
     11 N           2.8016    2.4079   26.0046 N.am    1  UNL1       -0.3253
     12 O           0.6194    1.5371   24.8956 O.2     1  UNL1       -0.2704
     13 H           3.7658    2.3130   26.1791 H       1  UNL1        0.1453
     14 H           2.3053    3.1691   26.3834 H       1  UNL1        0.1453
     15 N           7.0938   -4.6193   24.5076 N.pl3   1  UNL1       -0.2839
     16 H           7.4901   -5.0337   23.7073 H       1  UNL1        0.1550
     17 C           8.3597   -5.9785   28.6063 C.ar    1  UNL1        0.1058
     18 C           6.9052   -5.9528   28.2407 C.ar    1  UNL1        0.0196
     19 C           6.4832   -5.4998   26.8744 C.ar    1  UNL1        0.0160
     20 C           7.5158   -5.0724   25.8738 C.ar    1  UNL1        0.0505
     21 C           8.9703   -5.0980   26.2395 C.ar    1  UNL1        0.0160
     22 C           9.3922   -5.5511   27.6058 C.ar    1  UNL1        0.0196
     23 C           9.2036   -6.8847   31.3389 C.3     1  UNL1        0.1816
     24 S           8.7816   -6.4316   29.9726 S.O2    1  UNL1        0.0105
     25 O           9.5359   -7.5746   29.3606 O.2     1  UNL1       -0.1686
     26 O           8.0274   -5.2886   30.5847 O.2     1  UNL1       -0.1686
     27 C           5.3160   -4.0094   21.8398 C.3     1  UNL1        0.1354
     28 C           5.8667   -3.3468   20.6121 C.ar    1  UNL1        0.0044
     29 C           7.1665   -2.6010   20.6814 C.ar    1  UNL1       -0.0024
     30 C           7.7173   -1.9383   19.4536 C.ar    1  UNL1       -0.0003
     31 C           6.9685   -2.0213   18.1566 C.ar    1  UNL1       -0.0001
     32 C           5.6689   -2.7670   18.0873 C.ar    1  UNL1        0.0036
     33 C           5.1180   -3.4297   19.3150 C.ar    1  UNL1        0.0693
     34 C           3.8183   -4.1754   19.2456 C.3     1  UNL1        0.4183
     35 F           2.5187   -4.9212   19.1762 F       1  UNL1       -0.1659
     36 F           3.0767   -2.9134   19.5734 F       1  UNL1       -0.1659
     37 F           4.5599   -5.4374   18.9178 F       1  UNL1       -0.1659
@<TRIPOS>BOND
     1    23    24    1
     2    24    25    2
     3    24    26    2
     4    24    17    1
     5    17    18   ar
     6    18    19   ar
     7    19    20   ar
     8    20    15    1
     9    15     1    1
    10     1     2   ar
    11     2     3   ar
    12     3     4   ar
    13     4     5   ar
    14     5    10    1
    15    10    11   am
    16    10    12    2
    17     5     6   ar
    18     6     7   ar
    19     7     8   ar
    20     8     9   ar
    21     9    27    1
    22    27    28    1
    23    28    29   ar
    24    29    30   ar
    25    30    31   ar
    26    31    32   ar
    27    32    33   ar
    28    33    34    1
    29    34    35    1
    30    34    36    1
    31    34    37    1
    32    20    21   ar
    33    21    22   ar
    34    22    17   ar
    35     9     1   ar
    36    33    28   ar
    37     8     3   ar
    38    15    16    1
    39    11    13    1
    40    11    14    1
@<TRIPOS>MOLECULE
*****
 37 40 0 0 0
SMALL
GASTEIGER

@<TRIPOS>ATOM
      1 C          -0.0226    2.3526   22.7122 C.ar    1  UNL1        0.2019
      2 N           0.5174    1.3733   23.7119 N.ar    1  UNL1       -0.2135
      3 C          -0.1197    1.6657   25.0380 C.ar    1  UNL1        0.1001
      4 C           0.0298    1.0255   26.3863 C.ar    1  UNL1        0.0252
      5 C          -0.7545    1.5454   27.5544 C.ar    1  UNL1        0.0547
      6 C          -1.6882    2.7054   27.3743 C.ar    1  UNL1        0.0061
      7 C          -1.8377    3.3456   26.0261 C.ar    1  UNL1        0.0189
      8 C          -1.0534    2.8258   24.8580 C.ar    1  UNL1        0.0802
      9 N          -0.9934    3.2503   23.4205 N.ar    1  UNL1       -0.2953
     10 C          -0.6050    0.9052   28.9027 C.2     1  UNL1        0.2428
     11 N           0.4736    1.3675   29.8371 N.am    1  UNL1       -0.3253
     12 O          -1.5341   -0.1972   29.3167 O.2     1  UNL1       -0.2704
     13 H           1.0834    2.0911   29.5653 H       1  UNL1        0.1453
     14 H           0.5717    0.9474   30.7220 H       1  UNL1        0.1453
     15 N           0.3439    2.4221   21.2593 N.pl3   1  UNL1       -0.2839
     16 H          -0.0188    3.1419   20.6940 H       1  UNL1        0.1550
     17 C           3.1015   -0.6595   19.4846 C.ar    1  UNL1        0.1058
     18 C           3.5790    0.7485   19.6836 C.ar    1  UNL1        0.0196
     19 C           2.6599    1.7757   20.2751 C.ar    1  UNL1        0.0160
     20 C           1.2631    1.3949   20.6678 C.ar    1  UNL1        0.0505
     21 C           0.7855   -0.0130   20.4687 C.ar    1  UNL1        0.0160
     22 C           1.7048   -1.0402   19.8771 C.ar    1  UNL1        0.0196
     23 C           4.9399   -2.7139   18.3014 C.3     1  UNL1        0.1816
     24 S           4.0207   -1.6867   18.8929 S.O2    1  UNL1        0.0105
     25 O           3.2198   -2.7767   19.5412 O.2     1  UNL1       -0.1686
     26 O           4.8216   -0.5966   18.2447 O.2     1  UNL1       -0.1686
     27 C          -1.7682    4.3750   22.8003 C.3     1  UNL1        0.1354
     28 C          -2.8732    4.0791   21.8302 C.ar    1  UNL1        0.0044
     29 C          -2.5683    3.9289   20.3691 C.ar    1  UNL1       -0.0024
     30 C          -3.6733    3.6330   19.3988 C.ar    1  UNL1       -0.0003
     31 C          -5.0833    3.4873   19.8896 C.ar    1  UNL1       -0.0001
     32 C          -5.3881    3.6375   21.3506 C.ar    1  UNL1        0.0036
     33 C          -4.2831    3.9334   22.3209 C.ar    1  UNL1        0.0693
     34 C          -4.5881    4.0836   23.7818 C.3     1  UNL1        0.4183
     35 F          -4.8931    4.2337   25.2428 F       1  UNL1       -0.1659
     36 F          -4.5966    5.5755   23.6267 F       1  UNL1       -0.1659
     37 F          -4.5796    2.5917   23.9370 F       1  UNL1       -0.1659
@<TRIPOS>BOND
     1    23    24    1
     2    24    25    2
     3    24    26    2
     4    24    17    1
     5    17    18   ar
     6    18    19   ar
     7    19    20   ar
     8    20    15    1
     9    15     1    1
    10     1     2   ar
    11     2     3   ar
    12     3     4   ar
    13     4     5   ar
    14     5    10    1
    15    10    11   am
    16    10    12    2
    17     5     6   ar
    18     6     7   ar
    19     7     8   ar
    20     8     9   ar
    21     9    27    1
    22    27    28    1
    23    28    29   ar
    24    29    30   ar
    25    30    31   ar
    26    31    32   ar
    27    32    33   ar
    28    33    34    1
    29    34    35    1
    30    34    36    1
    31    34    37    1
    32    20    21   ar
    33    21    22   ar
    34    22    17   ar
    35     9     1   ar
    36    33    28   ar
    37     8     3   ar
    38    15    16    1
    39    11    13    1
    40    11    14    1
@<TRIPOS>MOLECULE
*****
 37 40 0 0 0
SMALL
GASTEIGER

@<TRIPOS>ATOM
      1 C          -5.6095  -19.5932   22.2837 C.ar    1  UNL1        0.2019
      2 N          -4.6445  -20.0200   21.2176 N.ar    1  UNL1       -0.2135
      3 C          -3.5810  -18.9680   21.1068 C.ar    1  UNL1        0.1001
      4 C          -2.3722  -18.8516   20.2264 C.ar    1  UNL1        0.0252
      5 C          -1.4711  -17.6582   20.3437 C.ar    1  UNL1        0.0547
      6 C          -1.7788  -16.5812   21.3415 C.ar    1  UNL1        0.0061
      7 C          -2.9875  -16.6976   22.2219 C.ar    1  UNL1        0.0189
      8 C          -3.8887  -17.8910   22.1046 C.ar    1  UNL1        0.0802
      9 N          -5.1423  -18.2774   22.8319 N.ar    1  UNL1       -0.2953
     10 C          -0.2622  -17.5417   19.4632 C.2     1  UNL1        0.2428
     11 N          -0.3884  -17.7558   17.9840 N.am    1  UNL1       -0.3253
     12 O           1.0727  -17.2112   20.0621 O.2     1  UNL1       -0.2704
     13 H          -1.2646  -17.9727   17.5909 H       1  UNL1        0.1453
     14 H           0.4050  -17.6793   17.4061 H       1  UNL1        0.1453
     15 N          -6.8277  -20.3494   22.7243 N.pl3   1  UNL1       -0.2839
     16 H          -6.7310  -21.2219   23.1701 H       1  UNL1        0.1550
     17 C         -10.9243  -18.6302   22.0089 C.ar    1  UNL1        0.1058
     18 C         -10.4776  -18.9479   23.4051 C.ar    1  UNL1        0.0196
     19 C          -9.1121  -19.5209   23.6436 C.ar    1  UNL1        0.0160
     20 C          -8.1932  -19.7763   22.4858 C.ar    1  UNL1        0.0505
     21 C          -8.6398  -19.4587   21.0896 C.ar    1  UNL1        0.0160
     22 C         -10.0054  -18.8856   20.8511 C.ar    1  UNL1        0.0196
     23 C         -13.6554  -17.4840   21.5319 C.3     1  UNL1        0.1816
     24 S         -12.2899  -18.0571   21.7704 S.O2    1  UNL1        0.0105
     25 O         -11.9348  -17.8087   20.3344 O.2     1  UNL1       -0.1686
     26 O         -12.6449  -18.3054   23.2064 O.2     1  UNL1       -0.1686
     27 C          -5.8114  -17.4868   23.9170 C.3     1  UNL1        0.1354
     28 C          -7.0824  -16.7443   23.6291 C.ar    1  UNL1        0.0044
     29 C          -7.5425  -16.5660   22.2126 C.ar    1  UNL1       -0.0024
     30 C          -8.8136  -15.8235   21.9246 C.ar    1  UNL1       -0.0003
     31 C          -9.6246  -15.2591   23.0533 C.ar    1  UNL1       -0.0001
     32 C          -9.1645  -15.4373   24.4697 C.ar    1  UNL1        0.0036
     33 C          -7.8934  -16.1799   24.7577 C.ar    1  UNL1        0.0693
     34 C          -7.4334  -16.3581   26.1742 C.3     1  UNL1        0.4183
     35 F          -6.9733  -16.5362   27.5907 F       1  UNL1       -0.1659
     36 F          -8.5446  -17.3372   26.4119 F       1  UNL1       -0.1659
     37 F          -6.3222  -15.3789   25.9365 F       1  UNL1       -0.1659
@<TRIPOS>BOND
     1    23    24    1
     2    24    25    2
     3    24    26    2
     4    24    17    1
     5    17    18   ar
     6    18    19   ar
     7    19    20   ar
     8    20    15    1
     9    15     1    1
    10     1     2   ar
    11     2     3   ar
    12     3     4   ar
    13     4     5   ar
    14     5    10    1
    15    10    11   am
    16    10    12    2
    17     5     6   ar
    18     6     7   ar
    19     7     8   ar
    20     8     9   ar
    21     9    27    1
    22    27    28    1
    23    28    29   ar
    24    29    30   ar
    25    30    31   ar
    26    31    32   ar
    27    32    33   ar
    28    33    34    1
    29    34    35    1
    30    34    36    1
    31    34    37    1
    32    20    21   ar
    33    21    22   ar
    34    22    17   ar
    35     9     1   ar
    36    33    28   ar
    37     8     3   ar
    38    15    16    1
    39    11    13    1
    40    11    14    1
