@<TRIPOS>MOLECULE
*****
 36 40 0 0 0
SMALL
GASTEIGER

@<TRIPOS>ATOM
      1 C           5.4656   -0.9239   34.6404 C.ar    1  UNL1       -0.0025
      2 C           4.4386   -1.8330   34.0331 C.ar    1  UNL1       -0.0014
      3 C           4.7547   -2.5879   32.7760 C.ar    1  UNL1        0.0142
      4 C           6.0977   -2.4337   32.1261 C.ar    1  UNL1        0.0479
      5 C           7.1247   -1.5246   32.7334 C.ar    1  UNL1        0.0142
      6 C           6.8087   -0.7697   33.9905 C.ar    1  UNL1       -0.0014
      7 N           6.4138   -3.1885   30.8690 N.pl3   1  UNL1       -0.3041
      8 C           6.3424   -2.4961   29.5404 C.3     1  UNL1        0.1122
      9 C           6.6584   -3.2509   28.2833 C.3     1  UNL1        0.1122
     10 N           7.0458   -4.6983   28.3548 N.pl3   1  UNL1       -0.3041
     11 C           7.1172   -5.3907   29.6835 C.3     1  UNL1        0.1122
     12 C           6.8012   -4.6359   30.9406 C.3     1  UNL1        0.1122
     13 C           7.3618   -5.4531   27.0977 C.ar    1  UNL1        0.0481
     14 C           7.3238   -4.7521   25.7722 C.ar    1  UNL1        0.0168
     15 C           7.6399   -5.5069   24.5152 C.ar    1  UNL1        0.0309
     16 C           7.9939   -6.9629   24.5835 C.ar    1  UNL1        0.1402
     17 F           8.3099   -7.7178   23.3264 F       1  UNL1       -0.2042
     18 C           8.0319   -7.6640   25.9090 C.ar    1  UNL1        0.0309
     19 C           7.7159   -6.9091   27.1661 C.ar    1  UNL1        0.0168
     20 C           5.1496   -0.1691   35.8975 C.3     1  UNL1        0.1166
     21 C           3.8514    1.7345   37.0979 C.2     1  UNL1        0.2635
     22 O           4.7633    1.6094   38.2824 O.2     1  UNL1       -0.2685
     23 N           4.0446    0.8453   35.9055 N.am    1  UNL1       -0.2957
     24 H           3.4461    0.9273   35.1281 H       1  UNL1        0.1501
     25 C           1.6556    2.8562   38.1300 C.ar    1  UNL1        0.0811
     26 N           0.7732    4.0076   37.7483 N.ar    1  UNL1       -0.2306
     27 C           1.3187    4.6118   36.4883 C.ar    1  UNL1        0.1483
     28 C           0.8624    5.7698   35.6512 C.ar    1  UNL1        0.0488
     29 C           1.6257    6.1499   34.4171 C.ar    1  UNL1        0.0622
     30 CL          1.1695    7.3080   33.5800 Cl      1  UNL1       -0.0821
     31 C           2.8451    5.3719   34.0201 C.ar    1  UNL1        0.0305
     32 C           3.3014    4.2138   34.8572 C.ar    1  UNL1        0.0824
     33 N           2.5381    3.8338   36.0913 N.ar    1  UNL1       -0.2853
     34 C           2.7463    2.7488   37.1059 C.ar    1  UNL1        0.1326
     35 C           0.9897    0.5611   39.1492 C.3     1  UNL1        0.0067
     36 C           1.4783    1.9682   39.3258 C.3     1  UNL1        0.0475
@<TRIPOS>BOND
     1    35    36    1
     2    36    25    1
     3    25    26   ar
     4    26    27   ar
     5    27    28   ar
     6    28    29   ar
     7    29    30    1
     8    29    31   ar
     9    31    32   ar
    10    32    33   ar
    11    33    34   ar
    12    34    21    1
    13    21    22    2
    14    21    23   am
    15    23    20    1
    16    20     1    1
    17     1     2   ar
    18     2     3   ar
    19     3     4   ar
    20     4     7    1
    21     7     8    1
    22     8     9    1
    23     9    10    1
    24    10    13    1
    25    13    14   ar
    26    14    15   ar
    27    15    16   ar
    28    16    17    1
    29    16    18   ar
    30    18    19   ar
    31    10    11    1
    32    11    12    1
    33     4     5   ar
    34     5     6   ar
    35    34    25   ar
    36     6     1   ar
    37    33    27   ar
    38    12     7    1
    39    19    13   ar
    40    23    24    1
@<TRIPOS>MOLECULE
*****
 36 40 0 0 0
SMALL
GASTEIGER

@<TRIPOS>ATOM
      1 C           6.2684   -3.6149   24.3366 C.ar    1  UNL1       -0.0025
      2 C           6.9109   -4.4699   25.3883 C.ar    1  UNL1       -0.0014
      3 C           6.8463   -4.0609   26.8300 C.ar    1  UNL1        0.0142
      4 C           6.1392   -2.7968   27.2201 C.ar    1  UNL1        0.0479
      5 C           5.4968   -1.9418   26.1683 C.ar    1  UNL1        0.0142
      6 C           5.5614   -2.3508   24.7266 C.ar    1  UNL1       -0.0014
      7 N           6.0746   -2.3878   28.6618 N.pl3   1  UNL1       -0.3041
      8 C           5.3175   -1.1552   29.0584 C.3     1  UNL1        0.1122
      9 C           5.2528   -0.7462   30.5001 C.3     1  UNL1        0.1122
     10 N           5.9454   -1.5698   31.5452 N.pl3   1  UNL1       -0.3041
     11 C           6.7025   -2.8024   31.1485 C.3     1  UNL1        0.1122
     12 C           6.7671   -3.2114   29.7068 C.3     1  UNL1        0.1122
     13 C           5.8808   -1.1608   32.9869 C.ar    1  UNL1        0.0481
     14 C           4.5956   -1.2968   33.7482 C.ar    1  UNL1        0.0168
     15 C           4.5310   -0.8878   35.1899 C.ar    1  UNL1        0.0309
     16 C           5.7516   -0.3427   35.8703 C.ar    1  UNL1        0.1402
     17 F           5.6870    0.0663   37.3120 F       1  UNL1       -0.2042
     18 C           7.0368   -0.2067   35.1090 C.ar    1  UNL1        0.0309
     19 C           7.1014   -0.6157   33.6673 C.ar    1  UNL1        0.0168
     20 C           6.3331   -4.0239   22.8949 C.3     1  UNL1        0.1166
     21 C           5.0972   -3.2553   20.7427 C.2     1  UNL1        0.2635
     22 O           4.2974   -4.5244   20.7488 O.2     1  UNL1       -0.2685
     23 N           6.1150   -3.0052   21.8158 N.am    1  UNL1       -0.2957
     24 H           6.6399   -2.1723   21.8118 H       1  UNL1        0.1501
     25 C           5.8287   -1.9178   18.5470 C.ar    1  UNL1        0.0811
     26 N           5.2095   -0.8419   17.7050 N.ar    1  UNL1       -0.2306
     27 C           3.8773   -0.4957   18.3011 C.ar    1  UNL1        0.1483
     28 C           2.8239    0.4931   17.8980 C.ar    1  UNL1        0.0488
     29 C           1.5661    0.6199   18.7055 C.ar    1  UNL1        0.0622
     30 CL          0.5126    1.6087   18.3024 Cl      1  UNL1       -0.0821
     31 C           1.3619   -0.2420   19.9160 C.ar    1  UNL1        0.0305
     32 C           2.4154   -1.2308   20.3191 C.ar    1  UNL1        0.0824
     33 N           3.6731   -1.3576   19.5116 N.ar    1  UNL1       -0.2853
     34 C           4.8791   -2.2365   19.6636 C.ar    1  UNL1        0.1326
     35 C           8.3662   -2.0925   19.0764 C.3     1  UNL1        0.0067
     36 C           7.1631   -2.5619   18.3136 C.3     1  UNL1        0.0475
@<TRIPOS>BOND
     1    35    36    1
     2    36    25    1
     3    25    26   ar
     4    26    27   ar
     5    27    28   ar
     6    28    29   ar
     7    29    30    1
     8    29    31   ar
     9    31    32   ar
    10    32    33   ar
    11    33    34   ar
    12    34    21    1
    13    21    22    2
    14    21    23   am
    15    23    20    1
    16    20     1    1
    17     1     2   ar
    18     2     3   ar
    19     3     4   ar
    20     4     7    1
    21     7     8    1
    22     8     9    1
    23     9    10    1
    24    10    13    1
    25    13    14   ar
    26    14    15   ar
    27    15    16   ar
    28    16    17    1
    29    16    18   ar
    30    18    19   ar
    31    10    11    1
    32    11    12    1
    33     4     5   ar
    34     5     6   ar
    35    34    25   ar
    36     6     1   ar
    37    33    27   ar
    38    12     7    1
    39    19    13   ar
    40    23    24    1
@<TRIPOS>MOLECULE
*****
 36 40 0 0 0
SMALL
GASTEIGER

@<TRIPOS>ATOM
      1 C           5.5762   -3.3709   23.6229 C.ar    1  UNL1       -0.0025
      2 C           5.1768   -3.5683   22.1906 C.ar    1  UNL1       -0.0014
      3 C           4.2205   -2.6132   21.5401 C.ar    1  UNL1        0.0142
      4 C           3.6635   -1.4606   22.3219 C.ar    1  UNL1        0.0479
      5 C           4.0628   -1.2632   23.7542 C.ar    1  UNL1        0.0142
      6 C           5.0191   -2.2183   24.4047 C.ar    1  UNL1       -0.0014
      7 N           2.7071   -0.5054   21.6714 N.pl3   1  UNL1       -0.3041
      8 C           2.5418    0.8807   22.2203 C.3     1  UNL1        0.1122
      9 C           1.5855    1.8358   21.5697 C.3     1  UNL1        0.1122
     10 N           0.7945    1.4048   20.3703 N.pl3   1  UNL1       -0.3041
     11 C           0.9598    0.0187   19.8214 C.3     1  UNL1        0.1122
     12 C           1.9161   -0.9364   20.4719 C.3     1  UNL1        0.1122
     13 C          -0.1618    2.3599   19.7198 C.ar    1  UNL1        0.0481
     14 C          -1.3411    2.8798   20.4873 C.ar    1  UNL1        0.0168
     15 C          -2.2974    3.8350   19.8368 C.ar    1  UNL1        0.0309
     16 C          -2.0745    4.2702   18.4187 C.ar    1  UNL1        0.1402
     17 F          -3.0308    5.2253   17.7682 F       1  UNL1       -0.2042
     18 C          -0.8953    3.7502   17.6512 C.ar    1  UNL1        0.0309
     19 C           0.0610    2.7951   18.3017 C.ar    1  UNL1        0.0168
     20 C           6.5325   -4.3260   24.2734 C.3     1  UNL1        0.1166
     21 C           7.6254   -4.6753   26.6044 C.2     1  UNL1        0.2635
     22 O           8.9762   -4.4019   26.0119 O.2     1  UNL1       -0.2685
     23 N           6.4037   -4.6373   25.7351 N.am    1  UNL1       -0.2957
     24 H           5.5172   -4.8168   26.1238 H       1  UNL1        0.1501
     25 C           7.8679   -6.2804   28.7280 C.ar    1  UNL1        0.0811
     26 N           7.5746   -6.1522   30.1934 N.ar    1  UNL1       -0.2306
     27 C           7.0221   -4.7791   30.4372 C.ar    1  UNL1        0.1483
     28 C           6.5566   -4.0917   31.6865 C.ar    1  UNL1        0.0488
     29 C           6.0430   -2.6840   31.6210 C.ar    1  UNL1        0.0622
     30 CL          5.5775   -1.9965   32.8703 Cl      1  UNL1       -0.0821
     31 C           5.9948   -1.9636   30.3062 C.ar    1  UNL1        0.0305
     32 C           6.4602   -2.6510   29.0569 C.ar    1  UNL1        0.0824
     33 N           6.9739   -4.0587   29.1224 N.ar    1  UNL1       -0.2853
     34 C           7.4966   -4.9866   28.0660 C.ar    1  UNL1        0.1326
     35 C           7.6942   -8.1192   26.9008 C.3     1  UNL1        0.0067
     36 C           8.4332   -7.4901   28.0445 C.3     1  UNL1        0.0475
@<TRIPOS>BOND
     1    35    36    1
     2    36    25    1
     3    25    26   ar
     4    26    27   ar
     5    27    28   ar
     6    28    29   ar
     7    29    30    1
     8    29    31   ar
     9    31    32   ar
    10    32    33   ar
    11    33    34   ar
    12    34    21    1
    13    21    22    2
    14    21    23   am
    15    23    20    1
    16    20     1    1
    17     1     2   ar
    18     2     3   ar
    19     3     4   ar
    20     4     7    1
    21     7     8    1
    22     8     9    1
    23     9    10    1
    24    10    13    1
    25    13    14   ar
    26    14    15   ar
    27    15    16   ar
    28    16    17    1
    29    16    18   ar
    30    18    19   ar
    31    10    11    1
    32    11    12    1
    33     4     5   ar
    34     5     6   ar
    35    34    25   ar
    36     6     1   ar
    37    33    27   ar
    38    12     7    1
    39    19    13   ar
    40    23    24    1
@<TRIPOS>MOLECULE
*****
 36 40 0 0 0
SMALL
GASTEIGER

@<TRIPOS>ATOM
      1 C           8.2131   -4.7040   23.7283 C.ar    1  UNL1       -0.0025
      2 C           7.5779   -5.6532   24.7007 C.ar    1  UNL1       -0.0014
      3 C           7.2016   -5.1804   26.0735 C.ar    1  UNL1        0.0142
      4 C           7.4604   -3.7582   26.4741 C.ar    1  UNL1        0.0479
      5 C           8.0955   -2.8089   25.5017 C.ar    1  UNL1        0.0142
      6 C           8.4718   -3.2818   24.1289 C.ar    1  UNL1       -0.0014
      7 N           7.0840   -3.2853   27.8469 N.pl3   1  UNL1       -0.3041
      8 C           6.9471   -4.2717   28.9686 C.3     1  UNL1        0.1122
      9 C           6.5708   -3.7989   30.3414 C.3     1  UNL1        0.1122
     10 N           6.3313   -2.3396   30.5926 N.pl3   1  UNL1       -0.3041
     11 C           6.4682   -1.3531   29.4710 C.3     1  UNL1        0.1122
     12 C           6.8446   -1.8260   28.0981 C.3     1  UNL1        0.1122
     13 C           5.9550   -1.8667   31.9655 C.ar    1  UNL1        0.0481
     14 C           6.8335   -0.8900   32.6894 C.ar    1  UNL1        0.0168
     15 C           6.4572   -0.4171   34.0623 C.ar    1  UNL1        0.0309
     16 C           5.2022   -0.9210   34.7112 C.ar    1  UNL1        0.1402
     17 F           4.8258   -0.4481   36.0841 F       1  UNL1       -0.2042
     18 C           4.3236   -1.8977   33.9873 C.ar    1  UNL1        0.0309
     19 C           4.7000   -2.3705   32.6145 C.ar    1  UNL1        0.0168
     20 C           8.5894   -5.1769   22.3555 C.3     1  UNL1        0.1166
     21 C           6.8163   -3.9333   20.9204 C.2     1  UNL1        0.2635
     22 O           5.7455   -4.3447   21.8870 O.2     1  UNL1       -0.2685
     23 N           8.2382   -4.3494   21.1547 N.am    1  UNL1       -0.2957
     24 H           8.9409   -4.0793   20.5203 H       1  UNL1        0.1501
     25 C           5.4551   -3.4609   18.6689 C.ar    1  UNL1        0.0811
     26 N           5.4280   -2.3524   17.6587 N.ar    1  UNL1       -0.2306
     27 C           6.4212   -1.3123   18.0850 C.ar    1  UNL1        0.1483
     28 C           6.8247   -0.0014   17.4779 C.ar    1  UNL1        0.0488
     29 C           7.8692    0.8440   18.1445 C.ar    1  UNL1        0.0622
     30 CL          8.2727    2.1550   17.5375 Cl      1  UNL1       -0.0821
     31 C           8.5101    0.3784   19.4183 C.ar    1  UNL1        0.0305
     32 C           8.1066   -0.9326   20.0254 C.ar    1  UNL1        0.0824
     33 N           7.0621   -1.7779   19.3587 N.ar    1  UNL1       -0.2853
     34 C           6.4650   -3.1058   19.7196 C.ar    1  UNL1        0.1326
     35 C           3.2741   -4.7246   19.2983 C.3     1  UNL1        0.0067
     36 C           4.6191   -4.7058   18.6345 C.3     1  UNL1        0.0475
@<TRIPOS>BOND
     1    35    36    1
     2    36    25    1
     3    25    26   ar
     4    26    27   ar
     5    27    28   ar
     6    28    29   ar
     7    29    30    1
     8    29    31   ar
     9    31    32   ar
    10    32    33   ar
    11    33    34   ar
    12    34    21    1
    13    21    22    2
    14    21    23   am
    15    23    20    1
    16    20     1    1
    17     1     2   ar
    18     2     3   ar
    19     3     4   ar
    20     4     7    1
    21     7     8    1
    22     8     9    1
    23     9    10    1
    24    10    13    1
    25    13    14   ar
    26    14    15   ar
    27    15    16   ar
    28    16    17    1
    29    16    18   ar
    30    18    19   ar
    31    10    11    1
    32    11    12    1
    33     4     5   ar
    34     5     6   ar
    35    34    25   ar
    36     6     1   ar
    37    33    27   ar
    38    12     7    1
    39    19    13   ar
    40    23    24    1
@<TRIPOS>MOLECULE
*****
 36 40 0 0 0
SMALL
GASTEIGER

@<TRIPOS>ATOM
      1 C           6.8997   -4.6758   29.5272 C.ar    1  UNL1       -0.0025
      2 C           6.9843   -5.1924   30.9328 C.ar    1  UNL1       -0.0014
      3 C           6.7137   -4.2737   32.0872 C.ar    1  UNL1        0.0142
      4 C           6.3585   -2.8381   31.8359 C.ar    1  UNL1        0.0479
      5 C           6.2740   -2.3215   30.4303 C.ar    1  UNL1        0.0142
      6 C           6.5445   -3.2403   29.2759 C.ar    1  UNL1       -0.0014
      7 N           6.0879   -1.9193   32.9903 N.pl3   1  UNL1       -0.3041
      8 C           7.1743   -1.0226   33.5057 C.3     1  UNL1        0.1122
      9 C           6.9037   -0.1038   34.6601 C.3     1  UNL1        0.1122
     10 N           5.5468   -0.0818   35.2991 N.pl3   1  UNL1       -0.3041
     11 C           4.4604   -0.9785   34.7836 C.3     1  UNL1        0.1122
     12 C           4.7310   -1.8973   33.6293 C.3     1  UNL1        0.1122
     13 C           5.2762    0.8370   36.4534 C.ar    1  UNL1        0.0481
     14 C           6.2201    1.9637   36.7525 C.ar    1  UNL1        0.0168
     15 C           5.9495    2.8825   37.9069 C.ar    1  UNL1        0.0309
     16 C           4.7350    2.6746   38.7622 C.ar    1  UNL1        0.1402
     17 F           4.4644    3.5934   39.9166 F       1  UNL1       -0.2042
     18 C           3.7911    1.5479   38.4632 C.ar    1  UNL1        0.0309
     19 C           4.0616    0.6291   37.3088 C.ar    1  UNL1        0.0168
     20 C           7.1703   -5.5946   28.3728 C.3     1  UNL1        0.1166
     21 C           7.5247   -4.6377   25.9835 C.2     1  UNL1        0.2635
     22 O           8.9557   -4.3355   26.3169 O.2     1  UNL1       -0.2685
     23 N           6.6321   -5.2672   27.0115 N.am    1  UNL1       -0.2957
     24 H           5.6929   -5.4655   26.7927 H       1  UNL1        0.1501
     25 C           7.4300   -4.9245   23.3276 C.ar    1  UNL1        0.0811
     26 N           6.6279   -4.3050   22.2219 N.ar    1  UNL1       -0.2306
     27 C           5.6885   -3.3079   22.8330 C.ar    1  UNL1        0.1483
     28 C           4.6601   -2.3974   22.2304 C.ar    1  UNL1        0.0488
     29 C           3.8532   -1.4902   23.1112 C.ar    1  UNL1        0.0622
     30 CL          2.8247   -0.5797   22.5086 Cl      1  UNL1       -0.0821
     31 C           4.0749   -1.4935   24.5948 C.ar    1  UNL1        0.0305
     32 C           5.1033   -2.4040   25.1974 C.ar    1  UNL1        0.0824
     33 N           5.9102   -3.3112   24.3166 N.ar    1  UNL1       -0.2853
     34 C           6.9865   -4.3103   24.6222 C.ar    1  UNL1        0.1326
     35 C           8.3456   -7.2972   23.8585 C.3     1  UNL1        0.0067
     36 C           8.4897   -5.9740   23.1670 C.3     1  UNL1        0.0475
@<TRIPOS>BOND
     1    35    36    1
     2    36    25    1
     3    25    26   ar
     4    26    27   ar
     5    27    28   ar
     6    28    29   ar
     7    29    30    1
     8    29    31   ar
     9    31    32   ar
    10    32    33   ar
    11    33    34   ar
    12    34    21    1
    13    21    22    2
    14    21    23   am
    15    23    20    1
    16    20     1    1
    17     1     2   ar
    18     2     3   ar
    19     3     4   ar
    20     4     7    1
    21     7     8    1
    22     8     9    1
    23     9    10    1
    24    10    13    1
    25    13    14   ar
    26    14    15   ar
    27    15    16   ar
    28    16    17    1
    29    16    18   ar
    30    18    19   ar
    31    10    11    1
    32    11    12    1
    33     4     5   ar
    34     5     6   ar
    35    34    25   ar
    36     6     1   ar
    37    33    27   ar
    38    12     7    1
    39    19    13   ar
    40    23    24    1
@<TRIPOS>MOLECULE
*****
 36 40 0 0 0
SMALL
GASTEIGER

@<TRIPOS>ATOM
      1 C           0.7364    1.2638   24.9794 C.ar    1  UNL1       -0.0025
      2 C           2.1792    0.9838   25.2791 C.ar    1  UNL1       -0.0014
      3 C           2.6434    0.8803   26.7017 C.ar    1  UNL1        0.0142
      4 C           1.6647    1.0568   27.8247 C.ar    1  UNL1        0.0479
      5 C           0.2219    1.3367   27.5250 C.ar    1  UNL1        0.0142
      6 C          -0.2423    1.4402   26.1024 C.ar    1  UNL1       -0.0014
      7 N           2.1289    0.9532   29.2473 N.pl3   1  UNL1       -0.3041
      8 C           2.6291   -0.3569   29.7795 C.3     1  UNL1        0.1122
      9 C           3.0933   -0.4604   31.2021 C.3     1  UNL1        0.1122
     10 N           3.0572    0.7462   32.0925 N.pl3   1  UNL1       -0.3041
     11 C           2.5569    2.0563   31.5603 C.3     1  UNL1        0.1122
     12 C           2.0927    2.1598   30.1377 C.3     1  UNL1        0.1122
     13 C           3.5214    0.6427   33.5151 C.ar    1  UNL1        0.0481
     14 C           4.2642   -0.5767   33.9749 C.ar    1  UNL1        0.0168
     15 C           4.7283   -0.6802   35.3975 C.ar    1  UNL1        0.0309
     16 C           4.4497    0.4357   36.3604 C.ar    1  UNL1        0.1402
     17 F           4.9138    0.3322   37.7830 F       1  UNL1       -0.2042
     18 C           3.7069    1.6550   35.9006 C.ar    1  UNL1        0.0309
     19 C           3.2427    1.7585   34.4780 C.ar    1  UNL1        0.0168
     20 C           0.2722    1.3673   23.5568 C.3     1  UNL1        0.1166
     21 C           0.7716    1.2137   21.0118 C.2     1  UNL1        0.2635
     22 O          -0.6795    1.4490   20.7129 O.2     1  UNL1       -0.2685
     23 N           1.2473    1.1729   22.4337 N.am    1  UNL1       -0.2957
     24 H           2.1997    1.0184   22.6298 H       1  UNL1        0.1501
     25 C           2.0726    2.0209   18.8207 C.ar    1  UNL1        0.0811
     26 N           3.0944    1.4097   17.9083 N.ar    1  UNL1       -0.2306
     27 C           3.4000    0.0304   18.4125 C.ar    1  UNL1        0.1483
     28 C           4.3291   -1.0370   17.9152 C.ar    1  UNL1        0.0488
     29 C           4.4253   -2.3457   18.6418 C.ar    1  UNL1        0.0622
     30 CL          5.3544   -3.4132   18.1446 Cl      1  UNL1       -0.0821
     31 C           3.5923   -2.5870   19.8658 C.ar    1  UNL1        0.0305
     32 C           2.6632   -1.5196   20.3631 C.ar    1  UNL1        0.0824
     33 N           2.5671   -0.2109   19.6364 N.ar    1  UNL1       -0.2853
     34 C           1.7467    1.0193   19.8887 C.ar    1  UNL1        0.1326
     35 C           0.1581    3.5761   18.0046 C.3     1  UNL1        0.0067
     36 C           1.4806    3.3927   18.6882 C.3     1  UNL1        0.0475
@<TRIPOS>BOND
     1    35    36    1
     2    36    25    1
     3    25    26   ar
     4    26    27   ar
     5    27    28   ar
     6    28    29   ar
     7    29    30    1
     8    29    31   ar
     9    31    32   ar
    10    32    33   ar
    11    33    34   ar
    12    34    21    1
    13    21    22    2
    14    21    23   am
    15    23    20    1
    16    20     1    1
    17     1     2   ar
    18     2     3   ar
    19     3     4   ar
    20     4     7    1
    21     7     8    1
    22     8     9    1
    23     9    10    1
    24    10    13    1
    25    13    14   ar
    26    14    15   ar
    27    15    16   ar
    28    16    17    1
    29    16    18   ar
    30    18    19   ar
    31    10    11    1
    32    11    12    1
    33     4     5   ar
    34     5     6   ar
    35    34    25   ar
    36     6     1   ar
    37    33    27   ar
    38    12     7    1
    39    19    13   ar
    40    23    24    1
@<TRIPOS>MOLECULE
*****
 36 40 0 0 0
SMALL
GASTEIGER

@<TRIPOS>ATOM
      1 C           6.5099   -2.7257   31.1171 C.ar    1  UNL1       -0.0025
      2 C           6.8604   -3.9962   30.4011 C.ar    1  UNL1       -0.0014
      3 C           6.7261   -4.0782   28.9094 C.ar    1  UNL1        0.0142
      4 C           6.2412   -2.8895   28.1336 C.ar    1  UNL1        0.0479
      5 C           5.8906   -1.6189   28.8496 C.ar    1  UNL1        0.0142
      6 C           6.0250   -1.5370   30.3413 C.ar    1  UNL1       -0.0014
      7 N           6.1068   -2.9715   26.6419 N.pl3   1  UNL1       -0.3041
      8 C           6.7702   -4.0865   25.8893 C.3     1  UNL1        0.1122
      9 C           6.6359   -4.1685   24.3976 C.3     1  UNL1        0.1122
     10 N           5.8382   -3.1354   23.6585 N.pl3   1  UNL1       -0.3041
     11 C           5.1747   -2.0203   24.4111 C.3     1  UNL1        0.1122
     12 C           5.3091   -1.9383   25.9028 C.3     1  UNL1        0.1122
     13 C           5.7038   -3.2173   22.1668 C.ar    1  UNL1        0.0481
     14 C           4.5159   -3.9007   21.5571 C.ar    1  UNL1        0.0168
     15 C           4.3816   -3.9827   20.0654 C.ar    1  UNL1        0.0309
     16 C           5.4352   -3.3812   19.1833 C.ar    1  UNL1        0.1402
     17 F           5.3009   -3.4632   17.6916 F       1  UNL1       -0.2042
     18 C           6.6231   -2.6978   19.7929 C.ar    1  UNL1        0.0309
     19 C           6.7574   -2.6158   21.2847 C.ar    1  UNL1        0.0168
     20 C           6.6442   -2.6437   32.6088 C.3     1  UNL1        0.1166
     21 C           4.8859   -1.2044   33.8686 C.2     1  UNL1        0.2635
     22 O           3.8687   -2.2927   33.6920 O.2     1  UNL1       -0.2685
     23 N           6.2736   -1.3800   33.3270 N.am    1  UNL1       -0.2957
     24 H           6.9412   -0.6658   33.4428 H       1  UNL1        0.1501
     25 C           5.0868    0.5326   35.8903 C.ar    1  UNL1        0.0811
     26 N           4.4328    1.8374   36.2365 N.ar    1  UNL1       -0.2306
     27 C           3.4572    2.1704   35.1469 C.ar    1  UNL1        0.1483
     28 C           2.5290    3.3324   34.9515 C.ar    1  UNL1        0.0488
     29 C           1.6518    3.3954   33.7364 C.ar    1  UNL1        0.0622
     30 CL          0.7235    4.5574   33.5409 Cl      1  UNL1       -0.0821
     31 C           1.7028    2.2965   32.7167 C.ar    1  UNL1        0.0305
     32 C           2.6310    1.1345   32.9121 C.ar    1  UNL1        0.0824
     33 N           3.5082    1.0715   34.1272 N.ar    1  UNL1       -0.2853
     34 C           4.5153    0.0593   34.5867 C.ar    1  UNL1        0.1326
     35 C           7.3676    0.5545   37.1341 C.3     1  UNL1        0.0067
     36 C           6.1292   -0.1746   36.7047 C.3     1  UNL1        0.0475
@<TRIPOS>BOND
     1    35    36    1
     2    36    25    1
     3    25    26   ar
     4    26    27   ar
     5    27    28   ar
     6    28    29   ar
     7    29    30    1
     8    29    31   ar
     9    31    32   ar
    10    32    33   ar
    11    33    34   ar
    12    34    21    1
    13    21    22    2
    14    21    23   am
    15    23    20    1
    16    20     1    1
    17     1     2   ar
    18     2     3   ar
    19     3     4   ar
    20     4     7    1
    21     7     8    1
    22     8     9    1
    23     9    10    1
    24    10    13    1
    25    13    14   ar
    26    14    15   ar
    27    15    16   ar
    28    16    17    1
    29    16    18   ar
    30    18    19   ar
    31    10    11    1
    32    11    12    1
    33     4     5   ar
    34     5     6   ar
    35    34    25   ar
    36     6     1   ar
    37    33    27   ar
    38    12     7    1
    39    19    13   ar
    40    23    24    1
@<TRIPOS>MOLECULE
*****
 36 40 0 0 0
SMALL
GASTEIGER

@<TRIPOS>ATOM
      1 C           6.4053   -3.7477   24.9922 C.ar    1  UNL1       -0.0025
      2 C           5.8749   -2.3822   25.3146 C.ar    1  UNL1       -0.0014
      3 C           5.8223   -1.9150   26.7390 C.ar    1  UNL1        0.0142
      4 C           6.3002   -2.8133   27.8411 C.ar    1  UNL1        0.0479
      5 C           6.8306   -4.1788   27.5187 C.ar    1  UNL1        0.0142
      6 C           6.8832   -4.6460   26.0943 C.ar    1  UNL1       -0.0014
      7 N           6.2476   -2.3461   29.2655 N.pl3   1  UNL1       -0.3041
      8 C           6.5145   -3.3118   30.3819 C.3     1  UNL1        0.1122
      9 C           6.4620   -2.8446   31.8063 C.3     1  UNL1        0.1122
     10 N           6.1425   -1.4118   32.1143 N.pl3   1  UNL1       -0.3041
     11 C           5.8756   -0.4461   30.9980 C.3     1  UNL1        0.1122
     12 C           5.9282   -0.9133   29.5736 C.3     1  UNL1        0.1122
     13 C           6.0899   -0.9446   33.5387 C.ar    1  UNL1        0.0481
     14 C           4.7970   -0.9950   34.2974 C.ar    1  UNL1        0.0168
     15 C           4.7444   -0.5278   35.7218 C.ar    1  UNL1        0.0309
     16 C           5.9849   -0.0102   36.3876 C.ar    1  UNL1        0.1402
     17 F           5.9323    0.4570   37.8120 F       1  UNL1       -0.2042
     18 C           7.2778    0.0403   35.6290 C.ar    1  UNL1        0.0309
     19 C           7.3304   -0.4269   34.2045 C.ar    1  UNL1        0.0168
     20 C           6.4579   -4.2149   23.5678 C.3     1  UNL1        0.1166
     21 C           5.4999   -2.5613   21.8077 C.2     1  UNL1        0.2635
     22 O           6.7123   -1.6920   21.9645 O.2     1  UNL1       -0.2685
     23 N           5.3727   -3.8227   22.6093 N.am    1  UNL1       -0.2957
     24 H           4.5770   -4.3932   22.5064 H       1  UNL1        0.1501
     25 C           4.2234   -2.7118   19.4640 C.ar    1  UNL1        0.0811
     26 N           3.0209   -2.0435   18.8664 N.ar    1  UNL1       -0.2306
     27 C           2.4690   -1.0877   19.8822 C.ar    1  UNL1        0.1483
     28 C           1.2933   -0.1568   19.8497 C.ar    1  UNL1        0.0488
     29 C           0.9791    0.6965   21.0427 C.ar    1  UNL1        0.0622
     30 CL         -0.1966    1.6275   21.0102 Cl      1  UNL1       -0.0821
     31 C           1.8406    0.6188   22.2681 C.ar    1  UNL1        0.0305
     32 C           3.0163   -0.3121   22.3007 C.ar    1  UNL1        0.0824
     33 N           3.3304   -1.1654   21.1077 N.ar    1  UNL1       -0.2853
     34 C           4.4147   -2.1691   20.8492 C.ar    1  UNL1        0.1326
     35 C           4.6468   -5.1765   18.7597 C.3     1  UNL1        0.0067
     36 C           5.0836   -3.7420   18.7940 C.3     1  UNL1        0.0475
@<TRIPOS>BOND
     1    35    36    1
     2    36    25    1
     3    25    26   ar
     4    26    27   ar
     5    27    28   ar
     6    28    29   ar
     7    29    30    1
     8    29    31   ar
     9    31    32   ar
    10    32    33   ar
    11    33    34   ar
    12    34    21    1
    13    21    22    2
    14    21    23   am
    15    23    20    1
    16    20     1    1
    17     1     2   ar
    18     2     3   ar
    19     3     4   ar
    20     4     7    1
    21     7     8    1
    22     8     9    1
    23     9    10    1
    24    10    13    1
    25    13    14   ar
    26    14    15   ar
    27    15    16   ar
    28    16    17    1
    29    16    18   ar
    30    18    19   ar
    31    10    11    1
    32    11    12    1
    33     4     5   ar
    34     5     6   ar
    35    34    25   ar
    36     6     1   ar
    37    33    27   ar
    38    12     7    1
    39    19    13   ar
    40    23    24    1
@<TRIPOS>MOLECULE
*****
 36 40 0 0 0
SMALL
GASTEIGER

@<TRIPOS>ATOM
      1 C           3.2561    0.7137   33.0644 C.ar    1  UNL1       -0.0025
      2 C           3.2626   -0.0988   31.8035 C.ar    1  UNL1       -0.0014
      3 C           2.4062    0.3114   30.6424 C.ar    1  UNL1        0.0142
      4 C           1.5431    1.5342   30.7421 C.ar    1  UNL1        0.0479
      5 C           1.5366    2.3467   32.0029 C.ar    1  UNL1        0.0142
      6 C           2.3930    1.9365   33.1640 C.ar    1  UNL1       -0.0014
      7 N           0.6867    1.9444   29.5810 N.pl3   1  UNL1       -0.3041
      8 C          -0.1928    0.9351   28.9043 C.3     1  UNL1        0.1122
      9 C          -1.0493    1.3453   27.7432 C.3     1  UNL1        0.1122
     10 N          -1.0262    2.7648   27.2587 N.pl3   1  UNL1       -0.3041
     11 C          -0.1467    3.7740   27.9354 C.3     1  UNL1        0.1122
     12 C           0.7097    3.3638   29.0965 C.3     1  UNL1        0.1122
     13 C          -1.8827    3.1750   26.0976 C.ar    1  UNL1        0.0481
     14 C          -1.3146    3.1739   24.7093 C.ar    1  UNL1        0.0168
     15 C          -2.1711    3.5841   23.5482 C.ar    1  UNL1        0.0309
     16 C          -3.5956    3.9954   23.7753 C.ar    1  UNL1        0.1402
     17 F          -4.4521    4.4056   22.6142 F       1  UNL1       -0.2042
     18 C          -4.1636    3.9964   25.1636 C.ar    1  UNL1        0.0309
     19 C          -3.3072    3.5862   26.3247 C.ar    1  UNL1        0.0168
     20 C           4.1125    0.3035   34.2255 C.3     1  UNL1        0.1166
     21 C           4.8988    0.6704   36.6744 C.2     1  UNL1        0.2635
     22 O           5.6185   -0.6454   36.6404 O.2     1  UNL1       -0.2685
     23 N           4.1459    1.1447   35.4669 N.am    1  UNL1       -0.2957
     24 H           3.6736    2.0083   35.4892 H       1  UNL1        0.1501
     25 C           3.7400    1.9724   38.7009 C.ar    1  UNL1        0.0811
     26 N           4.2347    2.7853   39.8605 N.ar    1  UNL1       -0.2306
     27 C           5.7326    2.8269   39.7920 C.ar    1  UNL1        0.1483
     28 C           6.7596    3.4799   40.6687 C.ar    1  UNL1        0.0488
     29 C           8.2178    3.3457   40.3436 C.ar    1  UNL1        0.0622
     30 CL          9.2449    3.9987   41.2203 Cl      1  UNL1       -0.0821
     31 C           8.6489    2.5585   39.1417 C.ar    1  UNL1        0.0305
     32 C           7.6218    1.9055   38.2650 C.ar    1  UNL1        0.0824
     33 N           6.1637    2.0397   38.5901 N.ar    1  UNL1       -0.2853
     34 C           4.9322    1.5116   37.9158 C.ar    1  UNL1        0.1326
     35 C           1.5937    0.5637   39.0989 C.3     1  UNL1        0.0067
     36 C           2.3052    1.6729   38.3825 C.3     1  UNL1        0.0475
@<TRIPOS>BOND
     1    35    36    1
     2    36    25    1
     3    25    26   ar
     4    26    27   ar
     5    27    28   ar
     6    28    29   ar
     7    29    30    1
     8    29    31   ar
     9    31    32   ar
    10    32    33   ar
    11    33    34   ar
    12    34    21    1
    13    21    22    2
    14    21    23   am
    15    23    20    1
    16    20     1    1
    17     1     2   ar
    18     2     3   ar
    19     3     4   ar
    20     4     7    1
    21     7     8    1
    22     8     9    1
    23     9    10    1
    24    10    13    1
    25    13    14   ar
    26    14    15   ar
    27    15    16   ar
    28    16    17    1
    29    16    18   ar
    30    18    19   ar
    31    10    11    1
    32    11    12    1
    33     4     5   ar
    34     5     6   ar
    35    34    25   ar
    36     6     1   ar
    37    33    27   ar
    38    12     7    1
    39    19    13   ar
    40    23    24    1
