@<TRIPOS>MOLECULE
*****
 38 43 0 0 0
SMALL
GASTEIGER

@<TRIPOS>ATOM
      1 C          -1.3577    3.9705   19.1025 C.3     1  UNL1        0.0666
      2 S          -0.3932    3.8148   17.9643 S.3     1  UNL1       -0.0756
      3 C           1.1460    0.9825   18.4731 C.3     1  UNL1        0.1340
      4 N           1.7788    2.3425   18.4743 N.ar    1  UNL1       -0.2884
      5 C           1.0713    3.6444   18.2405 C.ar    1  UNL1        0.1932
      6 N           2.0854    4.7459   18.3312 N.ar    1  UNL1       -0.1221
      7 N           3.4196    4.1249   18.6212 N.ar    1  UNL1       -0.1282
      8 C           3.2302    2.6395   18.7096 C.ar    1  UNL1        0.1668
      9 C           4.3037    1.6286   18.9850 C.ar    1  UNL1        0.0360
     10 C           4.9090    1.5313   20.3540 C.ar    1  UNL1        0.0032
     11 C           5.9824    0.5204   20.6293 C.ar    1  UNL1        0.0047
     12 C           6.4505   -0.3932   19.5355 C.ar    1  UNL1        0.0536
     13 C           5.8452   -0.2959   18.1666 C.ar    1  UNL1        0.0047
     14 C           4.7718    0.7150   17.8913 C.ar    1  UNL1        0.0032
     15 C           7.5239   -1.4041   19.8109 C.ar    1  UNL1        0.2299
     16 N           8.0067   -1.8307   21.1655 N.ar    1  UNL1       -0.2065
     17 C           9.0842   -2.8561   20.9719 C.ar    1  UNL1        0.1427
     18 C           9.2674   -3.0633   19.4975 C.ar    1  UNL1        0.2021
     19 O           8.3031   -2.1658   18.7800 O.2     1  UNL1       -0.4314
     20 C          -0.8905    3.7723   20.5140 C.3     1  UNL1        0.0294
     21 C          -0.8788    2.3977   21.1142 C.3     1  UNL1        0.0730
     22 N           0.1289    2.0484   22.1690 N.3     1  UNL1       -0.2726
     23 C           0.3070    2.7475   23.4841 C.3     1  UNL1        0.0721
     24 C           1.4236    2.0698   24.2217 C.3     1  UNL1        0.0190
     25 C           1.9355    0.9519   23.3625 C.3     1  UNL1        0.0201
     26 C           2.9912    0.4877   24.3216 C.3     1  UNL1        0.0061
     27 C           2.8130   -0.2114   23.0065 C.3     1  UNL1        0.0237
     28 C           1.1353    0.9387   22.0938 C.3     1  UNL1        0.0724
     29 C           3.2167   -1.2867   22.0418 C.ar    1  UNL1       -0.0225
     30 C           4.1467   -2.3784   22.4815 C.ar    1  UNL1       -0.0043
     31 C           4.5504   -3.4536   21.5168 C.ar    1  UNL1        0.0035
     32 C           4.0242   -3.4371   20.1122 C.ar    1  UNL1        0.0714
     33 C           3.0943   -2.3454   19.6724 C.ar    1  UNL1        0.0035
     34 C           2.6905   -1.2702   20.6372 C.ar    1  UNL1       -0.0043
     35 C           4.4279   -4.5124   19.1474 C.3     1  UNL1        0.4186
     36 F           4.8317   -5.5877   18.1826 F       1  UNL1       -0.1659
     37 F           5.3776   -3.5599   18.4833 F       1  UNL1       -0.1659
     38 F           3.4783   -5.4648   19.8115 F       1  UNL1       -0.1659
@<TRIPOS>BOND
     1     3     4    1
     2     4     5   ar
     3     5     2    1
     4     2     1    1
     5     1    20    1
     6    20    21    1
     7    21    22    1
     8    22    23    1
     9    23    24    1
    10    25    24    1
    11    25    26    1
    12    26    27    1
    13    27    29    1
    14    29    30   ar
    15    30    31   ar
    16    31    32   ar
    17    32    35    1
    18    35    36    1
    19    35    37    1
    20    35    38    1
    21    32    33   ar
    22    33    34   ar
    23    25    28    1
    24     5     6   ar
    25     6     7   ar
    26     7     8   ar
    27     8     9    1
    28     9    10   ar
    29    10    11   ar
    30    11    12   ar
    31    12    15    1
    32    15    16   ar
    33    16    17   ar
    34    17    18   ar
    35    18    19   ar
    36    12    13   ar
    37    13    14   ar
    38     8     4   ar
    39    14     9   ar
    40    28    22    1
    41    19    15   ar
    42    27    25    1
    43    34    29   ar
@<TRIPOS>MOLECULE
*****
 38 43 0 0 0
SMALL
GASTEIGER

@<TRIPOS>ATOM
      1 C           7.4748    4.2672   17.0096 C.3     1  UNL1        0.0666
      2 S           8.3112    3.0693   16.6703 S.3     1  UNL1       -0.0756
      3 C           8.8967    1.6397   19.5449 C.3     1  UNL1        0.1340
      4 N           8.1295    1.0419   18.4029 N.ar    1  UNL1       -0.2884
      5 C           7.8604    1.6990   17.0816 C.ar    1  UNL1        0.1932
      6 N           7.0612    0.7453   16.2439 N.ar    1  UNL1       -0.1221
      7 N           6.8365   -0.5012   17.0474 N.ar    1  UNL1       -0.1282
      8 C           7.4967   -0.3179   18.3818 C.ar    1  UNL1        0.1668
      9 C           7.5200   -1.3188   19.4989 C.ar    1  UNL1        0.0360
     10 C           6.7749   -1.0407   20.7706 C.ar    1  UNL1        0.0032
     11 C           6.7982   -2.0415   21.8877 C.ar    1  UNL1        0.0047
     12 C           7.5667   -3.3204   21.7329 C.ar    1  UNL1        0.0536
     13 C           8.3119   -3.5985   20.4611 C.ar    1  UNL1        0.0047
     14 C           8.2885   -2.5976   19.3441 C.ar    1  UNL1        0.0032
     15 C           7.5900   -4.3213   22.8500 C.ar    1  UNL1        0.2299
     16 N           8.1645   -5.7052   22.7819 N.ar    1  UNL1       -0.2065
     17 C           7.9725   -6.3532   24.1210 C.ar    1  UNL1        0.1427
     18 C           7.2794   -5.3696   25.0168 C.ar    1  UNL1        0.2021
     19 O           7.0430   -4.1138   24.2312 O.2     1  UNL1       -0.4314
     20 C           6.3160    4.1303   17.9522 C.3     1  UNL1        0.0294
     21 C           5.1337    5.0447   17.8253 C.3     1  UNL1        0.0730
     22 N           3.7469    4.5100   18.0275 N.3     1  UNL1       -0.2726
     23 C           2.4808    5.3141   18.0106 C.3     1  UNL1        0.0721
     24 C           1.3341    4.3784   18.2548 C.3     1  UNL1        0.0190
     25 C           1.8916    2.9960   18.4227 C.3     1  UNL1        0.0201
     26 C           0.5707    2.3197   18.6414 C.3     1  UNL1        0.0061
     27 C           1.8368    1.5156   18.6583 C.3     1  UNL1        0.0237
     28 C           3.3828    3.0773   18.2822 C.3     1  UNL1        0.0724
     29 C           2.5362    0.1967   18.8042 C.ar    1  UNL1       -0.0225
     30 C           3.2902   -0.3847   17.6450 C.ar    1  UNL1       -0.0043
     31 C           3.9896   -1.7036   17.7909 C.ar    1  UNL1        0.0035
     32 C           3.9350   -2.4411   19.0958 C.ar    1  UNL1        0.0714
     33 C           3.1810   -1.8598   20.2550 C.ar    1  UNL1        0.0035
     34 C           2.4816   -0.5409   20.1092 C.ar    1  UNL1       -0.0043
     35 C           4.6344   -3.7601   19.2417 C.3     1  UNL1        0.4186
     36 F           5.3338   -5.0791   19.3876 F       1  UNL1       -0.1659
     37 F           5.3647   -3.5151   17.9546 F       1  UNL1       -0.1659
     38 F           3.9040   -4.0051   20.5287 F       1  UNL1       -0.1659
@<TRIPOS>BOND
     1     3     4    1
     2     4     5   ar
     3     5     2    1
     4     2     1    1
     5     1    20    1
     6    20    21    1
     7    21    22    1
     8    22    23    1
     9    23    24    1
    10    25    24    1
    11    25    26    1
    12    26    27    1
    13    27    29    1
    14    29    30   ar
    15    30    31   ar
    16    31    32   ar
    17    32    35    1
    18    35    36    1
    19    35    37    1
    20    35    38    1
    21    32    33   ar
    22    33    34   ar
    23    25    28    1
    24     5     6   ar
    25     6     7   ar
    26     7     8   ar
    27     8     9    1
    28     9    10   ar
    29    10    11   ar
    30    11    12   ar
    31    12    15    1
    32    15    16   ar
    33    16    17   ar
    34    17    18   ar
    35    18    19   ar
    36    12    13   ar
    37    13    14   ar
    38     8     4   ar
    39    14     9   ar
    40    28    22    1
    41    19    15   ar
    42    27    25    1
    43    34    29   ar
@<TRIPOS>MOLECULE
*****
 38 43 0 0 0
SMALL
GASTEIGER

@<TRIPOS>ATOM
      1 C           9.4182   -0.5961   19.3793 C.3     1  UNL1        0.0666
      2 S           8.8028    0.4874   18.5442 S.3     1  UNL1       -0.0756
      3 C           6.3554    2.1401   19.9328 C.3     1  UNL1        0.1340
      4 N           6.2301    1.1668   18.7984 N.ar    1  UNL1       -0.2884
      5 C           7.3550    0.4071   18.1601 C.ar    1  UNL1        0.1932
      6 N           6.7780   -0.4469   17.0703 N.ar    1  UNL1       -0.1221
      7 N           5.2965   -0.2151   17.0350 N.ar    1  UNL1       -0.1282
      8 C           4.9577    0.7823   18.1031 C.ar    1  UNL1        0.1668
      9 C           3.5874    1.3036   18.4200 C.ar    1  UNL1        0.0360
     10 C           3.4273    2.6472   19.0674 C.ar    1  UNL1        0.0032
     11 C           2.0569    3.1684   19.3844 C.ar    1  UNL1        0.0047
     12 C           0.8467    2.3460   19.0539 C.ar    1  UNL1        0.0536
     13 C           1.0069    1.0024   18.4066 C.ar    1  UNL1        0.0047
     14 C           2.3773    0.4812   18.0897 C.ar    1  UNL1        0.0032
     15 C          -0.5236    2.8673   19.3709 C.ar    1  UNL1        0.2299
     16 N          -1.3617    2.4818   20.5537 N.ar    1  UNL1       -0.2065
     17 C          -2.6525    3.2418   20.4746 C.ar    1  UNL1        0.1427
     18 C          -2.6122    4.0970   19.2429 C.ar    1  UNL1        0.2021
     19 O          -1.2964    3.8655   18.5608 O.2     1  UNL1       -0.4314
     20 C           9.0347   -0.7402   20.8222 C.3     1  UNL1        0.0294
     21 C           8.2506   -1.9364   21.2741 C.3     1  UNL1        0.0730
     22 N           6.9196   -2.2394   20.6521 N.3     1  UNL1       -0.2726
     23 C           6.6872   -3.0847   19.4350 C.3     1  UNL1        0.0721
     24 C           5.2113   -3.1179   19.1688 C.3     1  UNL1        0.0190
     25 C           4.5317   -2.2932   20.2214 C.3     1  UNL1        0.0201
     26 C           3.1370   -2.5083   19.7130 C.3     1  UNL1        0.0061
     27 C           3.3695   -1.6631   20.9301 C.3     1  UNL1        0.0237
     28 C           5.5875   -1.7503   21.1382 C.3     1  UNL1        0.0724
     29 C           2.8328   -0.8112   22.0420 C.ar    1  UNL1       -0.0225
     30 C           3.2959   -1.0375   23.4507 C.ar    1  UNL1       -0.0043
     31 C           2.7591   -0.1857   24.5626 C.ar    1  UNL1        0.0035
     32 C           1.7593    0.8924   24.2657 C.ar    1  UNL1        0.0714
     33 C           1.2963    1.1187   22.8570 C.ar    1  UNL1        0.0035
     34 C           1.8330    0.2668   21.7452 C.ar    1  UNL1       -0.0043
     35 C           1.2226    1.7442   25.3776 C.3     1  UNL1        0.4186
     36 F           0.6858    2.5961   26.4895 F       1  UNL1       -0.1659
     37 F           2.4715    2.5743   25.3445 F       1  UNL1       -0.1659
     38 F          -0.0263    0.9142   25.4106 F       1  UNL1       -0.1659
@<TRIPOS>BOND
     1     3     4    1
     2     4     5   ar
     3     5     2    1
     4     2     1    1
     5     1    20    1
     6    20    21    1
     7    21    22    1
     8    22    23    1
     9    23    24    1
    10    25    24    1
    11    25    26    1
    12    26    27    1
    13    27    29    1
    14    29    30   ar
    15    30    31   ar
    16    31    32   ar
    17    32    35    1
    18    35    36    1
    19    35    37    1
    20    35    38    1
    21    32    33   ar
    22    33    34   ar
    23    25    28    1
    24     5     6   ar
    25     6     7   ar
    26     7     8   ar
    27     8     9    1
    28     9    10   ar
    29    10    11   ar
    30    11    12   ar
    31    12    15    1
    32    15    16   ar
    33    16    17   ar
    34    17    18   ar
    35    18    19   ar
    36    12    13   ar
    37    13    14   ar
    38     8     4   ar
    39    14     9   ar
    40    28    22    1
    41    19    15   ar
    42    27    25    1
    43    34    29   ar
@<TRIPOS>MOLECULE
*****
 38 43 0 0 0
SMALL
GASTEIGER

@<TRIPOS>ATOM
      1 C          -4.1784    4.3759   20.4028 C.3     1  UNL1        0.0666
      2 S          -2.7986    4.9154   20.1686 S.3     1  UNL1       -0.0756
      3 C          -0.9629    2.5274   21.4244 C.3     1  UNL1        0.1340
      4 N          -0.9452    2.9967   19.9998 N.ar    1  UNL1       -0.2884
      5 C          -1.7889    4.0943   19.4226 C.ar    1  UNL1        0.1932
      6 N          -1.4459    4.2268   17.9684 N.ar    1  UNL1       -0.1221
      7 N          -0.3901    3.2110   17.6468 N.ar    1  UNL1       -0.1282
      8 C          -0.0806    2.4507   18.9023 C.ar    1  UNL1        0.1668
      9 C           0.9181    1.3396   19.0367 C.ar    1  UNL1        0.0360
     10 C           0.6504    0.1999   19.9745 C.ar    1  UNL1        0.0032
     11 C           1.6491   -0.9113   20.1089 C.ar    1  UNL1        0.0047
     12 C           2.9155   -0.8826   19.3054 C.ar    1  UNL1        0.0536
     13 C           3.1832    0.2571   18.3677 C.ar    1  UNL1        0.0047
     14 C           2.1845    1.3682   18.2333 C.ar    1  UNL1        0.0032
     15 C           3.9142   -1.9937   19.4398 C.ar    1  UNL1        0.2299
     16 N           5.2765   -1.8847   20.0581 N.ar    1  UNL1       -0.2065
     17 C           5.9302   -3.2325   19.9799 C.ar    1  UNL1        0.1427
     18 C           4.9719   -4.1746   19.3134 C.ar    1  UNL1        0.2021
     19 O           3.7259   -3.4089   18.9796 O.2     1  UNL1       -0.4314
     20 C          -4.3865    3.2366   21.3560 C.3     1  UNL1        0.0294
     21 C          -5.1753    3.4461   22.6145 C.3     1  UNL1        0.0730
     22 N          -4.4683    3.5618   23.9324 N.3     1  UNL1       -0.2726
     23 C          -5.0861    3.9927   25.2296 C.3     1  UNL1        0.0721
     24 C          -4.0189    3.9642   26.2832 C.3     1  UNL1        0.0190
     25 C          -2.7415    3.5157   25.6373 C.3     1  UNL1        0.0201
     26 C          -1.9048    3.5840   26.8804 C.3     1  UNL1        0.0061
     27 C          -1.2870    3.1532   25.5832 C.3     1  UNL1        0.0237
     28 C          -3.0192    3.2671   24.1844 C.3     1  UNL1        0.0724
     29 C          -0.0905    2.6951   24.8030 C.ar    1  UNL1       -0.0225
     30 C           0.1600    1.2293   24.6058 C.ar    1  UNL1       -0.0043
     31 C           1.3564    0.7713   23.8256 C.ar    1  UNL1        0.0035
     32 C           2.3023    1.7789   23.2427 C.ar    1  UNL1        0.0714
     33 C           2.0518    3.2447   23.4399 C.ar    1  UNL1        0.0035
     34 C           0.8554    3.7027   24.2201 C.ar    1  UNL1       -0.0043
     35 C           3.4988    1.3208   22.4625 C.3     1  UNL1        0.4186
     36 F           4.6953    0.8627   21.6823 F       1  UNL1       -0.1659
     37 F           3.1306    2.2559   21.3489 F       1  UNL1       -0.1659
     38 F           3.8669    0.3857   23.5761 F       1  UNL1       -0.1659
@<TRIPOS>BOND
     1     3     4    1
     2     4     5   ar
     3     5     2    1
     4     2     1    1
     5     1    20    1
     6    20    21    1
     7    21    22    1
     8    22    23    1
     9    23    24    1
    10    25    24    1
    11    25    26    1
    12    26    27    1
    13    27    29    1
    14    29    30   ar
    15    30    31   ar
    16    31    32   ar
    17    32    35    1
    18    35    36    1
    19    35    37    1
    20    35    38    1
    21    32    33   ar
    22    33    34   ar
    23    25    28    1
    24     5     6   ar
    25     6     7   ar
    26     7     8   ar
    27     8     9    1
    28     9    10   ar
    29    10    11   ar
    30    11    12   ar
    31    12    15    1
    32    15    16   ar
    33    16    17   ar
    34    17    18   ar
    35    18    19   ar
    36    12    13   ar
    37    13    14   ar
    38     8     4   ar
    39    14     9   ar
    40    28    22    1
    41    19    15   ar
    42    27    25    1
    43    34    29   ar
@<TRIPOS>MOLECULE
*****
 38 43 0 0 0
SMALL
GASTEIGER

@<TRIPOS>ATOM
      1 C           2.3321   -0.0983   29.4551 C.3     1  UNL1        0.0666
      2 S           1.5784    1.0399   30.0766 S.3     1  UNL1       -0.0756
      3 C          -1.0086    0.5243   28.1554 C.3     1  UNL1        0.1340
      4 N          -0.2792    1.8244   28.3220 N.ar    1  UNL1       -0.2884
      5 C           0.9099    2.0615   29.2051 C.ar    1  UNL1        0.1932
      6 N           1.3131    3.4993   29.0637 N.ar    1  UNL1       -0.1221
      7 N           0.3732    4.1510   28.0932 N.ar    1  UNL1       -0.1282
      8 C          -0.6109    3.1159   27.6347 C.ar    1  UNL1        0.1668
      9 C          -1.7302    3.3339   26.6602 C.ar    1  UNL1        0.0360
     10 C          -1.4844    3.1788   25.1887 C.ar    1  UNL1        0.0032
     11 C          -2.6036    3.3968   24.2142 C.ar    1  UNL1        0.0047
     12 C          -3.9688    3.7700   24.7113 C.ar    1  UNL1        0.0536
     13 C          -4.2147    3.9252   26.1829 C.ar    1  UNL1        0.0047
     14 C          -3.0953    3.7071   27.1573 C.ar    1  UNL1        0.0032
     15 C          -5.0881    3.9881   23.7368 C.ar    1  UNL1        0.2299
     16 N          -4.9712    3.9702   22.2415 N.ar    1  UNL1       -0.2065
     17 C          -6.3316    4.2334   21.6670 C.ar    1  UNL1        0.1427
     18 C          -7.2894    4.4138   22.8073 C.ar    1  UNL1        0.2021
     19 O          -6.5208    4.2622   24.0865 O.2     1  UNL1       -0.4314
     20 C           3.3728    0.1733   28.4095 C.3     1  UNL1        0.0294
     21 C           3.2965   -0.5146   27.0788 C.3     1  UNL1        0.0730
     22 N           2.8497    0.2463   25.8657 N.3     1  UNL1       -0.2726
     23 C           2.2486    1.6206   25.8588 C.3     1  UNL1        0.0721
     24 C           1.9530    1.9900   24.4354 C.3     1  UNL1        0.0190
     25 C           2.3715    0.8441   23.5626 C.3     1  UNL1        0.0201
     26 C           1.9709    1.4810   22.2649 C.3     1  UNL1        0.0061
     27 C           2.5720    0.1068   22.2718 C.3     1  UNL1        0.0237
     28 C           2.9257   -0.2336   24.4466 C.3     1  UNL1        0.0724
     29 C           3.0349   -1.1124   21.5306 C.ar    1  UNL1       -0.0225
     30 C           2.5578   -1.3655   20.1311 C.ar    1  UNL1       -0.0043
     31 C           3.0207   -2.5846   19.3899 C.ar    1  UNL1        0.0035
     32 C           3.9606   -3.5506   20.0481 C.ar    1  UNL1        0.0714
     33 C           4.4377   -3.2976   21.4476 C.ar    1  UNL1        0.0035
     34 C           3.9748   -2.0784   22.1888 C.ar    1  UNL1       -0.0043
     35 C           4.4235   -4.7698   19.3069 C.3     1  UNL1        0.4186
     36 F           4.8863   -5.9890   18.5656 F       1  UNL1       -0.1659
     37 F           5.5545   -3.9812   18.7162 F       1  UNL1       -0.1659
     38 F           3.2925   -5.5583   19.8976 F       1  UNL1       -0.1659
@<TRIPOS>BOND
     1     3     4    1
     2     4     5   ar
     3     5     2    1
     4     2     1    1
     5     1    20    1
     6    20    21    1
     7    21    22    1
     8    22    23    1
     9    23    24    1
    10    25    24    1
    11    25    26    1
    12    26    27    1
    13    27    29    1
    14    29    30   ar
    15    30    31   ar
    16    31    32   ar
    17    32    35    1
    18    35    36    1
    19    35    37    1
    20    35    38    1
    21    32    33   ar
    22    33    34   ar
    23    25    28    1
    24     5     6   ar
    25     6     7   ar
    26     7     8   ar
    27     8     9    1
    28     9    10   ar
    29    10    11   ar
    30    11    12   ar
    31    12    15    1
    32    15    16   ar
    33    16    17   ar
    34    17    18   ar
    35    18    19   ar
    36    12    13   ar
    37    13    14   ar
    38     8     4   ar
    39    14     9   ar
    40    28    22    1
    41    19    15   ar
    42    27    25    1
    43    34    29   ar
@<TRIPOS>MOLECULE
*****
 38 43 0 0 0
SMALL
GASTEIGER

@<TRIPOS>ATOM
      1 C           6.8921   -5.4098   27.7094 C.3     1  UNL1        0.0666
      2 S           7.5308   -4.4754   28.6936 S.3     1  UNL1       -0.0756
      3 C           7.2866   -3.7674   31.8699 C.3     1  UNL1        0.1340
      4 N           6.6211   -3.0270   30.7478 N.ar    1  UNL1       -0.2884
      5 C           6.7334   -3.3524   29.2878 C.ar    1  UNL1        0.1932
      6 N           5.9082   -2.3578   28.5264 N.ar    1  UNL1       -0.1221
      7 N           5.2859   -1.4177   29.5158 N.ar    1  UNL1       -0.1282
      8 C           5.7265   -1.8312   30.8887 C.ar    1  UNL1        0.1668
      9 C           5.3403   -1.1658   32.1764 C.ar    1  UNL1        0.0360
     10 C           4.7463   -1.9758   33.2905 C.ar    1  UNL1        0.0032
     11 C           4.3601   -1.3104   34.5782 C.ar    1  UNL1        0.0047
     12 C           4.5679    0.1650   34.7517 C.ar    1  UNL1        0.0536
     13 C           5.1619    0.9750   33.6376 C.ar    1  UNL1        0.0047
     14 C           5.5481    0.3095   32.3500 C.ar    1  UNL1        0.0032
     15 C           4.1817    0.8304   36.0394 C.ar    1  UNL1        0.2299
     16 N           3.0927    1.8470   36.2145 N.ar    1  UNL1       -0.2065
     17 C           3.0547    2.2409   37.6613 C.ar    1  UNL1        0.1427
     18 C           4.1201    1.4678   38.3805 C.ar    1  UNL1        0.2021
     19 O           4.8167    0.5960   37.3780 O.2     1  UNL1       -0.4314
     20 C           7.7210   -6.4504   27.0164 C.3     1  UNL1        0.0294
     21 C           7.0958   -7.7452   26.5890 C.3     1  UNL1        0.0730
     22 N           7.6238   -9.0445   27.1209 N.3     1  UNL1       -0.2726
     23 C           9.0651   -9.3720   27.3767 C.3     1  UNL1        0.0721
     24 C           9.1351  -10.7744   27.9042 C.3     1  UNL1        0.0190
     25 C           7.7372  -11.3137   27.9746 C.3     1  UNL1        0.0201
     26 C           8.1161  -12.6623   28.5109 C.3     1  UNL1        0.0061
     27 C           6.6748  -12.3348   28.2552 C.3     1  UNL1        0.0237
     28 C           6.8031  -10.2445   27.4905 C.3     1  UNL1        0.0724
     29 C           5.2293  -12.7352   28.2695 C.ar    1  UNL1       -0.0225
     30 C           4.3140  -12.2023   29.3317 C.ar    1  UNL1       -0.0043
     31 C           2.8685  -12.6028   29.3460 C.ar    1  UNL1        0.0035
     32 C           2.3384  -13.5361   28.2982 C.ar    1  UNL1        0.0714
     33 C           3.2538  -14.0689   27.2360 C.ar    1  UNL1        0.0035
     34 C           4.6992  -13.6685   27.2217 C.ar    1  UNL1       -0.0043
     35 C           0.8929  -13.9365   28.3125 C.3     1  UNL1        0.4186
     36 F          -0.5527  -14.3369   28.3269 F       1  UNL1       -0.1659
     37 F           1.2759  -15.3331   27.9218 F       1  UNL1       -0.1659
     38 F           0.5099  -12.5399   28.7033 F       1  UNL1       -0.1659
@<TRIPOS>BOND
     1     3     4    1
     2     4     5   ar
     3     5     2    1
     4     2     1    1
     5     1    20    1
     6    20    21    1
     7    21    22    1
     8    22    23    1
     9    23    24    1
    10    25    24    1
    11    25    26    1
    12    26    27    1
    13    27    29    1
    14    29    30   ar
    15    30    31   ar
    16    31    32   ar
    17    32    35    1
    18    35    36    1
    19    35    37    1
    20    35    38    1
    21    32    33   ar
    22    33    34   ar
    23    25    28    1
    24     5     6   ar
    25     6     7   ar
    26     7     8   ar
    27     8     9    1
    28     9    10   ar
    29    10    11   ar
    30    11    12   ar
    31    12    15    1
    32    15    16   ar
    33    16    17   ar
    34    17    18   ar
    35    18    19   ar
    36    12    13   ar
    37    13    14   ar
    38     8     4   ar
    39    14     9   ar
    40    28    22    1
    41    19    15   ar
    42    27    25    1
    43    34    29   ar
@<TRIPOS>MOLECULE
*****
 38 43 0 0 0
SMALL
GASTEIGER

@<TRIPOS>ATOM
      1 C         -12.2203  -18.4710   23.7703 C.3     1  UNL1        0.0666
      2 S         -11.5928  -19.7329   23.2567 S.3     1  UNL1       -0.0756
      3 C          -8.4826  -18.9659   23.8795 C.3     1  UNL1        0.1340
      4 N          -9.0538  -19.3102   22.5359 N.ar    1  UNL1       -0.2884
      5 C         -10.4833  -19.6628   22.2496 C.ar    1  UNL1        0.1932
      6 N         -10.6087  -19.9329   20.7795 N.ar    1  UNL1       -0.1221
      7 N          -9.2566  -19.7473   20.1571 N.ar    1  UNL1       -0.1282
      8 C          -8.2955  -19.3624   21.2426 C.ar    1  UNL1        0.1668
      9 C          -6.8331  -19.0795   21.0659 C.ar    1  UNL1        0.0360
     10 C          -6.2003  -19.2189   19.7131 C.ar    1  UNL1        0.0032
     11 C          -4.7379  -18.9360   19.5364 C.ar    1  UNL1        0.0047
     12 C          -3.9082  -18.5137   20.7126 C.ar    1  UNL1        0.0536
     13 C          -4.5410  -18.3743   22.0654 C.ar    1  UNL1        0.0047
     14 C          -6.0035  -18.6572   22.2421 C.ar    1  UNL1        0.0032
     15 C          -2.4458  -18.2307   20.5359 C.ar    1  UNL1        0.2299
     16 N          -1.8030  -16.8754   20.5415 N.ar    1  UNL1       -0.2065
     17 C          -0.3294  -17.0605   20.3316 C.ar    1  UNL1        0.1427
     18 C          -0.0613  -18.5301   20.1963 C.ar    1  UNL1        0.2021
     19 O          -1.3694  -19.2534   20.3225 O.2     1  UNL1       -0.4314
     20 C         -13.3403  -17.8264   23.0086 C.3     1  UNL1        0.0294
     21 C         -13.2061  -17.5910   21.5333 C.3     1  UNL1        0.0730
     22 N         -12.1104  -16.7097   21.0111 N.3     1  UNL1       -0.2726
     23 C         -12.0440  -16.1037   19.6405 C.3     1  UNL1        0.0721
     24 C         -10.7812  -15.2992   19.5502 C.3     1  UNL1        0.0190
     25 C         -10.0672  -15.4080   20.8648 C.3     1  UNL1        0.0201
     26 C          -8.9028  -14.5429   20.4829 C.3     1  UNL1        0.0061
     27 C          -8.9692  -15.1489   21.8535 C.3     1  UNL1        0.0237
     28 C         -10.8887  -16.2797   21.7677 C.3     1  UNL1        0.0724
     29 C          -8.3737  -15.3492   23.2155 C.ar    1  UNL1       -0.0225
     30 C          -6.8843  -15.3312   23.3929 C.ar    1  UNL1       -0.0043
     31 C          -6.2887  -15.5315   24.7549 C.ar    1  UNL1        0.0035
     32 C          -7.1826  -15.7498   25.9396 C.ar    1  UNL1        0.0714
     33 C          -8.6719  -15.7678   25.7622 C.ar    1  UNL1        0.0035
     34 C          -9.2675  -15.5675   24.4001 C.ar    1  UNL1       -0.0043
     35 C          -6.5870  -15.9501   27.3016 C.3     1  UNL1        0.4186
     36 F          -5.9915  -16.1504   28.6637 F       1  UNL1       -0.1659
     37 F          -5.2104  -15.8446   26.7152 F       1  UNL1       -0.1659
     38 F          -7.9636  -16.0556   27.8880 F       1  UNL1       -0.1659
@<TRIPOS>BOND
     1     3     4    1
     2     4     5   ar
     3     5     2    1
     4     2     1    1
     5     1    20    1
     6    20    21    1
     7    21    22    1
     8    22    23    1
     9    23    24    1
    10    25    24    1
    11    25    26    1
    12    26    27    1
    13    27    29    1
    14    29    30   ar
    15    30    31   ar
    16    31    32   ar
    17    32    35    1
    18    35    36    1
    19    35    37    1
    20    35    38    1
    21    32    33   ar
    22    33    34   ar
    23    25    28    1
    24     5     6   ar
    25     6     7   ar
    26     7     8   ar
    27     8     9    1
    28     9    10   ar
    29    10    11   ar
    30    11    12   ar
    31    12    15    1
    32    15    16   ar
    33    16    17   ar
    34    17    18   ar
    35    18    19   ar
    36    12    13   ar
    37    13    14   ar
    38     8     4   ar
    39    14     9   ar
    40    28    22    1
    41    19    15   ar
    42    27    25    1
    43    34    29   ar
@<TRIPOS>MOLECULE
*****
 38 43 0 0 0
SMALL
GASTEIGER

@<TRIPOS>ATOM
      1 C          -5.2436    4.5663   19.9586 C.3     1  UNL1        0.0666
      2 S          -3.8638    4.8727   19.4565 S.3     1  UNL1       -0.0756
      3 C          -0.9660    4.8350   17.9562 C.3     1  UNL1        0.1340
      4 N          -1.4023    3.9111   19.0544 N.ar    1  UNL1       -0.2884
      5 C          -2.7343    3.9284   19.7440 C.ar    1  UNL1        0.1932
      6 N          -2.7385    2.8357   20.7716 N.ar    1  UNL1       -0.1221
      7 N          -1.4092    2.1430   20.7171 N.ar    1  UNL1       -0.1282
      8 C          -0.5833    2.8076   19.6558 C.ar    1  UNL1        0.1668
      9 C           0.8159    2.4343   19.2646 C.ar    1  UNL1        0.0360
     10 C           1.9448    3.3898   19.5146 C.ar    1  UNL1        0.0032
     11 C           3.3439    3.0165   19.1234 C.ar    1  UNL1        0.0047
     12 C           3.6141    1.6876   18.4822 C.ar    1  UNL1        0.0536
     13 C           2.4852    0.7321   18.2322 C.ar    1  UNL1        0.0047
     14 C           1.0860    1.1055   18.6234 C.ar    1  UNL1        0.0032
     15 C           5.0132    1.3143   18.0910 C.ar    1  UNL1        0.2299
     16 N           5.3993    0.2521   17.1048 N.ar    1  UNL1       -0.2065
     17 C           6.8966    0.2189   17.0216 C.ar    1  UNL1        0.1427
     18 C           7.4360    1.2607   17.9564 C.ar    1  UNL1        0.2021
     19 O           6.2719    1.9377   18.6174 O.2     1  UNL1       -0.4314
     20 C          -5.6126    4.8820   21.3778 C.3     1  UNL1        0.0294
     21 C          -5.7718    3.7735   22.3758 C.3     1  UNL1        0.0730
     22 N          -5.1085    3.8712   23.7176 N.3     1  UNL1       -0.2726
     23 C          -5.7547    4.3366   24.9887 C.3     1  UNL1        0.0721
     24 C          -4.7281    4.2737   26.0805 C.3     1  UNL1        0.0190
     25 C          -3.4474    3.7696   25.4842 C.3     1  UNL1        0.0201
     26 C          -2.6538    3.8141   26.7563 C.3     1  UNL1        0.0061
     27 C          -2.0076    3.3488   25.4851 C.3     1  UNL1        0.0237
     28 C          -3.6825    3.5208   24.0237 C.3     1  UNL1        0.0724
     29 C          -0.8033    2.8372   24.7517 C.ar    1  UNL1       -0.0225
     30 C          -0.1568    3.6792   23.6920 C.ar    1  UNL1       -0.0043
     31 C           1.0476    3.1676   22.9586 C.ar    1  UNL1        0.0035
     32 C           1.6053    1.8140   23.2850 C.ar    1  UNL1        0.0714
     33 C           0.9588    0.9719   24.3447 C.ar    1  UNL1        0.0035
     34 C          -0.2455    1.4835   25.0781 C.ar    1  UNL1       -0.0043
     35 C           2.8097    1.3024   22.5516 C.3     1  UNL1        0.4186
     36 F           4.0140    0.7907   21.8181 F       1  UNL1       -0.1659
     37 F           3.6975    2.1329   23.4302 F       1  UNL1       -0.1659
     38 F           1.9218    0.4719   21.6730 F       1  UNL1       -0.1659
@<TRIPOS>BOND
     1     3     4    1
     2     4     5   ar
     3     5     2    1
     4     2     1    1
     5     1    20    1
     6    20    21    1
     7    21    22    1
     8    22    23    1
     9    23    24    1
    10    25    24    1
    11    25    26    1
    12    26    27    1
    13    27    29    1
    14    29    30   ar
    15    30    31   ar
    16    31    32   ar
    17    32    35    1
    18    35    36    1
    19    35    37    1
    20    35    38    1
    21    32    33   ar
    22    33    34   ar
    23    25    28    1
    24     5     6   ar
    25     6     7   ar
    26     7     8   ar
    27     8     9    1
    28     9    10   ar
    29    10    11   ar
    30    11    12   ar
    31    12    15    1
    32    15    16   ar
    33    16    17   ar
    34    17    18   ar
    35    18    19   ar
    36    12    13   ar
    37    13    14   ar
    38     8     4   ar
    39    14     9   ar
    40    28    22    1
    41    19    15   ar
    42    27    25    1
    43    34    29   ar
@<TRIPOS>MOLECULE
*****
 38 43 0 0 0
SMALL
GASTEIGER

@<TRIPOS>ATOM
      1 C           8.4507   -2.9628   20.1615 C.3     1  UNL1        0.0666
      2 S           7.0604   -3.5196   20.0777 S.3     1  UNL1       -0.0756
      3 C           4.8387   -1.5749   21.4675 C.3     1  UNL1        0.1340
      4 N           4.9665   -1.8600   20.0004 N.ar    1  UNL1       -0.2884
      5 C           5.9877   -2.7539   19.3616 C.ar    1  UNL1        0.1932
      6 N           5.7480   -2.7475   17.8809 N.ar    1  UNL1       -0.1221
      7 N           4.5786   -1.8497   17.6045 N.ar    1  UNL1       -0.1282
      8 C           4.0955   -1.3011   18.9144 C.ar    1  UNL1        0.1668
      9 C           2.9438   -0.3592   19.1049 C.ar    1  UNL1        0.0360
     10 C           1.7621   -0.7764   19.9292 C.ar    1  UNL1        0.0032
     11 C           0.6104    0.1656   20.1197 C.ar    1  UNL1        0.0047
     12 C           0.6405    1.5248   19.4858 C.ar    1  UNL1        0.0536
     13 C           1.8222    1.9420   18.6615 C.ar    1  UNL1        0.0047
     14 C           2.9739    1.0000   18.4711 C.ar    1  UNL1        0.0032
     15 C          -0.5112    2.4668   19.6763 C.ar    1  UNL1        0.2299
     16 N          -1.4148    2.5240   20.8722 N.ar    1  UNL1       -0.2065
     17 C          -2.4236    3.6095   20.6394 C.ar    1  UNL1        0.1427
     18 C          -2.1434    4.2232   19.2996 C.ar    1  UNL1        0.2021
     19 O          -0.9614    3.5169   18.7044 O.2     1  UNL1       -0.4314
     20 C           9.2752   -3.1864   21.3944 C.3     1  UNL1        0.0294
     21 C           8.6028   -3.4605   22.7070 C.3     1  UNL1        0.0730
     22 N           8.5814   -4.8537   23.2623 N.3     1  UNL1       -0.2726
     23 C           8.8575   -6.1129   22.4953 C.3     1  UNL1        0.0721
     24 C           8.7269   -7.2698   23.4411 C.3     1  UNL1        0.0190
     25 C           8.3700   -6.7256   24.7926 C.3     1  UNL1        0.0201
     26 C           8.3114   -8.0543   25.4861 C.3     1  UNL1        0.0061
     27 C           8.0353   -6.7952   26.2531 C.3     1  UNL1        0.0237
     28 C           8.2801   -5.2324   24.6821 C.3     1  UNL1        0.0724
     29 C           7.6826   -6.1084   27.5391 C.ar    1  UNL1       -0.0225
     30 C           8.2604   -6.5981   28.8339 C.ar    1  UNL1       -0.0043
     31 C           7.9077   -5.9113   30.1199 C.ar    1  UNL1        0.0035
     32 C           6.9772   -4.7348   30.1112 C.ar    1  UNL1        0.0714
     33 C           6.3995   -4.2451   28.8164 C.ar    1  UNL1        0.0035
     34 C           6.7521   -4.9319   27.5304 C.ar    1  UNL1       -0.0043
     35 C           6.6246   -4.0480   31.3972 C.3     1  UNL1        0.4186
     36 F           6.2719   -3.3611   32.6833 F       1  UNL1       -0.1659
     37 F           6.6981   -5.3610   32.1186 F       1  UNL1       -0.1659
     38 F           6.5510   -2.7349   30.6758 F       1  UNL1       -0.1659
@<TRIPOS>BOND
     1     3     4    1
     2     4     5   ar
     3     5     2    1
     4     2     1    1
     5     1    20    1
     6    20    21    1
     7    21    22    1
     8    22    23    1
     9    23    24    1
    10    25    24    1
    11    25    26    1
    12    26    27    1
    13    27    29    1
    14    29    30   ar
    15    30    31   ar
    16    31    32   ar
    17    32    35    1
    18    35    36    1
    19    35    37    1
    20    35    38    1
    21    32    33   ar
    22    33    34   ar
    23    25    28    1
    24     5     6   ar
    25     6     7   ar
    26     7     8   ar
    27     8     9    1
    28     9    10   ar
    29    10    11   ar
    30    11    12   ar
    31    12    15    1
    32    15    16   ar
    33    16    17   ar
    34    17    18   ar
    35    18    19   ar
    36    12    13   ar
    37    13    14   ar
    38     8     4   ar
    39    14     9   ar
    40    28    22    1
    41    19    15   ar
    42    27    25    1
    43    34    29   ar
