@<TRIPOS>MOLECULE
*****
 33 37 0 0 0
SMALL
GASTEIGER

@<TRIPOS>ATOM
      1 C          -9.9996  -17.1816   22.9976 C.ar    1  UNL1        0.0436
      2 C         -11.4349  -17.0206   23.4025 C.ar    1  UNL1        0.0142
      3 C         -12.5225  -17.6264   22.5658 C.ar    1  UNL1        0.0010
      4 C         -12.1748  -18.3930   21.3243 C.ar    1  UNL1       -0.0032
      5 C         -10.7395  -18.5540   20.9194 C.ar    1  UNL1       -0.0091
      6 C          -9.6519  -17.9482   21.7561 C.ar    1  UNL1       -0.0101
      7 C          -8.2165  -18.1092   21.3513 C.3     1  UNL1        0.0444
      8 C          -7.8688  -18.8758   20.1098 C.3     1  UNL1        0.0749
      9 N          -8.9565  -19.4816   19.2731 N.3     1  UNL1       -0.2934
     10 C         -10.3918  -19.3206   19.6779 C.3     1  UNL1        0.0954
     11 H          -8.7728  -20.4840   19.2321 H       1  UNL1        0.1236
     12 C          -8.2142  -15.6379   27.6269 C.3     1  UNL1        0.0189
     13 C          -8.0191  -15.8040   26.1490 C.3     1  UNL1        0.0741
     14 C          -9.1069  -16.4097   25.3123 C.3     1  UNL1        0.1064
     15 N          -8.9118  -16.5758   23.8343 N.pl3   1  UNL1       -0.3050
     16 C          -7.6291  -16.1362   23.1930 C.3     1  UNL1        0.1064
     17 C          -6.5414  -15.5305   24.0296 C.3     1  UNL1        0.0741
     18 C          -5.2586  -15.0909   23.3883 C.3     1  UNL1        0.0189
     19 N          -6.7364  -15.3644   25.5077 N.3     1  UNL1       -0.2969
     20 H          -6.6326  -14.3697   25.7084 H       1  UNL1        0.1233
     21 C          -6.4335  -19.0368   19.7050 C.3     1  UNL1        0.0886
     22 N          -5.4875  -19.8004   20.5836 N.3     1  UNL1       -0.2667
     23 C          -5.5871  -21.2945   20.6726 C.3     1  UNL1        0.0899
     24 C          -4.4420  -19.0701   21.3731 C.3     1  UNL1        0.0978
     25 C          -4.6216  -18.8677   22.8486 C.3     1  UNL1        0.0224
     26 C          -3.5761  -18.1373   23.6382 C.3     1  UNL1        0.0065
     27 C          -2.3510  -17.6094   22.9524 C.3     1  UNL1        0.0277
     28 C          -2.1713  -17.8118   21.4770 C.ar    1  UNL1       -0.0073
     29 C          -0.9462  -17.2838   20.7913 C.ar    1  UNL1       -0.0015
     30 C          -0.7666  -17.4863   19.3158 C.ar    1  UNL1        0.0203
     31 C          -1.8121  -18.2166   18.5262 C.ar    1  UNL1        0.0985
     32 N          -3.0372  -18.7445   19.2120 N.ar    1  UNL1       -0.2471
     33 C          -3.2169  -18.5421   20.6874 C.ar    1  UNL1        0.0695
@<TRIPOS>BOND
     1    13    12    1
     2    13    14    1
     3    14    15    1
     4    15     1    1
     5     1     2   ar
     6     2     3   ar
     7     3     4   ar
     8     4     5   ar
     9     5     6   ar
    10     6     7    1
    11     7     8    1
    12     8    21    1
    13    21    22    1
    14    22    23    1
    15    24    22    1
    16    24    25    1
    17    25    26    1
    18    26    27    1
    19    27    28    1
    20    28    29   ar
    21    29    30   ar
    22    30    31   ar
    23    31    32   ar
    24    32    33   ar
    25     8     9    1
    26     9    10    1
    27    15    16    1
    28    16    17    1
    29    17    18    1
    30    17    19    1
    31    19    13    1
    32     6     1   ar
    33    33    24    1
    34    10     5    1
    35    33    28   ar
    36     9    11    1
    37    19    20    1
@<TRIPOS>MOLECULE
*****
 33 37 0 0 0
SMALL
GASTEIGER

@<TRIPOS>ATOM
      1 C          -5.2546  -16.7037   24.2042 C.ar    1  UNL1        0.0436
      2 C          -4.5870  -16.6086   25.5441 C.ar    1  UNL1        0.0142
      3 C          -5.3280  -16.0275   26.7116 C.ar    1  UNL1        0.0010
      4 C          -6.7366  -15.5415   26.5393 C.ar    1  UNL1       -0.0032
      5 C          -7.4042  -15.6366   25.1995 C.ar    1  UNL1       -0.0091
      6 C          -6.6632  -16.2177   24.0319 C.ar    1  UNL1       -0.0101
      7 C          -7.3307  -16.3128   22.6920 C.3     1  UNL1        0.0444
      8 C          -8.7394  -15.8269   22.5197 C.3     1  UNL1        0.0749
      9 N          -9.4804  -15.2458   23.6874 N.3     1  UNL1       -0.2934
     10 C          -8.8128  -15.1507   25.0272 C.3     1  UNL1        0.0954
     11 H         -10.3187  -15.8125   23.8156 H       1  UNL1        0.1236
     12 C          -1.2514  -16.5644   20.8942 C.3     1  UNL1        0.0189
     13 C          -2.5120  -17.2151   21.3816 C.3     1  UNL1        0.0741
     14 C          -3.2530  -16.6340   22.5492 C.3     1  UNL1        0.1064
     15 N          -4.5135  -17.2847   23.0366 N.pl3   1  UNL1       -0.3050
     16 C          -5.0331  -18.5165   22.3564 C.3     1  UNL1        0.1064
     17 C          -4.2922  -19.0976   21.1888 C.3     1  UNL1        0.0741
     18 C          -4.8118  -20.3294   20.5086 C.3     1  UNL1        0.0189
     19 N          -3.0316  -18.4469   20.7014 N.3     1  UNL1       -0.2969
     20 H          -3.1865  -18.2003   19.7238 H       1  UNL1        0.1233
     21 C          -9.4069  -15.9220   21.1799 C.3     1  UNL1        0.0886
     22 N         -10.5569  -16.8642   20.9801 N.3     1  UNL1       -0.2667
     23 C         -11.0316  -17.1848   19.5937 C.3     1  UNL1        0.0899
     24 C         -11.2321  -17.4857   22.1665 C.3     1  UNL1        0.0978
     25 C         -12.5578  -16.9626   22.6343 C.3     1  UNL1        0.0224
     26 C         -13.2330  -17.5841   23.8208 C.3     1  UNL1        0.0065
     27 C         -12.5826  -18.7288   24.5395 C.3     1  UNL1        0.0277
     28 C         -11.2569  -19.2520   24.0717 C.ar    1  UNL1       -0.0073
     29 C         -10.6064  -20.3967   24.7904 C.ar    1  UNL1       -0.0015
     30 C          -9.2807  -20.9199   24.3226 C.ar    1  UNL1        0.0203
     31 C          -8.6055  -20.2983   23.1362 C.ar    1  UNL1        0.0985
     32 N          -9.2559  -19.1536   22.4175 N.ar    1  UNL1       -0.2471
     33 C         -10.5816  -18.6304   22.8852 C.ar    1  UNL1        0.0695
@<TRIPOS>BOND
     1    13    12    1
     2    13    14    1
     3    14    15    1
     4    15     1    1
     5     1     2   ar
     6     2     3   ar
     7     3     4   ar
     8     4     5   ar
     9     5     6   ar
    10     6     7    1
    11     7     8    1
    12     8    21    1
    13    21    22    1
    14    22    23    1
    15    24    22    1
    16    24    25    1
    17    25    26    1
    18    26    27    1
    19    27    28    1
    20    28    29   ar
    21    29    30   ar
    22    30    31   ar
    23    31    32   ar
    24    32    33   ar
    25     8     9    1
    26     9    10    1
    27    15    16    1
    28    16    17    1
    29    17    18    1
    30    17    19    1
    31    19    13    1
    32     6     1   ar
    33    33    24    1
    34    10     5    1
    35    33    28   ar
    36     9    11    1
    37    19    20    1
@<TRIPOS>MOLECULE
*****
 33 37 0 0 0
SMALL
GASTEIGER

@<TRIPOS>ATOM
      1 C          -4.4037  -17.5135   23.0084 C.ar    1  UNL1        0.0436
      2 C          -2.9945  -17.0899   23.2992 C.ar    1  UNL1        0.0142
      3 C          -1.8496  -17.7683   22.6071 C.ar    1  UNL1        0.0010
      4 C          -2.1140  -18.8702   21.6242 C.ar    1  UNL1       -0.0032
      5 C          -3.5232  -19.2937   21.3335 C.ar    1  UNL1       -0.0091
      6 C          -4.6681  -18.6153   22.0256 C.ar    1  UNL1       -0.0101
      7 C          -6.0775  -19.0388   21.7348 C.3     1  UNL1        0.0444
      8 C          -6.3419  -20.1407   20.7520 C.3     1  UNL1        0.0749
      9 N          -5.1969  -20.8190   20.0598 N.3     1  UNL1       -0.2934
     10 C          -3.7876  -20.3955   20.3506 C.3     1  UNL1        0.0954
     11 H          -5.3417  -20.6924   19.0581 H       1  UNL1        0.1236
     12 C          -9.3702  -15.9860   23.0486 C.3     1  UNL1        0.0189
     13 C          -8.0319  -16.0714   23.7206 C.3     1  UNL1        0.0741
     14 C          -6.8870  -16.7497   23.0285 C.3     1  UNL1        0.1064
     15 N          -5.5487  -16.8351   23.7006 N.pl3   1  UNL1       -0.3050
     16 C          -5.3553  -16.2421   25.0647 C.3     1  UNL1        0.1064
     17 C          -6.5002  -15.5638   25.7569 C.3     1  UNL1        0.0741
     18 C          -6.3068  -14.9708   27.1210 C.3     1  UNL1        0.0189
     19 N          -7.8385  -15.4784   25.0848 N.3     1  UNL1       -0.2969
     20 H          -8.0679  -14.4873   25.0103 H       1  UNL1        0.1233
     21 C          -7.7511  -20.5642   20.4612 C.3     1  UNL1        0.0886
     22 N          -8.8886  -19.6270   20.7404 N.3     1  UNL1       -0.2667
     23 C          -9.3683  -18.6904   19.6714 C.3     1  UNL1        0.0899
     24 C          -9.5464  -19.6265   22.0884 C.3     1  UNL1        0.0978
     25 C          -8.9089  -20.3550   23.2343 C.3     1  UNL1        0.0224
     26 C          -9.5667  -20.3545   24.5823 C.3     1  UNL1        0.0065
     27 C         -10.8620  -19.6255   24.7846 C.3     1  UNL1        0.0277
     28 C         -11.4995  -18.8971   23.6388 C.ar    1  UNL1       -0.0073
     29 C         -12.7947  -18.1681   23.8410 C.ar    1  UNL1       -0.0015
     30 C         -13.4322  -17.4396   22.6951 C.ar    1  UNL1        0.0203
     31 C         -12.7744  -17.4401   21.3470 C.ar    1  UNL1        0.0985
     32 N         -11.4791  -18.1691   21.1448 N.ar    1  UNL1       -0.2471
     33 C         -10.8417  -18.8976   22.2906 C.ar    1  UNL1        0.0695
@<TRIPOS>BOND
     1    13    12    1
     2    13    14    1
     3    14    15    1
     4    15     1    1
     5     1     2   ar
     6     2     3   ar
     7     3     4   ar
     8     4     5   ar
     9     5     6   ar
    10     6     7    1
    11     7     8    1
    12     8    21    1
    13    21    22    1
    14    22    23    1
    15    24    22    1
    16    24    25    1
    17    25    26    1
    18    26    27    1
    19    27    28    1
    20    28    29   ar
    21    29    30   ar
    22    30    31   ar
    23    31    32   ar
    24    32    33   ar
    25     8     9    1
    26     9    10    1
    27    15    16    1
    28    16    17    1
    29    17    18    1
    30    17    19    1
    31    19    13    1
    32     6     1   ar
    33    33    24    1
    34    10     5    1
    35    33    28   ar
    36     9    11    1
    37    19    20    1
@<TRIPOS>MOLECULE
*****
 33 37 0 0 0
SMALL
GASTEIGER

@<TRIPOS>ATOM
      1 C          -4.6677  -17.4102   23.6729 C.ar    1  UNL1        0.0436
      2 C          -3.7963  -17.5108   24.8896 C.ar    1  UNL1        0.0142
      3 C          -4.1259  -16.7129   26.1162 C.ar    1  UNL1        0.0010
      4 C          -5.3269  -15.8143   26.1261 C.ar    1  UNL1       -0.0032
      5 C          -6.1983  -15.7137   24.9094 C.ar    1  UNL1       -0.0091
      6 C          -5.8687  -16.5116   23.6828 C.ar    1  UNL1       -0.0101
      7 C          -6.7401  -16.4110   22.4659 C.3     1  UNL1        0.0444
      8 C          -7.9411  -15.5124   22.4758 C.3     1  UNL1        0.0749
      9 N          -8.2707  -14.7144   23.7025 N.3     1  UNL1       -0.2934
     10 C          -7.3993  -14.8151   24.9192 C.3     1  UNL1        0.0954
     11 H          -9.2100  -14.9899   23.9894 H       1  UNL1        0.1236
     12 C          -1.4760  -18.4565   19.7082 C.3     1  UNL1        0.0189
     13 C          -2.7422  -18.7313   20.4639 C.3     1  UNL1        0.0741
     14 C          -3.0718  -17.9333   21.6906 C.3     1  UNL1        0.1064
     15 N          -4.3381  -18.2082   22.4462 N.pl3   1  UNL1       -0.3050
     16 C          -5.2748  -19.2809   21.9753 C.3     1  UNL1        0.1064
     17 C          -4.9452  -20.0789   20.7486 C.3     1  UNL1        0.0741
     18 C          -5.8819  -21.1516   20.2777 C.3     1  UNL1        0.0189
     19 N          -3.6789  -19.8041   19.9929 N.3     1  UNL1       -0.2969
     20 H          -3.9513  -19.5599   19.0408 H       1  UNL1        0.1233
     21 C          -8.8125  -15.4117   21.2591 C.3     1  UNL1        0.0886
     22 N         -10.1532  -16.0841   21.2390 N.3     1  UNL1       -0.2667
     23 C         -11.4051  -15.2595   21.1848 C.3     1  UNL1        0.0899
     24 C         -10.2421  -17.5811   21.2732 C.3     1  UNL1        0.0978
     25 C         -10.4043  -18.3521   19.9967 C.3     1  UNL1        0.0224
     26 C         -10.4932  -19.8491   20.0309 C.3     1  UNL1        0.0065
     27 C         -10.4198  -20.5750   21.3415 C.3     1  UNL1        0.0277
     28 C         -10.2576  -19.8041   22.6179 C.ar    1  UNL1       -0.0073
     29 C         -10.1843  -20.5300   23.9284 C.ar    1  UNL1       -0.0015
     30 C         -10.0221  -19.7590   25.2049 C.ar    1  UNL1        0.0203
     31 C          -9.9333  -18.2620   25.1707 C.ar    1  UNL1        0.0985
     32 N         -10.0066  -17.5361   23.8601 N.ar    1  UNL1       -0.2471
     33 C         -10.1688  -18.3070   22.5837 C.ar    1  UNL1        0.0695
@<TRIPOS>BOND
     1    13    12    1
     2    13    14    1
     3    14    15    1
     4    15     1    1
     5     1     2   ar
     6     2     3   ar
     7     3     4   ar
     8     4     5   ar
     9     5     6   ar
    10     6     7    1
    11     7     8    1
    12     8    21    1
    13    21    22    1
    14    22    23    1
    15    24    22    1
    16    24    25    1
    17    25    26    1
    18    26    27    1
    19    27    28    1
    20    28    29   ar
    21    29    30   ar
    22    30    31   ar
    23    31    32   ar
    24    32    33   ar
    25     8     9    1
    26     9    10    1
    27    15    16    1
    28    16    17    1
    29    17    18    1
    30    17    19    1
    31    19    13    1
    32     6     1   ar
    33    33    24    1
    34    10     5    1
    35    33    28   ar
    36     9    11    1
    37    19    20    1
@<TRIPOS>MOLECULE
*****
 33 37 0 0 0
SMALL
GASTEIGER

@<TRIPOS>ATOM
      1 C          -4.5252  -17.4455   23.0523 C.ar    1  UNL1        0.0436
      2 C          -3.0796  -17.0770   23.2084 C.ar    1  UNL1        0.0142
      3 C          -2.0279  -17.8271   22.4460 C.ar    1  UNL1        0.0010
      4 C          -2.4219  -18.9456   21.5275 C.ar    1  UNL1       -0.0032
      5 C          -3.8675  -19.3141   21.3714 C.ar    1  UNL1       -0.0091
      6 C          -4.9191  -18.5641   22.1338 C.ar    1  UNL1       -0.0101
      7 C          -6.3648  -18.9325   21.9778 C.3     1  UNL1        0.0444
      8 C          -6.7588  -20.0511   21.0592 C.3     1  UNL1        0.0749
      9 N          -5.7070  -20.8012   20.2968 N.3     1  UNL1       -0.2934
     10 C          -4.2614  -20.4327   20.4529 C.3     1  UNL1        0.0954
     11 H          -5.9317  -20.6991   19.3071 H       1  UNL1        0.1236
     12 C          -9.4215  -15.7636   23.4970 C.3     1  UNL1        0.0189
     13 C          -8.0251  -15.8545   24.0371 C.3     1  UNL1        0.0741
     14 C          -6.9733  -16.6045   23.2747 C.3     1  UNL1        0.1064
     15 N          -5.5770  -16.6954   23.8148 N.pl3   1  UNL1       -0.3050
     16 C          -5.2322  -16.0363   25.1174 C.3     1  UNL1        0.1064
     17 C          -6.2839  -15.2863   25.8798 C.3     1  UNL1        0.0741
     18 C          -5.9392  -14.6271   27.1824 C.3     1  UNL1        0.0189
     19 N          -7.6804  -15.1953   25.3397 N.3     1  UNL1       -0.2969
     20 H          -7.8905  -14.2030   25.2322 H       1  UNL1        0.1233
     21 C          -8.2044  -20.4196   20.9032 C.3     1  UNL1        0.0886
     22 N          -9.0819  -19.6357   19.9729 N.3     1  UNL1       -0.2667
     23 C          -8.8383  -19.6834   18.4935 C.3     1  UNL1        0.0899
     24 C         -10.2031  -18.8042   20.5219 C.3     1  UNL1        0.0978
     25 C         -10.9066  -17.8166   19.6388 C.3     1  UNL1        0.0224
     26 C         -12.0277  -16.9850   20.1878 C.3     1  UNL1        0.0065
     27 C         -12.4455  -17.1410   21.6200 C.3     1  UNL1        0.0277
     28 C         -11.7421  -18.1285   22.5031 C.ar    1  UNL1       -0.0073
     29 C         -12.1599  -18.2845   23.9353 C.ar    1  UNL1       -0.0015
     30 C         -11.4565  -19.2721   24.8185 C.ar    1  UNL1        0.0203
     31 C         -10.3353  -20.1037   24.2694 C.ar    1  UNL1        0.0985
     32 N          -9.9175  -19.9477   22.8373 N.ar    1  UNL1       -0.2471
     33 C         -10.6209  -18.9602   21.9541 C.ar    1  UNL1        0.0695
@<TRIPOS>BOND
     1    13    12    1
     2    13    14    1
     3    14    15    1
     4    15     1    1
     5     1     2   ar
     6     2     3   ar
     7     3     4   ar
     8     4     5   ar
     9     5     6   ar
    10     6     7    1
    11     7     8    1
    12     8    21    1
    13    21    22    1
    14    22    23    1
    15    24    22    1
    16    24    25    1
    17    25    26    1
    18    26    27    1
    19    27    28    1
    20    28    29   ar
    21    29    30   ar
    22    30    31   ar
    23    31    32   ar
    24    32    33   ar
    25     8     9    1
    26     9    10    1
    27    15    16    1
    28    16    17    1
    29    17    18    1
    30    17    19    1
    31    19    13    1
    32     6     1   ar
    33    33    24    1
    34    10     5    1
    35    33    28   ar
    36     9    11    1
    37    19    20    1
@<TRIPOS>MOLECULE
*****
 33 37 0 0 0
SMALL
GASTEIGER

@<TRIPOS>ATOM
      1 C          -4.5458  -17.4366   23.0455 C.ar    1  UNL1        0.0436
      2 C          -3.1026  -17.0602   23.2049 C.ar    1  UNL1        0.0142
      3 C          -2.0453  -17.8026   22.4427 C.ar    1  UNL1        0.0010
      4 C          -2.4312  -18.9214   21.5211 C.ar    1  UNL1       -0.0032
      5 C          -3.8744  -19.2978   21.3617 C.ar    1  UNL1       -0.0091
      6 C          -4.9317  -18.5554   22.1239 C.ar    1  UNL1       -0.0101
      7 C          -6.3750  -18.9318   21.9645 C.3     1  UNL1        0.0444
      8 C          -6.7609  -20.0506   21.0429 C.3     1  UNL1        0.0749
      9 N          -5.7036  -20.7930   20.2807 N.3     1  UNL1       -0.2934
     10 C          -4.2604  -20.4166   20.4401 C.3     1  UNL1        0.0954
     11 H          -5.9271  -20.6900   19.2908 H       1  UNL1        0.1236
     12 C          -5.9914  -14.6635   27.1952 C.3     1  UNL1        0.0189
     13 C          -6.3259  -15.3077   25.8826 C.3     1  UNL1        0.0741
     14 C          -5.2686  -16.0501   25.1204 C.3     1  UNL1        0.1064
     15 N          -5.6031  -16.6942   23.8077 N.pl3   1  UNL1       -0.3050
     16 C          -6.9950  -16.5961   23.2572 C.3     1  UNL1        0.1064
     17 C          -8.0523  -15.8537   24.0194 C.3     1  UNL1        0.0741
     18 C          -9.4442  -15.7555   23.4689 C.3     1  UNL1        0.0189
     19 N          -7.7178  -15.2095   25.3321 N.3     1  UNL1       -0.2969
     20 H          -8.3396  -15.6202   26.0286 H       1  UNL1        0.1233
     21 C          -8.2041  -20.4270   20.8835 C.3     1  UNL1        0.0886
     22 N          -9.0894  -19.6339   19.9685 N.3     1  UNL1       -0.2667
     23 C          -8.8577  -19.6663   18.4868 C.3     1  UNL1        0.0899
     24 C         -10.2064  -18.8085   20.5351 C.3     1  UNL1        0.0978
     25 C         -10.9225  -17.8178   19.6657 C.3     1  UNL1        0.0224
     26 C         -12.0395  -16.9924   20.2323 C.3     1  UNL1        0.0065
     27 C         -12.4403  -17.1575   21.6682 C.3     1  UNL1        0.0277
     28 C         -11.7242  -18.1481   22.5376 C.ar    1  UNL1       -0.0073
     29 C         -12.1250  -18.3133   23.9736 C.ar    1  UNL1       -0.0015
     30 C         -11.4088  -19.3040   24.8430 C.ar    1  UNL1        0.0203
     31 C         -10.2919  -20.1294   24.2764 C.ar    1  UNL1        0.0985
     32 N          -9.8911  -19.9642   22.8404 N.ar    1  UNL1       -0.2471
     33 C         -10.6072  -18.9736   21.9710 C.ar    1  UNL1        0.0695
@<TRIPOS>BOND
     1    13    12    1
     2    13    14    1
     3    14    15    1
     4    15     1    1
     5     1     2   ar
     6     2     3   ar
     7     3     4   ar
     8     4     5   ar
     9     5     6   ar
    10     6     7    1
    11     7     8    1
    12     8    21    1
    13    21    22    1
    14    22    23    1
    15    24    22    1
    16    24    25    1
    17    25    26    1
    18    26    27    1
    19    27    28    1
    20    28    29   ar
    21    29    30   ar
    22    30    31   ar
    23    31    32   ar
    24    32    33   ar
    25     8     9    1
    26     9    10    1
    27    15    16    1
    28    16    17    1
    29    17    18    1
    30    17    19    1
    31    19    13    1
    32     6     1   ar
    33    33    24    1
    34    10     5    1
    35    33    28   ar
    36     9    11    1
    37    19    20    1
@<TRIPOS>MOLECULE
*****
 33 37 0 0 0
SMALL
GASTEIGER

@<TRIPOS>ATOM
      1 C          -4.8204  -17.2449   23.6562 C.ar    1  UNL1        0.0436
      2 C          -3.9138  -17.0756   24.8391 C.ar    1  UNL1        0.0142
      3 C          -4.3377  -16.2145   25.9918 C.ar    1  UNL1        0.0010
      4 C          -5.6684  -15.5228   25.9616 C.ar    1  UNL1       -0.0032
      5 C          -6.5750  -15.6921   24.7787 C.ar    1  UNL1       -0.0091
      6 C          -6.1511  -16.5531   23.6260 C.ar    1  UNL1       -0.0101
      7 C          -7.0577  -16.7225   22.4431 C.3     1  UNL1        0.0444
      8 C          -8.3884  -16.0308   22.4129 C.3     1  UNL1        0.0749
      9 N          -8.8123  -15.1697   23.5657 N.3     1  UNL1       -0.2934
     10 C          -7.9057  -15.0003   24.7486 C.3     1  UNL1        0.0954
     11 H          -9.6867  -15.5591   23.9182 H       1  UNL1        0.1236
     12 C          -5.7802  -21.1481   20.3632 C.3     1  UNL1        0.0189
     13 C          -4.8764  -20.0576   20.8569 C.3     1  UNL1        0.0741
     14 C          -5.3003  -19.1965   22.0097 C.3     1  UNL1        0.1064
     15 N          -4.3965  -18.1060   22.5034 N.pl3   1  UNL1       -0.3050
     16 C          -3.0687  -17.8765   21.8444 C.3     1  UNL1        0.1064
     17 C          -2.6447  -18.7376   20.6917 C.3     1  UNL1        0.0741
     18 C          -1.3169  -18.5081   20.0327 C.3     1  UNL1        0.0189
     19 N          -3.5486  -19.8281   20.1979 N.3     1  UNL1       -0.2969
     20 H          -3.0265  -20.7010   20.2756 H       1  UNL1        0.1233
     21 C          -9.2950  -16.2001   21.2300 C.3     1  UNL1        0.0886
     22 N         -10.0724  -17.4712   21.0567 N.3     1  UNL1       -0.2667
     23 C         -10.6885  -17.7984   19.7288 C.3     1  UNL1        0.0899
     24 C         -10.2337  -18.4150   22.2113 C.3     1  UNL1        0.0978
     25 C          -9.1787  -19.4438   22.4921 C.3     1  UNL1        0.0224
     26 C          -9.3400  -20.3876   23.6467 C.3     1  UNL1        0.0065
     27 C         -10.5562  -20.3028   24.5205 C.3     1  UNL1        0.0277
     28 C         -11.6111  -19.2741   24.2398 C.ar    1  UNL1       -0.0073
     29 C         -12.8273  -19.1892   25.1137 C.ar    1  UNL1       -0.0015
     30 C         -13.8823  -18.1604   24.8329 C.ar    1  UNL1        0.0203
     31 C         -13.7210  -17.2166   23.6783 C.ar    1  UNL1        0.0985
     32 N         -12.5048  -17.3015   22.8044 N.ar    1  UNL1       -0.2471
     33 C         -11.4499  -18.3302   23.0852 C.ar    1  UNL1        0.0695
@<TRIPOS>BOND
     1    13    12    1
     2    13    14    1
     3    14    15    1
     4    15     1    1
     5     1     2   ar
     6     2     3   ar
     7     3     4   ar
     8     4     5   ar
     9     5     6   ar
    10     6     7    1
    11     7     8    1
    12     8    21    1
    13    21    22    1
    14    22    23    1
    15    24    22    1
    16    24    25    1
    17    25    26    1
    18    26    27    1
    19    27    28    1
    20    28    29   ar
    21    29    30   ar
    22    30    31   ar
    23    31    32   ar
    24    32    33   ar
    25     8     9    1
    26     9    10    1
    27    15    16    1
    28    16    17    1
    29    17    18    1
    30    17    19    1
    31    19    13    1
    32     6     1   ar
    33    33    24    1
    34    10     5    1
    35    33    28   ar
    36     9    11    1
    37    19    20    1
@<TRIPOS>MOLECULE
*****
 33 37 0 0 0
SMALL
GASTEIGER

@<TRIPOS>ATOM
      1 C           2.2912   -0.3172   20.2278 C.ar    1  UNL1        0.0436
      2 C           1.2939    0.3705   19.3433 C.ar    1  UNL1        0.0142
      3 C           0.2320    1.2416   19.9461 C.ar    1  UNL1        0.0010
      4 C           0.1673    1.4250   21.4334 C.ar    1  UNL1       -0.0032
      5 C           1.1646    0.7373   22.3180 C.ar    1  UNL1       -0.0091
      6 C           2.2265   -0.1338   21.7152 C.ar    1  UNL1       -0.0101
      7 C           3.2238   -0.8216   22.5997 C.3     1  UNL1        0.0444
      8 C           3.1592   -0.6383   24.0870 C.3     1  UNL1        0.0749
      9 N           2.0972    0.2329   24.6898 N.3     1  UNL1       -0.2934
     10 C           1.0999    0.9206   23.8053 C.3     1  UNL1        0.0954
     11 H           2.5783    0.9633   25.2146 H       1  UNL1        0.1236
     12 C           4.0670   -5.0390   18.9819 C.3     1  UNL1        0.0189
     13 C           4.2411   -3.5493   19.0021 C.3     1  UNL1        0.0741
     14 C           3.1791   -2.6781   19.6049 C.3     1  UNL1        0.1064
     15 N           3.3532   -1.1884   19.6250 N.pl3   1  UNL1       -0.3050
     16 C           4.5892   -0.5698   19.0424 C.3     1  UNL1        0.1064
     17 C           5.6512   -1.4409   18.4396 C.3     1  UNL1        0.0741
     18 C           6.8873   -0.8223   17.8569 C.3     1  UNL1        0.0189
     19 N           5.4771   -2.9307   18.4194 N.3     1  UNL1       -0.2969
     20 H           6.2704   -3.3266   18.9238 H       1  UNL1        0.1233
     21 C           4.1564   -1.3260   24.9716 C.3     1  UNL1        0.0886
     22 N           5.6221   -1.2268   24.6681 N.3     1  UNL1       -0.2667
     23 C           6.4236   -0.0791   25.2072 C.3     1  UNL1        0.0899
     24 C           6.2862   -2.2752   23.8257 C.3     1  UNL1        0.0978
     25 C           6.4934   -2.0385   22.3590 C.3     1  UNL1        0.0224
     26 C           7.1575   -3.0869   21.5165 C.3     1  UNL1        0.0065
     27 C           7.6145   -4.3720   22.1407 C.3     1  UNL1        0.0277
     28 C           7.4073   -4.6088   23.6073 C.ar    1  UNL1       -0.0073
     29 C           7.8643   -5.8939   24.2315 C.ar    1  UNL1       -0.0015
     30 C           7.6571   -6.1306   25.6982 C.ar    1  UNL1        0.0203
     31 C           6.9930   -5.0822   26.5406 C.ar    1  UNL1        0.0985
     32 N           6.5360   -3.7971   25.9165 N.ar    1  UNL1       -0.2471
     33 C           6.7432   -3.5604   24.4499 C.ar    1  UNL1        0.0695
@<TRIPOS>BOND
     1    13    12    1
     2    13    14    1
     3    14    15    1
     4    15     1    1
     5     1     2   ar
     6     2     3   ar
     7     3     4   ar
     8     4     5   ar
     9     5     6   ar
    10     6     7    1
    11     7     8    1
    12     8    21    1
    13    21    22    1
    14    22    23    1
    15    24    22    1
    16    24    25    1
    17    25    26    1
    18    26    27    1
    19    27    28    1
    20    28    29   ar
    21    29    30   ar
    22    30    31   ar
    23    31    32   ar
    24    32    33   ar
    25     8     9    1
    26     9    10    1
    27    15    16    1
    28    16    17    1
    29    17    18    1
    30    17    19    1
    31    19    13    1
    32     6     1   ar
    33    33    24    1
    34    10     5    1
    35    33    28   ar
    36     9    11    1
    37    19    20    1
@<TRIPOS>MOLECULE
*****
 33 37 0 0 0
SMALL
GASTEIGER

@<TRIPOS>ATOM
      1 C           3.8920   -1.5981   22.1752 C.ar    1  UNL1        0.0436
      2 C           4.7404   -2.2006   23.2555 C.ar    1  UNL1        0.0142
      3 C           4.5344   -1.7950   24.6848 C.ar    1  UNL1        0.0010
      4 C           3.4800   -0.7868   25.0338 C.ar    1  UNL1       -0.0032
      5 C           2.6316   -0.1842   23.9535 C.ar    1  UNL1       -0.0091
      6 C           2.8376   -0.5898   22.5242 C.ar    1  UNL1       -0.0101
      7 C           1.9892    0.0128   21.4438 C.3     1  UNL1        0.0444
      8 C           0.9349    1.0210   21.7928 C.3     1  UNL1        0.0749
      9 N           0.7289    1.4266   23.2222 N.3     1  UNL1       -0.2934
     10 C           1.5773    0.8240   24.3025 C.3     1  UNL1        0.0954
     11 H          -0.2405    1.2090   23.4533 H       1  UNL1        0.1236
     12 C           4.4713   -0.3173   17.1727 C.3     1  UNL1        0.0189
     13 C           4.3876   -1.3633   18.2446 C.3     1  UNL1        0.0741
     14 C           4.1817   -0.9577   19.6740 C.3     1  UNL1        0.1064
     15 N           4.0980   -2.0037   20.7458 N.pl3   1  UNL1       -0.3050
     16 C           4.2202   -3.4553   20.3883 C.3     1  UNL1        0.1064
     17 C           4.4262   -3.8610   18.9590 C.3     1  UNL1        0.0741
     18 C           4.5485   -5.3126   18.6015 C.3     1  UNL1        0.0189
     19 N           4.5099   -2.8149   17.8871 N.3     1  UNL1       -0.2969
     20 H           3.7659   -3.0174   17.2193 H       1  UNL1        0.1233
     21 C           0.0865    1.6236   20.7125 C.3     1  UNL1        0.0886
     22 N          -0.4558    3.0130   20.8720 N.3     1  UNL1       -0.2667
     23 C           0.4558    4.1953   20.7258 C.3     1  UNL1        0.0899
     24 C          -1.9096    3.2201   21.1777 C.3     1  UNL1        0.0978
     25 C          -2.9148    3.2393   20.0644 C.3     1  UNL1        0.0224
     26 C          -4.3686    3.4465   20.3701 C.3     1  UNL1        0.0065
     27 C          -4.8173    3.6345   21.7890 C.3     1  UNL1        0.0277
     28 C          -3.8122    3.6153   22.9023 C.ar    1  UNL1       -0.0073
     29 C          -4.2609    3.8033   24.3212 C.ar    1  UNL1       -0.0015
     30 C          -3.2557    3.7841   25.4345 C.ar    1  UNL1        0.0203
     31 C          -1.8019    3.5770   25.1288 C.ar    1  UNL1        0.0985
     32 N          -1.3532    3.3890   23.7098 N.ar    1  UNL1       -0.2471
     33 C          -2.3583    3.4081   22.5966 C.ar    1  UNL1        0.0695
@<TRIPOS>BOND
     1    13    12    1
     2    13    14    1
     3    14    15    1
     4    15     1    1
     5     1     2   ar
     6     2     3   ar
     7     3     4   ar
     8     4     5   ar
     9     5     6   ar
    10     6     7    1
    11     7     8    1
    12     8    21    1
    13    21    22    1
    14    22    23    1
    15    24    22    1
    16    24    25    1
    17    25    26    1
    18    26    27    1
    19    27    28    1
    20    28    29   ar
    21    29    30   ar
    22    30    31   ar
    23    31    32   ar
    24    32    33   ar
    25     8     9    1
    26     9    10    1
    27    15    16    1
    28    16    17    1
    29    17    18    1
    30    17    19    1
    31    19    13    1
    32     6     1   ar
    33    33    24    1
    34    10     5    1
    35    33    28   ar
    36     9    11    1
    37    19    20    1
