@<TRIPOS>MOLECULE
*****
 33 37 0 0 0
SMALL
GASTEIGER

@<TRIPOS>ATOM
      1 N          -8.1504  -18.4960   21.3085 N.3     1  UNL1       -0.2679
      2 C          -9.1240  -18.9633   22.3495 C.3     1  UNL1        0.0978
      3 C          -8.7513  -20.0817   23.2768 C.3     1  UNL1        0.0224
      4 C          -9.7250  -20.5490   24.3178 C.3     1  UNL1        0.0065
      5 C         -11.0714  -19.8977   24.4314 C.3     1  UNL1        0.0277
      6 C         -11.4442  -18.7792   23.5041 C.ar    1  UNL1       -0.0073
      7 C         -12.7907  -18.1279   23.6177 C.ar    1  UNL1       -0.0015
      8 C         -13.1634  -17.0095   22.6903 C.ar    1  UNL1        0.0203
      9 C         -12.1897  -16.5422   21.6494 C.ar    1  UNL1        0.0985
     10 N         -10.8433  -17.1935   21.5357 N.ar    1  UNL1       -0.2471
     11 C         -10.4705  -18.3120   22.4631 C.ar    1  UNL1        0.0695
     12 C          -7.8347  -19.3698   20.1308 C.3     1  UNL1        0.0738
     13 C          -6.6149  -20.2426   20.1500 C.3     1  UNL1        0.0347
     14 C          -5.6010  -20.0905   21.2448 C.3     1  UNL1        0.0736
     15 C          -0.2393  -17.6750   20.0538 C.3     1  UNL1        0.0897
     16 N          -1.5798  -18.2789   20.3516 N.3     1  UNL1       -0.2691
     17 C          -2.5423  -18.5558   19.2350 C.3     1  UNL1        0.0897
     18 C          -3.8828  -19.1597   19.5327 C.3     1  UNL1        0.0897
     19 N          -4.2606  -19.4866   20.9471 N.3     1  UNL1       -0.2703
     20 C          -3.2980  -19.2097   22.0637 C.3     1  UNL1        0.0897
     21 C          -1.9576  -18.6058   21.7659 C.3     1  UNL1        0.0897
     22 C          -7.4923  -17.1551   21.4452 C.3     1  UNL1        0.0886
     23 C          -7.0869  -16.6531   22.7994 C.3     1  UNL1        0.0748
     24 C          -8.1331  -16.3459   23.8295 C.3     1  UNL1        0.0432
     25 C          -7.7277  -15.8439   25.1837 C.ar    1  UNL1       -0.0234
     26 C          -8.7738  -15.5368   26.2138 C.ar    1  UNL1       -0.0045
     27 C          -8.3684  -15.0348   27.5678 C.ar    1  UNL1       -0.0003
     28 C          -6.9168  -14.8400   27.8918 C.ar    1  UNL1       -0.0003
     29 C          -5.8707  -15.1472   26.8617 C.ar    1  UNL1       -0.0032
     30 C          -6.2761  -15.6491   25.5077 C.ar    1  UNL1       -0.0103
     31 C          -5.2299  -15.9563   24.4775 C.3     1  UNL1        0.0953
     32 N          -5.6353  -16.4583   23.1234 N.3     1  UNL1       -0.2934
     33 H          -5.1814  -17.3629   22.9966 H       1  UNL1        0.1236
@<TRIPOS>BOND
     1    15    16    1
     2    16    17    1
     3    17    18    1
     4    18    19    1
     5    19    14    1
     6    14    13    1
     7    13    12    1
     8    12     1    1
     9     1    22    1
    10    23    22    1
    11    23    24    1
    12    24    25    1
    13    25    26   ar
    14    26    27   ar
    15    27    28   ar
    16    28    29   ar
    17    29    30   ar
    18    30    31    1
    19    31    32    1
    20     2     1    1
    21     2     3    1
    22     3     4    1
    23     4     5    1
    24     5     6    1
    25     6     7   ar
    26     7     8   ar
    27     8     9   ar
    28     9    10   ar
    29    10    11   ar
    30    19    20    1
    31    20    21    1
    32    21    16    1
    33    32    23    1
    34    11     2    1
    35    30    25   ar
    36    11     6   ar
    37    32    33    1
@<TRIPOS>MOLECULE
*****
 33 37 0 0 0
SMALL
GASTEIGER

@<TRIPOS>ATOM
      1 N          -7.5299  -19.6145   21.4323 N.3     1  UNL1       -0.2679
      2 C          -8.3864  -19.2599   22.6116 C.3     1  UNL1        0.0978
      3 C          -9.2885  -20.2920   23.2207 C.3     1  UNL1        0.0224
      4 C         -10.1450  -19.9374   24.3999 C.3     1  UNL1        0.0065
      5 C         -10.0994  -18.5508   24.9701 C.3     1  UNL1        0.0277
      6 C          -9.1974  -17.5188   24.3610 C.ar    1  UNL1       -0.0073
      7 C          -9.1517  -16.1320   24.9312 C.ar    1  UNL1       -0.0015
      8 C          -8.2497  -15.1000   24.3222 C.ar    1  UNL1        0.0203
      9 C          -7.3931  -15.4545   23.1429 C.ar    1  UNL1        0.0985
     10 N          -7.4387  -16.8411   22.5727 N.ar    1  UNL1       -0.2471
     11 C          -8.3408  -17.8733   23.1818 C.ar    1  UNL1        0.0695
     12 C          -8.0229  -19.3498   20.0407 C.3     1  UNL1        0.0738
     13 C          -9.1044  -20.2068   19.4524 C.3     1  UNL1        0.0347
     14 C         -10.4736  -19.6372   19.2272 C.3     1  UNL1        0.0736
     15 C         -12.5996  -15.3959   22.9003 C.3     1  UNL1        0.0897
     16 N         -12.0681  -16.4563   21.9820 N.3     1  UNL1       -0.2691
     17 C         -12.3921  -17.8988   22.2351 C.3     1  UNL1        0.0897
     18 C         -11.8606  -18.9592   21.3168 C.3     1  UNL1        0.0897
     19 N         -11.0051  -18.5769   20.1455 N.3     1  UNL1       -0.2703
     20 C         -10.6812  -17.1343   19.8924 C.3     1  UNL1        0.0897
     21 C         -11.2126  -16.0740   20.8107 C.3     1  UNL1        0.0897
     22 C          -6.1803  -20.2337   21.6447 C.3     1  UNL1        0.0886
     23 C          -4.9466  -19.3825   21.5844 C.3     1  UNL1        0.0748
     24 C          -4.0908  -19.3885   20.3525 C.3     1  UNL1        0.0432
     25 C          -2.8571  -18.5373   20.2922 C.ar    1  UNL1       -0.0234
     26 C          -2.0013  -18.5432   19.0604 C.ar    1  UNL1       -0.0045
     27 C          -0.7677  -17.6921   19.0001 C.ar    1  UNL1       -0.0003
     28 C          -0.3899  -16.8349   20.1716 C.ar    1  UNL1       -0.0003
     29 C          -1.2457  -16.8290   21.4035 C.ar    1  UNL1       -0.0032
     30 C          -2.4793  -17.6801   21.4638 C.ar    1  UNL1       -0.0103
     31 C          -3.3352  -17.6742   22.6957 C.3     1  UNL1        0.0953
     32 N          -4.5688  -18.5254   22.7560 N.3     1  UNL1       -0.2934
     33 H          -5.3531  -17.8956   22.9251 H       1  UNL1        0.1236
@<TRIPOS>BOND
     1    15    16    1
     2    16    17    1
     3    17    18    1
     4    18    19    1
     5    19    14    1
     6    14    13    1
     7    13    12    1
     8    12     1    1
     9     1    22    1
    10    23    22    1
    11    23    24    1
    12    24    25    1
    13    25    26   ar
    14    26    27   ar
    15    27    28   ar
    16    28    29   ar
    17    29    30   ar
    18    30    31    1
    19    31    32    1
    20     2     1    1
    21     2     3    1
    22     3     4    1
    23     4     5    1
    24     5     6    1
    25     6     7   ar
    26     7     8   ar
    27     8     9   ar
    28     9    10   ar
    29    10    11   ar
    30    19    20    1
    31    20    21    1
    32    21    16    1
    33    32    23    1
    34    11     2    1
    35    30    25   ar
    36    11     6   ar
    37    32    33    1
@<TRIPOS>MOLECULE
*****
 33 37 0 0 0
SMALL
GASTEIGER

@<TRIPOS>ATOM
      1 N          -8.7012  -18.0271   21.2894 N.3     1  UNL1       -0.2679
      2 C         -10.1319  -17.5771   21.2665 C.3     1  UNL1        0.0978
      3 C         -10.6459  -16.7700   20.1113 C.3     1  UNL1        0.0224
      4 C         -12.0766  -16.3200   20.0884 C.3     1  UNL1        0.0065
      5 C         -12.9934  -16.6771   21.2206 C.3     1  UNL1        0.0277
      6 C         -12.4794  -17.4841   22.3758 C.ar    1  UNL1       -0.0073
      7 C         -13.3962  -17.8412   23.5081 C.ar    1  UNL1       -0.0015
      8 C         -12.8822  -18.6482   24.6633 C.ar    1  UNL1        0.0203
      9 C         -11.4515  -19.0982   24.6862 C.ar    1  UNL1        0.0985
     10 N         -10.5347  -18.7412   23.5540 N.ar    1  UNL1       -0.2471
     11 C         -11.0487  -17.9341   22.3987 C.ar    1  UNL1        0.0695
     12 C          -8.3715  -19.4852   21.1663 C.3     1  UNL1        0.0738
     13 C          -7.0462  -19.9098   20.6066 C.3     1  UNL1        0.0347
     14 C          -5.8788  -20.1243   21.5237 C.3     1  UNL1        0.0736
     15 C          -0.5131  -17.8244   20.1379 C.3     1  UNL1        0.0897
     16 N          -1.8545  -18.3994   20.4844 N.3     1  UNL1       -0.2691
     17 C          -2.2131  -18.6555   21.9182 C.3     1  UNL1        0.0897
     18 C          -3.5545  -19.2305   22.2646 C.3     1  UNL1        0.0897
     19 N          -4.5374  -19.5494   21.1773 N.3     1  UNL1       -0.2703
     20 C          -4.1788  -19.2932   19.7434 C.3     1  UNL1        0.0897
     21 C          -2.8374  -18.7183   19.3970 C.3     1  UNL1        0.0897
     22 C          -7.6002  -17.0190   21.4355 C.3     1  UNL1        0.0886
     23 C          -7.1780  -16.5618   22.8003 C.3     1  UNL1        0.0748
     24 C          -8.2124  -16.2662   23.8456 C.3     1  UNL1        0.0432
     25 C          -7.7903  -15.8090   25.2104 C.ar    1  UNL1       -0.0234
     26 C          -8.8247  -15.5134   26.2557 C.ar    1  UNL1       -0.0045
     27 C          -8.4025  -15.0563   27.6205 C.ar    1  UNL1       -0.0003
     28 C          -6.9459  -14.8947   27.9400 C.ar    1  UNL1       -0.0003
     29 C          -5.9115  -15.1903   26.8948 C.ar    1  UNL1       -0.0032
     30 C          -6.3336  -15.6475   25.5300 C.ar    1  UNL1       -0.0103
     31 C          -5.2992  -15.9431   24.4847 C.3     1  UNL1        0.0953
     32 N          -5.7214  -16.4002   23.1199 N.3     1  UNL1       -0.2934
     33 H          -5.2835  -17.3083   22.9650 H       1  UNL1        0.1236
@<TRIPOS>BOND
     1    15    16    1
     2    16    17    1
     3    17    18    1
     4    18    19    1
     5    19    14    1
     6    14    13    1
     7    13    12    1
     8    12     1    1
     9     1    22    1
    10    23    22    1
    11    23    24    1
    12    24    25    1
    13    25    26   ar
    14    26    27   ar
    15    27    28   ar
    16    28    29   ar
    17    29    30   ar
    18    30    31    1
    19    31    32    1
    20     2     1    1
    21     2     3    1
    22     3     4    1
    23     4     5    1
    24     5     6    1
    25     6     7   ar
    26     7     8   ar
    27     8     9   ar
    28     9    10   ar
    29    10    11   ar
    30    19    20    1
    31    20    21    1
    32    21    16    1
    33    32    23    1
    34    11     2    1
    35    30    25   ar
    36    11     6   ar
    37    32    33    1
@<TRIPOS>MOLECULE
*****
 33 37 0 0 0
SMALL
GASTEIGER

@<TRIPOS>ATOM
      1 N          -7.3008  -19.1836   20.9055 N.3     1  UNL1       -0.2679
      2 C          -7.8865  -18.2295   21.9038 C.3     1  UNL1        0.0978
      3 C          -7.6549  -16.7548   21.7571 C.3     1  UNL1        0.0224
      4 C          -8.2406  -15.8006   22.7555 C.3     1  UNL1        0.0065
      5 C          -9.0578  -16.3212   23.9004 C.3     1  UNL1        0.0277
      6 C          -9.2894  -17.7959   24.0471 C.ar    1  UNL1       -0.0073
      7 C         -10.1068  -18.3166   25.1921 C.ar    1  UNL1       -0.0015
      8 C         -10.3384  -19.7913   25.3387 C.ar    1  UNL1        0.0203
      9 C          -9.7527  -20.7454   24.3404 C.ar    1  UNL1        0.0985
     10 N          -8.9354  -20.2248   23.1954 N.ar    1  UNL1       -0.2471
     11 C          -8.7038  -18.7501   23.0488 C.ar    1  UNL1        0.0695
     12 C          -7.8911  -19.2862   19.5304 C.3     1  UNL1        0.0738
     13 C          -9.0294  -20.2282   19.2711 C.3     1  UNL1        0.0347
     14 C         -10.4154  -19.6919   19.0683 C.3     1  UNL1        0.0736
     15 C         -12.6257  -15.5863   22.8444 C.3     1  UNL1        0.0897
     16 N         -12.0731  -16.6127   21.9004 N.3     1  UNL1       -0.2691
     17 C         -11.3487  -16.1786   20.6607 C.3     1  UNL1        0.0897
     18 C         -10.7961  -17.2050   19.7167 C.3     1  UNL1        0.0897
     19 N         -10.9680  -18.6655   20.0123 N.3     1  UNL1       -0.2703
     20 C         -11.6924  -19.0996   21.2521 C.3     1  UNL1        0.0897
     21 C         -12.2450  -18.0732   22.1960 C.3     1  UNL1        0.0897
     22 C          -6.1249  -20.0351   21.2822 C.3     1  UNL1        0.0886
     23 C          -4.7417  -19.4550   21.2620 C.3     1  UNL1        0.0748
     24 C          -4.0838  -19.1298   19.9538 C.3     1  UNL1        0.0432
     25 C          -2.7006  -18.5497   19.9336 C.ar    1  UNL1       -0.0234
     26 C          -2.0427  -18.2246   18.6254 C.ar    1  UNL1       -0.0045
     27 C          -0.6596  -17.6445   18.6052 C.ar    1  UNL1       -0.0003
     28 C           0.0656  -17.3896   19.8932 C.ar    1  UNL1       -0.0003
     29 C          -0.5922  -17.7147   21.2014 C.ar    1  UNL1       -0.0032
     30 C          -1.9753  -18.2948   21.2216 C.ar    1  UNL1       -0.0103
     31 C          -2.6333  -18.6200   22.5299 C.3     1  UNL1        0.0953
     32 N          -4.0164  -19.2000   22.5500 N.3     1  UNL1       -0.2934
     33 H          -4.5962  -18.5600   23.0928 H       1  UNL1        0.1236
@<TRIPOS>BOND
     1    15    16    1
     2    16    17    1
     3    17    18    1
     4    18    19    1
     5    19    14    1
     6    14    13    1
     7    13    12    1
     8    12     1    1
     9     1    22    1
    10    23    22    1
    11    23    24    1
    12    24    25    1
    13    25    26   ar
    14    26    27   ar
    15    27    28   ar
    16    28    29   ar
    17    29    30   ar
    18    30    31    1
    19    31    32    1
    20     2     1    1
    21     2     3    1
    22     3     4    1
    23     4     5    1
    24     5     6    1
    25     6     7   ar
    26     7     8   ar
    27     8     9   ar
    28     9    10   ar
    29    10    11   ar
    30    19    20    1
    31    20    21    1
    32    21    16    1
    33    32    23    1
    34    11     2    1
    35    30    25   ar
    36    11     6   ar
    37    32    33    1
@<TRIPOS>MOLECULE
*****
 33 37 0 0 0
SMALL
GASTEIGER

@<TRIPOS>ATOM
      1 N          -9.0507  -18.4846   21.1728 N.3     1  UNL1       -0.2679
      2 C          -9.6184  -19.0617   22.4356 C.3     1  UNL1        0.0978
      3 C          -8.8340  -20.0741   23.2164 C.3     1  UNL1        0.0224
      4 C          -9.4017  -20.6512   24.4792 C.3     1  UNL1        0.0065
      5 C         -10.7538  -20.2160   24.9612 C.3     1  UNL1        0.0277
      6 C         -11.5382  -19.2037   24.1803 C.ar    1  UNL1       -0.0073
      7 C         -12.8904  -18.7684   24.6623 C.ar    1  UNL1       -0.0015
      8 C         -13.6749  -17.7561   23.8814 C.ar    1  UNL1        0.0203
      9 C         -13.1072  -17.1789   22.6186 C.ar    1  UNL1        0.0985
     10 N         -11.7551  -17.6141   22.1367 N.ar    1  UNL1       -0.2471
     11 C         -10.9705  -18.6265   22.9175 C.ar    1  UNL1        0.0695
     12 C          -9.5857  -17.1917   20.6324 C.3     1  UNL1        0.0738
     13 C          -9.4052  -15.9217   21.4100 C.3     1  UNL1        0.0347
     14 C          -8.0426  -15.5288   21.8987 C.3     1  UNL1        0.0736
     15 C          -6.7714  -15.7717   27.7575 C.3     1  UNL1        0.0897
     16 N          -7.0892  -15.7110   26.2928 N.3     1  UNL1       -0.2691
     17 C          -6.0158  -15.3575   25.3065 C.3     1  UNL1        0.0897
     18 C          -6.3335  -15.2967   23.8417 C.3     1  UNL1        0.0897
     19 N          -7.7248  -15.5895   23.3634 N.3     1  UNL1       -0.2703
     20 C          -8.7982  -15.9430   24.3497 C.3     1  UNL1        0.0897
     21 C          -8.4804  -16.0037   25.8144 C.3     1  UNL1        0.0897
     22 C          -7.9481  -19.2003   20.4505 C.3     1  UNL1        0.0886
     23 C          -6.5182  -18.9535   20.8311 C.3     1  UNL1        0.0748
     24 C          -5.4464  -18.9873   19.7823 C.3     1  UNL1        0.0432
     25 C          -4.0166  -18.7405   20.1629 C.ar    1  UNL1       -0.0234
     26 C          -2.9448  -18.7743   19.1141 C.ar    1  UNL1       -0.0045
     27 C          -1.5150  -18.5275   19.4948 C.ar    1  UNL1       -0.0003
     28 C          -1.1571  -18.2469   20.9242 C.ar    1  UNL1       -0.0003
     29 C          -2.2290  -18.2131   21.9729 C.ar    1  UNL1       -0.0032
     30 C          -3.6587  -18.4599   21.5923 C.ar    1  UNL1       -0.0103
     31 C          -4.7306  -18.4261   22.6411 C.3     1  UNL1        0.0953
     32 N          -6.1604  -18.6729   22.2605 N.3     1  UNL1       -0.2934
     33 H          -6.6863  -17.8444   22.5385 H       1  UNL1        0.1236
@<TRIPOS>BOND
     1    15    16    1
     2    16    17    1
     3    17    18    1
     4    18    19    1
     5    19    14    1
     6    14    13    1
     7    13    12    1
     8    12     1    1
     9     1    22    1
    10    23    22    1
    11    23    24    1
    12    24    25    1
    13    25    26   ar
    14    26    27   ar
    15    27    28   ar
    16    28    29   ar
    17    29    30   ar
    18    30    31    1
    19    31    32    1
    20     2     1    1
    21     2     3    1
    22     3     4    1
    23     4     5    1
    24     5     6    1
    25     6     7   ar
    26     7     8   ar
    27     8     9   ar
    28     9    10   ar
    29    10    11   ar
    30    19    20    1
    31    20    21    1
    32    21    16    1
    33    32    23    1
    34    11     2    1
    35    30    25   ar
    36    11     6   ar
    37    32    33    1
@<TRIPOS>MOLECULE
*****
 33 37 0 0 0
SMALL
GASTEIGER

@<TRIPOS>ATOM
      1 N           7.1041   -4.0129   23.2171 N.3     1  UNL1       -0.2679
      2 C           7.6957   -5.2377   23.8495 C.3     1  UNL1        0.0978
      3 C           8.4446   -6.2287   23.0087 C.3     1  UNL1        0.0224
      4 C           9.0362   -7.4534   23.6412 C.3     1  UNL1        0.0065
      5 C           8.8790   -7.6871   25.1145 C.3     1  UNL1        0.0277
      6 C           8.1302   -6.6961   25.9553 C.ar    1  UNL1       -0.0073
      7 C           7.9730   -6.9298   27.4287 C.ar    1  UNL1       -0.0015
      8 C           7.2241   -5.9387   28.2695 C.ar    1  UNL1        0.0203
      9 C           6.6325   -4.7140   27.6370 C.ar    1  UNL1        0.0985
     10 N           6.7897   -4.4803   26.1638 N.ar    1  UNL1       -0.2471
     11 C           7.5386   -5.4714   25.3228 C.ar    1  UNL1        0.0695
     12 C           7.9723   -2.8246   22.9273 C.3     1  UNL1        0.0738
     13 C           8.5857   -2.6574   21.5686 C.3     1  UNL1        0.0347
     14 C           8.0389   -3.4219   20.3996 C.3     1  UNL1        0.0736
     15 C           4.0532   -0.8448   16.7290 C.3     1  UNL1        0.0897
     16 N           5.0497   -1.4891   17.6467 N.3     1  UNL1       -0.2691
     17 C           4.6798   -2.7310   18.4022 C.3     1  UNL1        0.0897
     18 C           5.6763   -3.3753   19.3199 C.3     1  UNL1        0.0897
     19 N           7.0425   -2.7777   19.4820 N.3     1  UNL1       -0.2703
     20 C           7.4123   -1.5357   18.7264 C.3     1  UNL1        0.0897
     21 C           6.4159   -0.8915   17.8088 C.3     1  UNL1        0.0897
     22 C           5.6443   -3.9765   22.8745 C.3     1  UNL1        0.0886
     23 C           4.7943   -2.8293   23.3345 C.3     1  UNL1        0.0748
     24 C           3.9394   -2.0874   22.3503 C.3     1  UNL1        0.0432
     25 C           3.0894   -0.9402   22.8103 C.ar    1  UNL1       -0.0234
     26 C           2.2346   -0.1982   21.8261 C.ar    1  UNL1       -0.0045
     27 C           1.3847    0.9489   22.2861 C.ar    1  UNL1       -0.0003
     28 C           1.3896    1.3541   23.7303 C.ar    1  UNL1       -0.0003
     29 C           2.2444    0.6121   24.7145 C.ar    1  UNL1       -0.0032
     30 C           3.0943   -0.5350   24.2545 C.ar    1  UNL1       -0.0103
     31 C           3.9493   -1.2770   25.2387 C.3     1  UNL1        0.0953
     32 N           4.7992   -2.4241   24.7787 N.3     1  UNL1       -0.2934
     33 H           4.5064   -3.2411   25.3147 H       1  UNL1        0.1236
@<TRIPOS>BOND
     1    15    16    1
     2    16    17    1
     3    17    18    1
     4    18    19    1
     5    19    14    1
     6    14    13    1
     7    13    12    1
     8    12     1    1
     9     1    22    1
    10    23    22    1
    11    23    24    1
    12    24    25    1
    13    25    26   ar
    14    26    27   ar
    15    27    28   ar
    16    28    29   ar
    17    29    30   ar
    18    30    31    1
    19    31    32    1
    20     2     1    1
    21     2     3    1
    22     3     4    1
    23     4     5    1
    24     5     6    1
    25     6     7   ar
    26     7     8   ar
    27     8     9   ar
    28     9    10   ar
    29    10    11   ar
    30    19    20    1
    31    20    21    1
    32    21    16    1
    33    32    23    1
    34    11     2    1
    35    30    25   ar
    36    11     6   ar
    37    32    33    1
@<TRIPOS>MOLECULE
*****
 33 37 0 0 0
SMALL
GASTEIGER

@<TRIPOS>ATOM
      1 N           7.2859   -3.5394   21.2109 N.3     1  UNL1       -0.2679
      2 C           7.1063   -3.7750   22.6814 C.3     1  UNL1        0.0978
      3 C           6.3978   -2.7556   23.5232 C.3     1  UNL1        0.0224
      4 C           6.2182   -2.9912   24.9937 C.3     1  UNL1        0.0065
      5 C           6.7471   -4.2462   25.6223 C.3     1  UNL1        0.0277
      6 C           7.4557   -5.2656   24.7804 C.ar    1  UNL1       -0.0073
      7 C           7.9846   -6.5207   25.4090 C.ar    1  UNL1       -0.0015
      8 C           8.6931   -7.5401   24.5671 C.ar    1  UNL1        0.0203
      9 C           8.8727   -7.3045   23.0966 C.ar    1  UNL1        0.0985
     10 N           8.3438   -6.0495   22.4680 N.ar    1  UNL1       -0.2471
     11 C           7.6352   -5.0300   23.3099 C.ar    1  UNL1        0.0695
     12 C           8.5348   -2.8813   20.7038 C.3     1  UNL1        0.0738
     13 C           8.6071   -1.3864   20.6033 C.3     1  UNL1        0.0347
     14 C           8.5824   -0.7231   19.2582 C.3     1  UNL1        0.0736
     15 C           4.3987    3.3960   18.0210 C.3     1  UNL1        0.0897
     16 N           5.4446    2.3662   18.3303 N.3     1  UNL1       -0.2691
     17 C           5.5348    1.7790   19.7076 C.3     1  UNL1        0.0897
     18 C           6.5807    0.7492   20.0170 C.3     1  UNL1        0.0897
     19 N           7.5365    0.3066   18.9489 N.3     1  UNL1       -0.2703
     20 C           7.4463    0.8939   17.5715 C.3     1  UNL1        0.0897
     21 C           6.4004    1.9236   17.2623 C.3     1  UNL1        0.0897
     22 C           6.2166   -3.9618   20.2475 C.3     1  UNL1        0.0886
     23 C           5.2942   -2.9382   19.6547 C.3     1  UNL1        0.0748
     24 C           4.1060   -2.4583   20.4344 C.3     1  UNL1        0.0432
     25 C           3.1835   -1.4347   19.8416 C.ar    1  UNL1       -0.0234
     26 C           1.9953   -0.9549   20.6212 C.ar    1  UNL1       -0.0045
     27 C           1.0730    0.0687   20.0284 C.ar    1  UNL1       -0.0003
     28 C           1.3388    0.6125   18.6559 C.ar    1  UNL1       -0.0003
     29 C           2.5270    0.1326   17.8763 C.ar    1  UNL1       -0.0032
     30 C           3.4494   -0.8910   18.4691 C.ar    1  UNL1       -0.0103
     31 C           4.6377   -1.3708   17.6895 C.3     1  UNL1        0.0953
     32 N           5.5600   -2.3944   18.2823 N.3     1  UNL1       -0.2934
     33 H           6.4892   -1.9744   18.3069 H       1  UNL1        0.1236
@<TRIPOS>BOND
     1    15    16    1
     2    16    17    1
     3    17    18    1
     4    18    19    1
     5    19    14    1
     6    14    13    1
     7    13    12    1
     8    12     1    1
     9     1    22    1
    10    23    22    1
    11    23    24    1
    12    24    25    1
    13    25    26   ar
    14    26    27   ar
    15    27    28   ar
    16    28    29   ar
    17    29    30   ar
    18    30    31    1
    19    31    32    1
    20     2     1    1
    21     2     3    1
    22     3     4    1
    23     4     5    1
    24     5     6    1
    25     6     7   ar
    26     7     8   ar
    27     8     9   ar
    28     9    10   ar
    29    10    11   ar
    30    19    20    1
    31    20    21    1
    32    21    16    1
    33    32    23    1
    34    11     2    1
    35    30    25   ar
    36    11     6   ar
    37    32    33    1
@<TRIPOS>MOLECULE
*****
 33 37 0 0 0
SMALL
GASTEIGER

@<TRIPOS>ATOM
      1 N           7.6276   -2.6084   20.3070 N.3     1  UNL1       -0.2679
      2 C           6.1493   -2.7127   20.0749 C.3     1  UNL1        0.0978
      3 C           5.6208   -3.6129   18.9978 C.3     1  UNL1        0.0224
      4 C           4.1426   -3.7171   18.7658 C.3     1  UNL1        0.0065
      5 C           3.1928   -2.9211   19.6108 C.3     1  UNL1        0.0277
      6 C           3.7212   -2.0208   20.6879 C.ar    1  UNL1       -0.0073
      7 C           2.7714   -1.2247   21.5330 C.ar    1  UNL1       -0.0015
      8 C           3.2999   -0.3245   22.6101 C.ar    1  UNL1        0.0203
      9 C           4.7782   -0.2202   22.8422 C.ar    1  UNL1        0.0985
     10 N           5.7280   -1.0163   21.9971 N.ar    1  UNL1       -0.2471
     11 C           5.1995   -1.9166   20.9200 C.ar    1  UNL1        0.0695
     12 C           8.3617   -1.3597   19.9176 C.3     1  UNL1        0.0738
     13 C           8.0188   -0.6562   18.6379 C.3     1  UNL1        0.0347
     14 C           7.3059    0.6630   18.6749 C.3     1  UNL1        0.0736
     15 C           1.3171    0.8467   18.3566 C.3     1  UNL1        0.0897
     16 N           2.8144    0.8007   18.4362 N.3     1  UNL1       -0.2691
     17 C           3.5880   -0.0856   17.5057 C.3     1  UNL1        0.0897
     18 C           5.0853   -0.1315   17.5853 C.3     1  UNL1        0.0897
     19 N           5.8088    0.7089   18.5954 N.3     1  UNL1       -0.2703
     20 C           5.0350    1.5953   19.5259 C.3     1  UNL1        0.0897
     21 C           3.5379    1.6412   19.4463 C.3     1  UNL1        0.0897
     22 C           8.3718   -3.7529   20.9284 C.3     1  UNL1        0.0886
     23 C           8.0252   -4.2084   22.3150 C.3     1  UNL1        0.0748
     24 C           8.3292   -5.6143   22.7405 C.3     1  UNL1        0.0432
     25 C           7.9826   -6.0697   24.1271 C.ar    1  UNL1       -0.0234
     26 C           8.2866   -7.4756   24.5527 C.ar    1  UNL1       -0.0045
     27 C           7.9400   -7.9310   25.9392 C.ar    1  UNL1       -0.0003
     28 C           7.2894   -6.9805   26.9001 C.ar    1  UNL1       -0.0003
     29 C           6.9854   -5.5747   26.4746 C.ar    1  UNL1       -0.0032
     30 C           7.3320   -5.1193   25.0880 C.ar    1  UNL1       -0.0103
     31 C           7.0280   -3.7134   24.6624 C.3     1  UNL1        0.0953
     32 N           7.3746   -3.2580   23.2759 N.3     1  UNL1       -0.2934
     33 H           8.0055   -2.4628   23.3763 H       1  UNL1        0.1236
@<TRIPOS>BOND
     1    15    16    1
     2    16    17    1
     3    17    18    1
     4    18    19    1
     5    19    14    1
     6    14    13    1
     7    13    12    1
     8    12     1    1
     9     1    22    1
    10    23    22    1
    11    23    24    1
    12    24    25    1
    13    25    26   ar
    14    26    27   ar
    15    27    28   ar
    16    28    29   ar
    17    29    30   ar
    18    30    31    1
    19    31    32    1
    20     2     1    1
    21     2     3    1
    22     3     4    1
    23     4     5    1
    24     5     6    1
    25     6     7   ar
    26     7     8   ar
    27     8     9   ar
    28     9    10   ar
    29    10    11   ar
    30    19    20    1
    31    20    21    1
    32    21    16    1
    33    32    23    1
    34    11     2    1
    35    30    25   ar
    36    11     6   ar
    37    32    33    1
@<TRIPOS>MOLECULE
*****
 33 37 0 0 0
SMALL
GASTEIGER

@<TRIPOS>ATOM
      1 N           7.6528   -3.8710   24.5963 N.3     1  UNL1       -0.2679
      2 C           8.2433   -5.2487   24.5407 C.3     1  UNL1        0.0978
      3 C           8.6433   -5.8406   23.2217 C.3     1  UNL1        0.0224
      4 C           9.2338   -7.2184   23.1661 C.3     1  UNL1        0.0065
      5 C           9.4243   -8.0042   24.4294 C.3     1  UNL1        0.0277
      6 C           9.0244   -7.4124   25.7484 C.ar    1  UNL1       -0.0073
      7 C           9.2150   -8.1983   27.0118 C.ar    1  UNL1       -0.0015
      8 C           8.8151   -7.6064   28.3308 C.ar    1  UNL1        0.0203
      9 C           8.2246   -6.2286   28.3864 C.ar    1  UNL1        0.0985
     10 N           8.0340   -5.4427   27.1231 N.ar    1  UNL1       -0.2471
     11 C           8.4339   -6.0346   25.8040 C.ar    1  UNL1        0.0695
     12 C           8.5503   -2.6692   24.5830 C.3     1  UNL1        0.0738
     13 C           8.5991   -1.7829   23.3738 C.3     1  UNL1        0.0347
     14 C           8.7374   -2.3857   22.0072 C.3     1  UNL1        0.0736
     15 C           5.4720   -0.2579   17.4454 C.3     1  UNL1        0.0897
     16 N           6.2883   -0.7898   18.5859 N.3     1  UNL1       -0.2691
     17 C           6.2659   -0.0924   19.9137 C.3     1  UNL1        0.0897
     18 C           7.0823   -0.6243   21.0542 C.3     1  UNL1        0.0897
     19 N           7.9210   -1.8537   20.8668 N.3     1  UNL1       -0.2703
     20 C           7.9434   -2.5512   19.5389 C.3     1  UNL1        0.0897
     21 C           7.1271   -2.0192   18.3985 C.3     1  UNL1        0.0897
     22 C           6.1648   -3.6950   24.6653 C.3     1  UNL1        0.0886
     23 C           5.3982   -3.3028   23.4371 C.3     1  UNL1        0.0748
     24 C           4.4605   -2.1328   23.4800 C.3     1  UNL1        0.0432
     25 C           3.6939   -1.7406   22.2517 C.ar    1  UNL1       -0.0234
     26 C           2.7562   -0.5706   22.2946 C.ar    1  UNL1       -0.0045
     27 C           1.9897   -0.1785   21.0664 C.ar    1  UNL1       -0.0003
     28 C           2.1608   -0.9563   19.7953 C.ar    1  UNL1       -0.0003
     29 C           3.0985   -2.1263   19.7524 C.ar    1  UNL1       -0.0032
     30 C           3.8650   -2.5184   20.9806 C.ar    1  UNL1       -0.0103
     31 C           4.8028   -3.6884   20.9377 C.3     1  UNL1        0.0953
     32 N           5.5693   -4.0806   22.1660 N.3     1  UNL1       -0.2934
     33 H           6.5589   -4.0336   21.9230 H       1  UNL1        0.1236
@<TRIPOS>BOND
     1    15    16    1
     2    16    17    1
     3    17    18    1
     4    18    19    1
     5    19    14    1
     6    14    13    1
     7    13    12    1
     8    12     1    1
     9     1    22    1
    10    23    22    1
    11    23    24    1
    12    24    25    1
    13    25    26   ar
    14    26    27   ar
    15    27    28   ar
    16    28    29   ar
    17    29    30   ar
    18    30    31    1
    19    31    32    1
    20     2     1    1
    21     2     3    1
    22     3     4    1
    23     4     5    1
    24     5     6    1
    25     6     7   ar
    26     7     8   ar
    27     8     9   ar
    28     9    10   ar
    29    10    11   ar
    30    19    20    1
    31    20    21    1
    32    21    16    1
    33    32    23    1
    34    11     2    1
    35    30    25   ar
    36    11     6   ar
    37    32    33    1
