@<TRIPOS>MOLECULE
*****
 34 37 0 0 0
SMALL
GASTEIGER

@<TRIPOS>ATOM
      1 C         -12.4563   -5.4356   18.6047 C.ar    1  UNL1       -0.0045
      2 C         -12.3401   -4.6704   17.3198 C.ar    1  UNL1       -0.0026
      3 C         -12.6565   -3.2045   17.2886 C.ar    1  UNL1        0.0029
      4 C         -13.0891   -2.5038   18.5423 C.ar    1  UNL1        0.0391
      5 C         -13.2053   -3.2689   19.8272 C.ar    1  UNL1        0.0029
      6 C         -12.8889   -4.7348   19.8584 C.ar    1  UNL1       -0.0026
      7 C         -13.4055   -1.0378   18.5111 C.ar    1  UNL1        0.2033
      8 N         -12.4106    0.0761   18.3722 N.ar    1  UNL1       -0.0560
      9 O         -13.1625    1.3740   18.3885 O.2     1  UNL1       -0.3370
     10 C         -14.6222    1.0621   18.5374 C.ar    1  UNL1        0.2366
     11 N         -14.7723   -0.4284   18.6132 N.ar    1  UNL1       -0.1907
     12 C         -15.7361    2.0648   18.5997 C.3     1  UNL1        0.0880
     13 C         -15.5828    3.3055   19.4285 C.3     1  UNL1        0.0098
     14 C         -16.0265    3.3099   20.8614 C.3     1  UNL1        0.0005
     15 C         -15.5114    4.3579   21.8028 C.3     1  UNL1        0.0000
     16 C         -15.9550    4.3623   23.2356 C.3     1  UNL1        0.0000
     17 C         -16.9139    3.3187   23.7271 C.3     1  UNL1        0.0000
     18 C         -17.4290    2.2707   22.7856 C.3     1  UNL1        0.0000
     19 C         -16.9853    2.2663   21.3527 C.3     1  UNL1        0.0000
     20 C         -12.1399   -6.9015   18.6360 C.3     1  UNL1        0.0941
     21 N         -13.1993   -7.8893   19.0258 N.am    1  UNL1       -0.3010
     22 C         -14.1759   -8.3853   18.0011 C.2     1  UNL1        0.2394
     23 O         -14.0932   -7.8936   16.5863 O.2     1  UNL1       -0.2736
     24 H         -13.2537   -8.2120   19.9544 H       1  UNL1        0.1497
     25 C         -15.2353   -9.3730   18.3910 C.3     1  UNL1        0.1586
     26 N         -15.2606  -10.8282   18.0279 N.3     1  UNL1       -0.2893
     27 C         -16.4963  -11.4336   18.6250 C.3     1  UNL1        0.0715
     28 C         -17.2349  -10.3525   19.3570 C.3     1  UNL1        0.0482
     29 C         -16.4555   -9.0791   19.2124 C.3     1  UNL1        0.1350
     30 O         -16.8305   -7.7457   19.7881 O.3     1  UNL1       -0.3825
     31 H         -14.4326  -11.2925   18.4012 H       1  UNL1        0.1237
     32 H         -17.6648   -7.8274   20.2762 H       1  UNL1        0.2104
     33 C          -9.5747   -6.8877   19.0475 C.3     1  UNL1        0.0021
     34 C         -10.7642   -7.3797   18.2773 C.3     1  UNL1        0.0241
@<TRIPOS>BOND
     1    33    34    1
     2    20    34    1
     3    20    21    1
     4    21    22   am
     5    22    23    2
     6    25    22    1
     7    25    26    1
     8    26    27    1
     9    27    28    1
    10    28    29    1
    11    29    30    1
    12    20     1    1
    13     1     2   ar
    14     2     3   ar
    15     3     4   ar
    16     4     7    1
    17     7     8   ar
    18     8     9   ar
    19     9    10   ar
    20    10    12    1
    21    12    13    1
    22    13    14    1
    23    14    15    1
    24    15    16    1
    25    16    17    1
    26    17    18    1
    27    18    19    1
    28    10    11   ar
    29     4     5   ar
    30     5     6   ar
    31    29    25    1
    32     6     1   ar
    33    11     7   ar
    34    19    14    1
    35    21    24    1
    36    26    31    1
    37    30    32    1
@<TRIPOS>MOLECULE
*****
 34 37 0 0 0
SMALL
GASTEIGER

@<TRIPOS>ATOM
      1 C           6.0462   -0.1097   35.0386 C.ar    1  UNL1       -0.0045
      2 C           7.3675   -0.2759   34.3485 C.ar    1  UNL1       -0.0026
      3 C           7.5155   -1.2794   33.2435 C.ar    1  UNL1        0.0029
      4 C           6.3421   -2.1166   32.8286 C.ar    1  UNL1        0.0391
      5 C           5.0207   -1.9504   33.5187 C.ar    1  UNL1        0.0029
      6 C           4.8728   -0.9469   34.6237 C.ar    1  UNL1       -0.0026
      7 C           6.4901   -3.1201   31.7235 C.ar    1  UNL1        0.2033
      8 N           6.6533   -4.6015   31.8938 N.ar    1  UNL1       -0.0560
      9 O           6.7650   -5.2154   30.5298 O.2     1  UNL1       -0.3370
     10 C           6.6708   -4.1134   29.5164 C.ar    1  UNL1        0.2366
     11 N           6.5010   -2.8185   30.2542 N.ar    1  UNL1       -0.1907
     12 C           6.7352   -4.2775   28.0268 C.3     1  UNL1        0.0880
     13 C           6.3386   -5.5803   27.3980 C.3     1  UNL1        0.0098
     14 C           7.2243   -6.2163   26.3679 C.3     1  UNL1        0.0005
     15 C           7.3061   -5.6355   24.9874 C.3     1  UNL1        0.0000
     16 C           8.1917   -6.2715   23.9574 C.3     1  UNL1        0.0000
     17 C           8.9957   -7.4884   24.3079 C.3     1  UNL1        0.0000
     18 C           8.9139   -8.0692   25.6885 C.3     1  UNL1        0.0000
     19 C           8.0282   -7.4332   26.7185 C.3     1  UNL1        0.0000
     20 C           5.8981    0.8938   36.1437 C.3     1  UNL1        0.0941
     21 N           4.8420    0.7048   37.1919 N.am    1  UNL1       -0.3010
     22 C           3.6053    1.5534   37.1722 C.2     1  UNL1        0.2394
     23 O           3.4248    2.5912   36.1043 O.2     1  UNL1       -0.2736
     24 H           4.9605    0.0237   37.8929 H       1  UNL1        0.1497
     25 C           2.5492    1.3644   38.2205 C.3     1  UNL1        0.1586
     26 N           2.4784    0.2372   39.2076 N.3     1  UNL1       -0.2893
     27 C           1.2639    0.4455   40.0629 C.3     1  UNL1        0.0715
     28 C           0.5839    1.7014   39.6043 C.3     1  UNL1        0.0482
     29 C           1.3783    2.2693   38.4656 C.3     1  UNL1        0.1350
     30 O           1.0580    3.5222   37.7056 O.3     1  UNL1       -0.3825
     31 H           3.3157    0.2343   39.7902 H       1  UNL1        0.1237
     32 H           0.2484    3.9192   38.0632 H       1  UNL1        0.2104
     33 C           7.2390    2.6370   37.5270 C.3     1  UNL1        0.0021
     34 C           6.8062    2.0863   36.2005 C.3     1  UNL1        0.0241
@<TRIPOS>BOND
     1    33    34    1
     2    20    34    1
     3    20    21    1
     4    21    22   am
     5    22    23    2
     6    25    22    1
     7    25    26    1
     8    26    27    1
     9    27    28    1
    10    28    29    1
    11    29    30    1
    12    20     1    1
    13     1     2   ar
    14     2     3   ar
    15     3     4   ar
    16     4     7    1
    17     7     8   ar
    18     8     9   ar
    19     9    10   ar
    20    10    12    1
    21    12    13    1
    22    13    14    1
    23    14    15    1
    24    15    16    1
    25    16    17    1
    26    17    18    1
    27    18    19    1
    28    10    11   ar
    29     4     5   ar
    30     5     6   ar
    31    29    25    1
    32     6     1   ar
    33    11     7   ar
    34    19    14    1
    35    21    24    1
    36    26    31    1
    37    30    32    1
@<TRIPOS>MOLECULE
*****
 34 37 0 0 0
SMALL
GASTEIGER

@<TRIPOS>ATOM
      1 C           7.7227   -5.0258   23.3880 C.ar    1  UNL1       -0.0045
      2 C           8.5727   -5.1220   22.1559 C.ar    1  UNL1       -0.0026
      3 C           8.1742   -4.3869   20.9106 C.ar    1  UNL1        0.0029
      4 C           6.9257   -3.5556   20.8975 C.ar    1  UNL1        0.0391
      5 C           6.0757   -3.4594   22.1297 C.ar    1  UNL1        0.0029
      6 C           6.4742   -4.1945   23.3749 C.ar    1  UNL1       -0.0026
      7 C           6.5272   -2.8204   19.6522 C.ar    1  UNL1        0.2033
      8 N           7.4380   -2.4423   18.5219 N.ar    1  UNL1       -0.0560
      9 O           6.6217   -1.7225   17.4897 O.2     1  UNL1       -0.3370
     10 C           5.2063   -1.6558   17.9820 C.ar    1  UNL1        0.2366
     11 N           5.1479   -2.3343   19.3184 N.ar    1  UNL1       -0.1907
     12 C           4.0520   -1.0218   17.2638 C.3     1  UNL1        0.0880
     13 C           3.6064    0.3616   17.6347 C.3     1  UNL1        0.0098
     14 C           2.4355    0.5515   18.5528 C.3     1  UNL1        0.0005
     15 C           1.6818    1.8484   18.5486 C.3     1  UNL1        0.0000
     16 C           0.5109    2.0382   19.4666 C.3     1  UNL1        0.0000
     17 C           0.0936    0.9313   20.3888 C.3     1  UNL1        0.0000
     18 C           0.8473   -0.3656   20.3929 C.3     1  UNL1        0.0000
     19 C           2.0182   -0.5555   19.4749 C.3     1  UNL1        0.0000
     20 C           8.1212   -5.7610   24.6334 C.3     1  UNL1        0.0941
     21 N           8.4018   -5.0008   25.8957 N.am    1  UNL1       -0.3010
     22 C           7.4793   -5.1321   27.0711 C.2     1  UNL1        0.2394
     23 O           6.2760   -6.0236   26.9843 O.2     1  UNL1       -0.2736
     24 H           9.1916   -4.4157   25.9527 H       1  UNL1        0.1497
     25 C           7.7599   -4.3719   28.3334 C.3     1  UNL1        0.1586
     26 N           8.4985   -3.0702   28.4330 N.3     1  UNL1       -0.2893
     27 C           8.5464   -2.6737   29.8789 C.3     1  UNL1        0.0715
     28 C           7.8373   -3.7305   30.6729 C.3     1  UNL1        0.0482
     29 C           7.3513   -4.7800   29.7177 C.3     1  UNL1        0.1350
     30 O           6.5902   -6.0199   30.0829 O.3     1  UNL1       -0.3825
     31 H           8.0121   -2.3540   27.8936 H       1  UNL1        0.1237
     32 H           6.4553   -6.0455   31.0431 H       1  UNL1        0.2104
     33 C           9.5333   -7.9021   24.2194 C.3     1  UNL1        0.0021
     34 C           8.2390   -7.2562   24.6164 C.3     1  UNL1        0.0241
@<TRIPOS>BOND
     1    33    34    1
     2    20    34    1
     3    20    21    1
     4    21    22   am
     5    22    23    2
     6    25    22    1
     7    25    26    1
     8    26    27    1
     9    27    28    1
    10    28    29    1
    11    29    30    1
    12    20     1    1
    13     1     2   ar
    14     2     3   ar
    15     3     4   ar
    16     4     7    1
    17     7     8   ar
    18     8     9   ar
    19     9    10   ar
    20    10    12    1
    21    12    13    1
    22    13    14    1
    23    14    15    1
    24    15    16    1
    25    16    17    1
    26    17    18    1
    27    18    19    1
    28    10    11   ar
    29     4     5   ar
    30     5     6   ar
    31    29    25    1
    32     6     1   ar
    33    11     7   ar
    34    19    14    1
    35    21    24    1
    36    26    31    1
    37    30    32    1
@<TRIPOS>MOLECULE
*****
 34 37 0 0 0
SMALL
GASTEIGER

@<TRIPOS>ATOM
      1 C           3.1445   -1.7148   20.9042 C.ar    1  UNL1       -0.0045
      2 C           3.1137   -0.9580   22.1989 C.ar    1  UNL1       -0.0026
      3 C           2.1428    0.1700   22.3853 C.ar    1  UNL1        0.0029
      4 C           1.2028    0.5414   21.2769 C.ar    1  UNL1        0.0391
      5 C           1.2336   -0.2154   19.9822 C.ar    1  UNL1        0.0029
      6 C           2.2045   -1.3434   19.7958 C.ar    1  UNL1       -0.0026
      7 C           0.2318    1.6695   21.4634 C.ar    1  UNL1        0.2033
      8 N           0.3285    2.7546   22.4945 N.ar    1  UNL1       -0.0560
      9 O          -0.8498    3.6663   22.3198 O.2     1  UNL1       -0.3370
     10 C          -1.6746    3.1447   21.1807 C.ar    1  UNL1        0.2366
     11 N          -1.0061    1.9106   20.6514 N.ar    1  UNL1       -0.1907
     12 C          -2.9449    3.7507   20.6620 C.3     1  UNL1        0.0880
     13 C          -4.2666    3.1286   21.0029 C.3     1  UNL1        0.0098
     14 C          -5.0065    3.5661   22.2322 C.3     1  UNL1        0.0005
     15 C          -6.3486    4.2239   22.1055 C.3     1  UNL1        0.0000
     16 C          -7.0886    4.6613   23.3346 C.3     1  UNL1        0.0000
     17 C          -6.4865    4.4409   24.6907 C.3     1  UNL1        0.0000
     18 C          -5.1444    3.7830   24.8175 C.3     1  UNL1        0.0000
     19 C          -4.4044    3.3456   23.5882 C.3     1  UNL1        0.0000
     20 C           4.1155   -2.8429   20.7178 C.3     1  UNL1        0.0941
     21 N           4.6325   -3.5921   21.9100 N.am    1  UNL1       -0.3010
     22 C           5.9402   -3.2012   22.5322 C.2     1  UNL1        0.2394
     23 O           6.7309   -2.0610   21.9622 O.2     1  UNL1       -0.2736
     24 H           4.1136   -4.3405   22.2841 H       1  UNL1        0.1497
     25 C           6.4572   -3.9505   23.7244 C.3     1  UNL1        0.1586
     26 N           6.0810   -3.6995   25.1546 N.3     1  UNL1       -0.2893
     27 C           6.8325   -4.6762   26.0098 C.3     1  UNL1        0.0715
     28 C           7.6732   -5.5307   25.1081 C.3     1  UNL1        0.0482
     29 C           7.4412   -5.0822   23.6957 C.3     1  UNL1        0.1350
     30 O           8.0810   -5.6634   22.4698 O.3     1  UNL1       -0.3825
     31 H           5.0772   -3.8331   25.2770 H       1  UNL1        0.1237
     32 H           8.6771   -6.3842   22.7270 H       1  UNL1        0.2104
     33 C           4.4024   -4.6319   18.8557 C.3     1  UNL1        0.0021
     34 C           4.5693   -3.2217   19.3392 C.3     1  UNL1        0.0241
@<TRIPOS>BOND
     1    33    34    1
     2    20    34    1
     3    20    21    1
     4    21    22   am
     5    22    23    2
     6    25    22    1
     7    25    26    1
     8    26    27    1
     9    27    28    1
    10    28    29    1
    11    29    30    1
    12    20     1    1
    13     1     2   ar
    14     2     3   ar
    15     3     4   ar
    16     4     7    1
    17     7     8   ar
    18     8     9   ar
    19     9    10   ar
    20    10    12    1
    21    12    13    1
    22    13    14    1
    23    14    15    1
    24    15    16    1
    25    16    17    1
    26    17    18    1
    27    18    19    1
    28    10    11   ar
    29     4     5   ar
    30     5     6   ar
    31    29    25    1
    32     6     1   ar
    33    11     7   ar
    34    19    14    1
    35    21    24    1
    36    26    31    1
    37    30    32    1
@<TRIPOS>MOLECULE
*****
 34 37 0 0 0
SMALL
GASTEIGER

@<TRIPOS>ATOM
      1 C           8.1470   -5.3520   25.6488 C.ar    1  UNL1       -0.0045
      2 C           9.1372   -5.5861   24.5467 C.ar    1  UNL1       -0.0026
      3 C           8.8529   -5.0808   23.1633 C.ar    1  UNL1        0.0029
      4 C           7.5785   -4.3413   22.8821 C.ar    1  UNL1        0.0391
      5 C           6.5884   -4.1072   23.9842 C.ar    1  UNL1        0.0029
      6 C           6.8726   -4.6125   25.3676 C.ar    1  UNL1       -0.0026
      7 C           7.2943   -3.8360   21.4986 C.ar    1  UNL1        0.2033
      8 N           8.2939   -3.2300   20.5586 N.ar    1  UNL1       -0.0560
      9 O           7.5780   -2.8674   19.2913 O.2     1  UNL1       -0.3370
     10 C           6.1359   -3.2494   19.4481 C.ar    1  UNL1        0.2366
     11 N           5.9606   -3.8480   20.8122 N.ar    1  UNL1       -0.1907
     12 C           5.0584   -3.0651   18.4210 C.3     1  UNL1        0.0880
     13 C           4.6640   -1.6845   17.9872 C.3     1  UNL1        0.0098
     14 C           3.4335   -1.0424   18.5561 C.3     1  UNL1        0.0005
     15 C           2.8477   -1.5505   19.8401 C.3     1  UNL1        0.0000
     16 C           1.6173   -0.9085   20.4090 C.3     1  UNL1        0.0000
     17 C           0.9726    0.2417   19.6939 C.3     1  UNL1        0.0000
     18 C           1.5583    0.7498   18.4099 C.3     1  UNL1        0.0000
     19 C           2.7888    0.1078   17.8410 C.3     1  UNL1        0.0000
     20 C           8.4312   -5.8573   27.0323 C.3     1  UNL1        0.0941
     21 N           8.3511   -4.9231   28.2032 N.am    1  UNL1       -0.3010
     22 C           7.0718   -4.7975   28.9762 C.2     1  UNL1        0.2394
     23 O           5.8726   -5.6061   28.5784 O.2     1  UNL1       -0.2736
     24 H           9.1381   -4.3924   28.4643 H       1  UNL1        0.1497
     25 C           6.9916   -3.8633   30.1470 C.3     1  UNL1        0.1586
     26 N           7.0990   -2.3682   30.0911 N.3     1  UNL1       -0.2893
     27 C           6.9637   -1.8411   31.4889 C.3     1  UNL1        0.0715
     28 C           6.7727   -3.0104   32.4088 C.3     1  UNL1        0.0482
     29 C           6.7899   -4.2602   31.5794 C.3     1  UNL1        0.1350
     30 O           6.6330   -5.6610   32.0925 O.3     1  UNL1       -0.3825
     31 H           6.3552   -1.9895   29.5048 H       1  UNL1        0.1237
     32 H           6.5167   -5.6415   33.0553 H       1  UNL1        0.2104
     33 C           7.9382   -8.3813   26.6630 C.3     1  UNL1        0.0021
     34 C           8.7956   -7.2967   27.2449 C.3     1  UNL1        0.0241
@<TRIPOS>BOND
     1    33    34    1
     2    20    34    1
     3    20    21    1
     4    21    22   am
     5    22    23    2
     6    25    22    1
     7    25    26    1
     8    26    27    1
     9    27    28    1
    10    28    29    1
    11    29    30    1
    12    20     1    1
    13     1     2   ar
    14     2     3   ar
    15     3     4   ar
    16     4     7    1
    17     7     8   ar
    18     8     9   ar
    19     9    10   ar
    20    10    12    1
    21    12    13    1
    22    13    14    1
    23    14    15    1
    24    15    16    1
    25    16    17    1
    26    17    18    1
    27    18    19    1
    28    10    11   ar
    29     4     5   ar
    30     5     6   ar
    31    29    25    1
    32     6     1   ar
    33    11     7   ar
    34    19    14    1
    35    21    24    1
    36    26    31    1
    37    30    32    1
@<TRIPOS>MOLECULE
*****
 34 37 0 0 0
SMALL
GASTEIGER

@<TRIPOS>ATOM
      1 C           3.5143   -2.0394   20.9627 C.ar    1  UNL1       -0.0045
      2 C           2.5619   -1.6444   19.8732 C.ar    1  UNL1       -0.0026
      3 C           1.5466   -0.5679   20.1185 C.ar    1  UNL1        0.0029
      4 C           1.4837    0.1137   21.4532 C.ar    1  UNL1        0.0391
      5 C           2.4360   -0.2813   22.5427 C.ar    1  UNL1        0.0029
      6 C           3.4513   -1.3578   22.2974 C.ar    1  UNL1       -0.0026
      7 C           0.4683    1.1903   21.6984 C.ar    1  UNL1        0.2033
      8 N          -0.5415    1.6918   20.7091 N.ar    1  UNL1       -0.0560
      9 O          -1.3494    2.7658   21.3752 O.2     1  UNL1       -0.3370
     10 C          -0.8389    2.9281   22.7763 C.ar    1  UNL1        0.2366
     11 N           0.2845    1.9544   22.9761 N.ar    1  UNL1       -0.1907
     12 C          -1.3603    3.8945   23.7982 C.3     1  UNL1        0.0880
     13 C          -2.4418    3.4713   24.7475 C.3     1  UNL1        0.0098
     14 C          -3.8721    3.8179   24.4575 C.3     1  UNL1        0.0005
     15 C          -4.6807    4.5737   25.4699 C.3     1  UNL1        0.0000
     16 C          -6.1110    4.9204   25.1800 C.3     1  UNL1        0.0000
     17 C          -6.7327    4.5113   23.8777 C.3     1  UNL1        0.0000
     18 C          -5.9241    3.7555   22.8653 C.3     1  UNL1        0.0000
     19 C          -4.4938    3.4088   23.1552 C.3     1  UNL1        0.0000
     20 C           4.5296   -3.1160   20.7175 C.3     1  UNL1        0.0941
     21 N           5.0406   -3.9397   21.8621 N.am    1  UNL1       -0.3010
     22 C           6.4219   -3.7045   22.3976 C.2     1  UNL1        0.2394
     23 O           7.2922   -2.6455   21.7883 O.2     1  UNL1       -0.2736
     24 H           4.4694   -4.6348   22.2620 H       1  UNL1        0.1497
     25 C           6.9329   -4.5283   23.5423 C.3     1  UNL1        0.1586
     26 N           7.8145   -5.7370   23.4342 N.3     1  UNL1       -0.2893
     27 C           8.0785   -6.2437   24.8212 C.3     1  UNL1        0.0715
     28 C           7.3601   -5.3481   25.7864 C.3     1  UNL1        0.0482
     29 C           6.6521   -4.2879   24.9960 C.3     1  UNL1        0.1350
     30 O           5.8109   -3.1816   25.5603 O.3     1  UNL1       -0.3825
     31 H           8.6945   -5.4845   22.9846 H       1  UNL1        0.1237
     32 H           5.7905   -3.2520   26.5275 H       1  UNL1        0.2104
     33 C           4.6407   -4.6222   18.6035 C.3     1  UNL1        0.0021
     34 C           5.0339   -3.3688   19.3276 C.3     1  UNL1        0.0241
@<TRIPOS>BOND
     1    33    34    1
     2    20    34    1
     3    20    21    1
     4    21    22   am
     5    22    23    2
     6    25    22    1
     7    25    26    1
     8    26    27    1
     9    27    28    1
    10    28    29    1
    11    29    30    1
    12    20     1    1
    13     1     2   ar
    14     2     3   ar
    15     3     4   ar
    16     4     7    1
    17     7     8   ar
    18     8     9   ar
    19     9    10   ar
    20    10    12    1
    21    12    13    1
    22    13    14    1
    23    14    15    1
    24    15    16    1
    25    16    17    1
    26    17    18    1
    27    18    19    1
    28    10    11   ar
    29     4     5   ar
    30     5     6   ar
    31    29    25    1
    32     6     1   ar
    33    11     7   ar
    34    19    14    1
    35    21    24    1
    36    26    31    1
    37    30    32    1
@<TRIPOS>MOLECULE
*****
 34 37 0 0 0
SMALL
GASTEIGER

@<TRIPOS>ATOM
      1 C           0.7332    1.1968   20.4720 C.ar    1  UNL1       -0.0045
      2 C           1.4547    1.2694   21.7851 C.ar    1  UNL1       -0.0026
      3 C           2.4235    0.1906   22.1690 C.ar    1  UNL1        0.0029
      4 C           2.6710   -0.9607   21.2400 C.ar    1  UNL1        0.0391
      5 C           1.9495   -1.0333   19.9269 C.ar    1  UNL1        0.0029
      6 C           0.9806    0.0454   19.5429 C.ar    1  UNL1       -0.0026
      7 C           3.6399   -2.0395   21.6240 C.ar    1  UNL1        0.2033
      8 N           4.0484   -3.2028   20.7696 N.ar    1  UNL1       -0.0560
      9 O           5.0314   -4.0266   21.5474 O.2     1  UNL1       -0.3370
     10 C           5.2305   -3.3725   22.8825 C.ar    1  UNL1        0.2366
     11 N           4.3705   -2.1444   22.9299 N.ar    1  UNL1       -0.1907
     12 C           6.1314   -3.8607   23.9780 C.3     1  UNL1        0.0880
     13 C           7.3000   -4.7424   23.6509 C.3     1  UNL1        0.0098
     14 C           7.7032   -5.8348   24.5965 C.3     1  UNL1        0.0005
     15 C           7.1457   -5.8654   25.9887 C.3     1  UNL1        0.0000
     16 C           7.5488   -6.9577   26.9342 C.3     1  UNL1        0.0000
     17 C           8.5095   -8.0196   26.4876 C.3     1  UNL1        0.0000
     18 C           9.0670   -7.9890   25.0954 C.3     1  UNL1        0.0000
     19 C           8.6639   -6.8966   24.1498 C.3     1  UNL1        0.0000
     20 C          -0.2358    2.2756   20.0880 C.3     1  UNL1        0.0941
     21 N          -1.5207    2.4339   20.8455 N.am    1  UNL1       -0.3010
     22 C          -1.6644    3.5318   21.8573 C.2     1  UNL1        0.2394
     23 O          -0.5231    4.4715   22.1117 O.2     1  UNL1       -0.2736
     24 H          -2.2698    1.8173   20.6785 H       1  UNL1        0.1497
     25 C          -2.9494    3.6902   22.6148 C.3     1  UNL1        0.1586
     26 N          -3.1119    4.3669   23.9436 N.3     1  UNL1       -0.2893
     27 C          -4.5604    4.2946   24.3265 C.3     1  UNL1        0.0715
     28 C          -5.2931    3.5732   23.2345 C.3     1  UNL1        0.0482
     29 C          -4.2975    3.1997   22.1766 C.3     1  UNL1        0.1350
     30 O          -4.5973    2.4646   20.9038 O.3     1  UNL1       -0.3825
     31 H          -2.8207    5.3420   23.8734 H       1  UNL1        0.1237
     32 H          -5.5450    2.2621   20.8630 H       1  UNL1        0.2104
     33 C           1.4921    3.6468   18.7153 C.3     1  UNL1        0.0021
     34 C           0.0802    3.1959   18.9465 C.3     1  UNL1        0.0241
@<TRIPOS>BOND
     1    33    34    1
     2    20    34    1
     3    20    21    1
     4    21    22   am
     5    22    23    2
     6    25    22    1
     7    25    26    1
     8    26    27    1
     9    27    28    1
    10    28    29    1
    11    29    30    1
    12    20     1    1
    13     1     2   ar
    14     2     3   ar
    15     3     4   ar
    16     4     7    1
    17     7     8   ar
    18     8     9   ar
    19     9    10   ar
    20    10    12    1
    21    12    13    1
    22    13    14    1
    23    14    15    1
    24    15    16    1
    25    16    17    1
    26    17    18    1
    27    18    19    1
    28    10    11   ar
    29     4     5   ar
    30     5     6   ar
    31    29    25    1
    32     6     1   ar
    33    11     7   ar
    34    19    14    1
    35    21    24    1
    36    26    31    1
    37    30    32    1
@<TRIPOS>MOLECULE
*****
 34 37 0 0 0
SMALL
GASTEIGER

@<TRIPOS>ATOM
      1 C         -14.9245   -2.5502   18.2731 C.ar    1  UNL1       -0.0045
      2 C         -14.2891   -1.5922   17.3095 C.ar    1  UNL1       -0.0026
      3 C         -14.3482   -0.1163   17.5704 C.ar    1  UNL1        0.0029
      4 C         -15.0427    0.4017   18.7950 C.ar    1  UNL1        0.0391
      5 C         -15.6781   -0.5563   19.7586 C.ar    1  UNL1        0.0029
      6 C         -15.6189   -2.0322   19.4976 C.ar    1  UNL1       -0.0026
      7 C         -15.1018    1.8777   19.0559 C.ar    1  UNL1        0.2033
      8 N         -14.3696    2.9386   18.2888 N.ar    1  UNL1       -0.0560
      9 O         -14.7187    4.2685   18.8884 O.2     1  UNL1       -0.3370
     10 C         -15.6667    4.0294   20.0261 C.ar    1  UNL1        0.2366
     11 N         -15.9035    2.5518   20.1296 N.ar    1  UNL1       -0.1907
     12 C         -16.2717    5.0830   20.9059 C.3     1  UNL1        0.0880
     13 C         -16.6201    4.7623   22.3292 C.3     1  UNL1        0.0098
     14 C         -15.5590    4.8040   23.3887 C.3     1  UNL1        0.0005
     15 C         -15.9399    4.7026   24.8359 C.3     1  UNL1        0.0000
     16 C         -14.8789    4.7443   25.8953 C.3     1  UNL1        0.0000
     17 C         -13.4370    4.8872   25.5075 C.3     1  UNL1        0.0000
     18 C         -13.0561    4.9886   24.0603 C.3     1  UNL1        0.0000
     19 C         -14.1172    4.9469   23.0008 C.3     1  UNL1        0.0000
     20 C         -14.8653   -4.0262   18.0122 C.3     1  UNL1        0.0941
     21 N         -13.5378   -4.7148   17.8967 N.am    1  UNL1       -0.3010
     22 C         -12.8518   -5.2323   19.1262 C.2     1  UNL1        0.2394
     23 O         -13.4934   -5.0612   20.4712 O.2     1  UNL1       -0.2736
     24 H         -13.1166   -4.8271   17.0139 H       1  UNL1        0.1497
     25 C         -11.5242   -5.9209   19.0107 C.3     1  UNL1        0.1586
     26 N         -11.3082   -7.3926   18.8177 N.3     1  UNL1       -0.2893
     27 C          -9.8300   -7.6400   18.7556 C.3     1  UNL1        0.0715
     28 C          -9.1325   -6.3211   18.9103 C.3     1  UNL1        0.0482
     29 C         -10.1796   -5.2587   19.0679 C.3     1  UNL1        0.1350
     30 O          -9.9264   -3.7915   19.2506 O.3     1  UNL1       -0.3825
     31 H         -11.7467   -7.6957   17.9481 H       1  UNL1        0.1237
     32 H          -8.9706   -3.6261   19.2522 H       1  UNL1        0.2104
     33 C         -16.7408   -5.4854   19.0628 C.3     1  UNL1        0.0021
     34 C         -16.1338   -4.8135   17.8668 C.3     1  UNL1        0.0241
@<TRIPOS>BOND
     1    33    34    1
     2    20    34    1
     3    20    21    1
     4    21    22   am
     5    22    23    2
     6    25    22    1
     7    25    26    1
     8    26    27    1
     9    27    28    1
    10    28    29    1
    11    29    30    1
    12    20     1    1
    13     1     2   ar
    14     2     3   ar
    15     3     4   ar
    16     4     7    1
    17     7     8   ar
    18     8     9   ar
    19     9    10   ar
    20    10    12    1
    21    12    13    1
    22    13    14    1
    23    14    15    1
    24    15    16    1
    25    16    17    1
    26    17    18    1
    27    18    19    1
    28    10    11   ar
    29     4     5   ar
    30     5     6   ar
    31    29    25    1
    32     6     1   ar
    33    11     7   ar
    34    19    14    1
    35    21    24    1
    36    26    31    1
    37    30    32    1
@<TRIPOS>MOLECULE
*****
 34 37 0 0 0
SMALL
GASTEIGER

@<TRIPOS>ATOM
      1 C         -16.2433   -4.9656   19.4817 C.ar    1  UNL1       -0.0045
      2 C         -15.4280   -3.7090   19.4036 C.ar    1  UNL1       -0.0026
      3 C         -16.0937   -2.3728   19.5502 C.ar    1  UNL1        0.0029
      4 C         -17.5746   -2.2933   19.7750 C.ar    1  UNL1        0.0391
      5 C         -18.3899   -3.5500   19.8531 C.ar    1  UNL1        0.0029
      6 C         -17.7242   -4.8861   19.7064 C.ar    1  UNL1       -0.0026
      7 C         -18.2403   -0.9571   19.9216 C.ar    1  UNL1        0.2033
      8 N         -19.3423   -0.4213   19.0564 N.ar    1  UNL1       -0.0560
      9 O         -19.7039    0.9448   19.5592 O.2     1  UNL1       -0.3370
     10 C         -18.8253    1.2534   20.7353 C.ar    1  UNL1        0.2366
     11 N         -17.9208    0.0780   20.9592 N.ar    1  UNL1       -0.1907
     12 C         -18.8475    2.5158   21.5452 C.3     1  UNL1        0.0880
     13 C         -18.0426    2.6114   22.8073 C.3     1  UNL1        0.0098
     14 C         -16.8097    3.4649   22.8478 C.3     1  UNL1        0.0005
     15 C         -16.1084    3.8304   21.5732 C.3     1  UNL1        0.0000
     16 C         -14.8756    4.6839   21.6137 C.3     1  UNL1        0.0000
     17 C         -14.3441    5.1719   22.9288 C.3     1  UNL1        0.0000
     18 C         -15.0455    4.8064   24.2033 C.3     1  UNL1        0.0000
     19 C         -16.2783    3.9528   24.1628 C.3     1  UNL1        0.0000
     20 C         -15.5777   -6.3019   19.3350 C.3     1  UNL1        0.0941
     21 N         -14.1050   -6.4377   19.5858 N.am    1  UNL1       -0.3010
     22 C         -13.1422   -6.4039   18.4361 C.2     1  UNL1        0.2394
     23 O         -13.6520   -6.2342   17.0356 O.2     1  UNL1       -0.2736
     24 H         -13.7704   -6.5491   20.5050 H       1  UNL1        0.1497
     25 C         -11.6696   -6.5397   18.6869 C.3     1  UNL1        0.1586
     26 N         -10.8724   -7.8069   18.5933 N.3     1  UNL1       -0.2893
     27 C          -9.4457   -7.4826   18.9238 C.3     1  UNL1        0.0715
     28 C          -9.3610   -6.0149   19.2217 C.3     1  UNL1        0.0482
     29 C         -10.7355   -5.4322   19.0752 C.3     1  UNL1        0.1350
     30 O         -11.1100   -3.9943   19.2810 O.3     1  UNL1       -0.3825
     31 H         -10.9315   -8.1839   17.6474 H       1  UNL1        0.1237
     32 H         -10.3208   -3.4866   19.5268 H       1  UNL1        0.2104
     33 C         -16.6942   -8.5661   19.9488 C.3     1  UNL1        0.0021
     34 C         -16.3846   -7.5022   18.9377 C.3     1  UNL1        0.0241
@<TRIPOS>BOND
     1    33    34    1
     2    20    34    1
     3    20    21    1
     4    21    22   am
     5    22    23    2
     6    25    22    1
     7    25    26    1
     8    26    27    1
     9    27    28    1
    10    28    29    1
    11    29    30    1
    12    20     1    1
    13     1     2   ar
    14     2     3   ar
    15     3     4   ar
    16     4     7    1
    17     7     8   ar
    18     8     9   ar
    19     9    10   ar
    20    10    12    1
    21    12    13    1
    22    13    14    1
    23    14    15    1
    24    15    16    1
    25    16    17    1
    26    17    18    1
    27    18    19    1
    28    10    11   ar
    29     4     5   ar
    30     5     6   ar
    31    29    25    1
    32     6     1   ar
    33    11     7   ar
    34    19    14    1
    35    21    24    1
    36    26    31    1
    37    30    32    1
