@<TRIPOS>MOLECULE
*****
 18 20 0 0 0
SMALL
GASTEIGER

@<TRIPOS>ATOM
      1 C          -9.6914  -17.3964   22.4864 C.3     1  UNL1        0.0347
      2 C          -9.2061  -18.3435   23.5436 C.3     1  UNL1        0.0054
      3 C          -9.7542  -19.7381   23.6098 C.3     1  UNL1        0.0004
      4 C         -10.7876  -20.1857   22.6190 C.3     1  UNL1        0.0001
      5 C         -11.2729  -19.2387   21.5619 C.3     1  UNL1        0.0017
      6 C         -10.7247  -17.8440   21.4956 C.3     1  UNL1        0.0208
      7 C         -11.0095  -16.6965   20.5726 C.3     1  UNL1        0.0689
      8 N         -10.1522  -15.5396   20.9929 N.3     1  UNL1       -0.2972
      9 C          -9.3375  -15.9723   22.1757 C.3     1  UNL1        0.0726
     10 H         -10.7413  -14.7474   21.2494 H       1  UNL1        0.1233
     11 CL         -5.5653  -15.0505   26.1568 Cl      1  UNL1       -0.0814
     12 C          -6.5968  -15.6370   25.2392 C.ar    1  UNL1        0.0682
     13 C          -6.1977  -16.1311   23.8804 C.ar    1  UNL1        0.0119
     14 C          -7.2292  -16.7176   22.9628 C.ar    1  UNL1       -0.0033
     15 C          -8.6598  -16.8100   23.4041 C.ar    1  UNL1       -0.0206
     16 C          -9.0589  -16.3159   24.7629 C.ar    1  UNL1        0.0080
     17 C          -8.0274  -15.7294   25.6805 C.ar    1  UNL1        0.0679
     18 CL         -8.4265  -15.2353   27.0394 Cl      1  UNL1       -0.0814
@<TRIPOS>BOND
     1    11    12    1
     2    12    13   ar
     3    13    14   ar
     4    14    15   ar
     5     1    15    1
     6     1     2    1
     7     2     3    1
     8     3     4    1
     9     4     5    1
    10     6     5    1
    11     6     7    1
    12     7     8    1
    13     8     9    1
    14    15    16   ar
    15    16    17   ar
    16    17    18    1
    17    17    12   ar
    18     6     1    1
    19     9     1    1
    20     8    10    1
@<TRIPOS>MOLECULE
*****
 18 20 0 0 0
SMALL
GASTEIGER

@<TRIPOS>ATOM
      1 C          -9.7113  -17.3561   22.4113 C.3     1  UNL1        0.0347
      2 C          -9.2521  -18.2935   23.4885 C.3     1  UNL1        0.0054
      3 C          -9.7999  -19.6884   23.5525 C.3     1  UNL1        0.0004
      4 C         -10.8070  -20.1459   22.5394 C.3     1  UNL1        0.0001
      5 C         -11.2663  -19.2085   21.4622 C.3     1  UNL1        0.0017
      6 C         -10.7184  -17.8136   21.3982 C.3     1  UNL1        0.0208
      7 C         -10.9810  -16.6743   20.4585 C.3     1  UNL1        0.0689
      8 N         -10.1362  -15.5127   20.8908 N.3     1  UNL1       -0.2972
      9 C          -9.3515  -15.9341   22.0977 C.3     1  UNL1        0.0726
     10 H         -10.7326  -14.7192   21.1255 H       1  UNL1        0.1233
     11 CL         -5.6835  -14.9733   26.1661 Cl      1  UNL1       -0.0814
     12 C          -6.6905  -15.5690   25.2274 C.ar    1  UNL1        0.0682
     13 C          -8.1548  -15.4691   25.5365 C.ar    1  UNL1        0.0119
     14 C          -9.1618  -16.0648   24.5978 C.ar    1  UNL1       -0.0033
     15 C          -8.7044  -16.7604   23.3500 C.ar    1  UNL1       -0.0206
     16 C          -7.2399  -16.8603   23.0410 C.ar    1  UNL1        0.0080
     17 C          -6.2330  -16.2646   23.9797 C.ar    1  UNL1        0.0679
     18 CL         -4.7686  -16.3645   23.6707 Cl      1  UNL1       -0.0814
@<TRIPOS>BOND
     1    11    12    1
     2    12    13   ar
     3    13    14   ar
     4    14    15   ar
     5     1    15    1
     6     1     2    1
     7     2     3    1
     8     3     4    1
     9     4     5    1
    10     6     5    1
    11     6     7    1
    12     7     8    1
    13     8     9    1
    14    15    16   ar
    15    16    17   ar
    16    17    18    1
    17    17    12   ar
    18     6     1    1
    19     9     1    1
    20     8    10    1
@<TRIPOS>MOLECULE
*****
 18 20 0 0 0
SMALL
GASTEIGER

@<TRIPOS>ATOM
      1 C          -7.6148  -16.3090   24.8248 C.3     1  UNL1        0.0347
      2 C          -8.6517  -16.1431   25.8959 C.3     1  UNL1        0.0054
      3 C          -8.2829  -15.5109   27.2052 C.3     1  UNL1        0.0004
      4 C          -6.8772  -15.0447   27.4434 C.3     1  UNL1        0.0001
      5 C          -5.8403  -15.2107   26.3723 C.3     1  UNL1        0.0017
      6 C          -6.2091  -15.8428   25.0630 C.3     1  UNL1        0.0208
      7 C          -5.4079  -16.1370   23.8295 C.3     1  UNL1        0.0689
      8 N          -6.3184  -16.7850   22.8289 N.3     1  UNL1       -0.2972
      9 C          -7.6823  -16.8913   23.4441 C.3     1  UNL1        0.0726
     10 H          -5.9704  -17.7150   22.5957 H       1  UNL1        0.1233
     11 CL        -13.0454  -18.3564   23.3026 Cl      1  UNL1       -0.0814
     12 C         -11.6877  -17.8445   23.6832 C.ar    1  UNL1        0.0682
     13 C         -10.8352  -18.6211   24.6423 C.ar    1  UNL1        0.0119
     14 C          -9.4776  -18.1093   25.0229 C.ar    1  UNL1       -0.0033
     15 C          -8.9725  -16.8209   24.4443 C.ar    1  UNL1       -0.0206
     16 C          -9.8250  -16.0443   23.4851 C.ar    1  UNL1        0.0080
     17 C         -11.1826  -16.5561   23.1045 C.ar    1  UNL1        0.0679
     18 CL        -12.0352  -15.7796   22.1453 Cl      1  UNL1       -0.0814
@<TRIPOS>BOND
     1    11    12    1
     2    12    13   ar
     3    13    14   ar
     4    14    15   ar
     5     1    15    1
     6     1     2    1
     7     2     3    1
     8     3     4    1
     9     4     5    1
    10     6     5    1
    11     6     7    1
    12     7     8    1
    13     8     9    1
    14    15    16   ar
    15    16    17   ar
    16    17    18    1
    17    17    12   ar
    18     6     1    1
    19     9     1    1
    20     8    10    1
@<TRIPOS>MOLECULE
*****
 18 20 0 0 0
SMALL
GASTEIGER

@<TRIPOS>ATOM
      1 C         -10.1910  -17.8802   23.1029 C.3     1  UNL1        0.0347
      2 C         -10.3621  -16.3904   23.1353 C.3     1  UNL1        0.0054
      3 C         -11.5744  -15.7611   22.5153 C.3     1  UNL1        0.0004
      4 C         -12.6155  -16.6216   21.8630 C.3     1  UNL1        0.0001
      5 C         -12.4444  -18.1115   21.8306 C.3     1  UNL1        0.0017
      6 C         -11.2321  -18.7407   22.4506 C.3     1  UNL1        0.0208
      7 C         -10.7942  -20.1703   22.5716 C.3     1  UNL1        0.0689
      8 N          -9.4824  -20.1933   23.2988 N.3     1  UNL1       -0.2972
      9 C          -9.1097  -18.7779   23.6271 C.3     1  UNL1        0.0726
     10 H          -8.7654  -20.6115   22.7061 H       1  UNL1        0.1233
     11 CL         -5.7154  -14.9685   25.8398 Cl      1  UNL1       -0.0814
     12 C          -6.8343  -15.6964   25.1556 C.ar    1  UNL1        0.0682
     13 C          -6.7168  -16.0588   23.7048 C.ar    1  UNL1        0.0119
     14 C          -7.8357  -16.7867   23.0206 C.ar    1  UNL1       -0.0033
     15 C          -9.0721  -17.1523   23.7871 C.ar    1  UNL1       -0.0206
     16 C          -9.1896  -16.7899   25.2380 C.ar    1  UNL1        0.0080
     17 C          -8.0707  -16.0620   25.9221 C.ar    1  UNL1        0.0679
     18 CL         -8.1882  -15.6996   27.3730 Cl      1  UNL1       -0.0814
@<TRIPOS>BOND
     1    11    12    1
     2    12    13   ar
     3    13    14   ar
     4    14    15   ar
     5     1    15    1
     6     1     2    1
     7     2     3    1
     8     3     4    1
     9     4     5    1
    10     6     5    1
    11     6     7    1
    12     7     8    1
    13     8     9    1
    14    15    16   ar
    15    16    17   ar
    16    17    18    1
    17    17    12   ar
    18     6     1    1
    19     9     1    1
    20     8    10    1
@<TRIPOS>MOLECULE
*****
 18 20 0 0 0
SMALL
GASTEIGER

@<TRIPOS>ATOM
      1 C          -6.8992  -16.6259   23.4267 C.3     1  UNL1        0.0347
      2 C          -7.2381  -17.8553   22.6369 C.3     1  UNL1        0.0054
      3 C          -6.1483  -18.7854   22.1929 C.3     1  UNL1        0.0004
      4 C          -4.7197  -18.4862   22.5388 C.3     1  UNL1        0.0001
      5 C          -4.3809  -17.2569   23.3286 C.3     1  UNL1        0.0017
      6 C          -5.4707  -16.3268   23.7726 C.3     1  UNL1        0.0208
      7 C          -5.4416  -15.0485   24.5569 C.3     1  UNL1        0.0689
      8 N          -6.8522  -14.5577   24.6959 N.3     1  UNL1       -0.2972
      9 C          -7.7530  -15.5326   23.9973 C.3     1  UNL1        0.0726
     10 H          -6.9417  -13.6360   24.2682 H       1  UNL1        0.1233
     11 CL        -12.7636  -17.2948   22.3487 Cl      1  UNL1       -0.0814
     12 C         -11.2975  -17.1276   22.6182 C.ar    1  UNL1        0.0682
     13 C         -10.6972  -17.6870   23.8738 C.ar    1  UNL1        0.0119
     14 C          -9.2311  -17.5198   24.1434 C.ar    1  UNL1       -0.0033
     15 C          -8.3653  -16.7932   23.1572 C.ar    1  UNL1       -0.0206
     16 C          -8.9657  -16.2338   21.9016 C.ar    1  UNL1        0.0080
     17 C         -10.4317  -16.4010   21.6321 C.ar    1  UNL1        0.0679
     18 CL        -11.0321  -15.8416   20.3764 Cl      1  UNL1       -0.0814
@<TRIPOS>BOND
     1    11    12    1
     2    12    13   ar
     3    13    14   ar
     4    14    15   ar
     5     1    15    1
     6     1     2    1
     7     2     3    1
     8     3     4    1
     9     4     5    1
    10     6     5    1
    11     6     7    1
    12     7     8    1
    13     8     9    1
    14    15    16   ar
    15    16    17   ar
    16    17    18    1
    17    17    12   ar
    18     6     1    1
    19     9     1    1
    20     8    10    1
@<TRIPOS>MOLECULE
*****
 18 20 0 0 0
SMALL
GASTEIGER

@<TRIPOS>ATOM
      1 C          -9.0336  -18.2732   22.6578 C.3     1  UNL1        0.0347
      2 C          -8.6221  -19.6707   23.0149 C.3     1  UNL1        0.0054
      3 C          -9.4363  -20.4657   23.9921 C.3     1  UNL1        0.0004
      4 C         -10.6621  -19.8632   24.6121 C.3     1  UNL1        0.0001
      5 C         -11.0736  -18.4657   24.2550 C.3     1  UNL1        0.0017
      6 C         -10.2594  -17.6707   23.2779 C.3     1  UNL1        0.0208
      7 C         -10.4170  -16.2806   22.7368 C.3     1  UNL1        0.0689
      8 N          -9.2886  -16.0239   21.7824 N.3     1  UNL1       -0.2972
      9 C          -8.4337  -17.2554   21.7336 C.3     1  UNL1        0.0726
     10 H          -8.7350  -15.2307   22.1062 H       1  UNL1        0.1233
     11 CL         -4.0601  -20.1406   19.8691 Cl      1  UNL1       -0.0814
     12 C          -5.3035  -19.6737   20.5663 C.ar    1  UNL1        0.0682
     13 C          -6.6454  -19.8918   19.9326 C.ar    1  UNL1        0.0119
     14 C          -7.8888  -19.4249   20.6298 C.ar    1  UNL1       -0.0033
     15 C          -7.7902  -18.7400   21.9606 C.ar    1  UNL1       -0.0206
     16 C          -6.4482  -18.5220   22.5943 C.ar    1  UNL1        0.0080
     17 C          -5.2049  -18.9889   21.8972 C.ar    1  UNL1        0.0679
     18 CL         -3.8629  -18.7709   22.5308 Cl      1  UNL1       -0.0814
@<TRIPOS>BOND
     1    11    12    1
     2    12    13   ar
     3    13    14   ar
     4    14    15   ar
     5     1    15    1
     6     1     2    1
     7     2     3    1
     8     3     4    1
     9     4     5    1
    10     6     5    1
    11     6     7    1
    12     7     8    1
    13     8     9    1
    14    15    16   ar
    15    16    17   ar
    16    17    18    1
    17    17    12   ar
    18     6     1    1
    19     9     1    1
    20     8    10    1
@<TRIPOS>MOLECULE
*****
 18 20 0 0 0
SMALL
GASTEIGER

@<TRIPOS>ATOM
      1 C         -10.9013  -17.6863   22.3772 C.3     1  UNL1        0.0347
      2 C         -10.4211  -18.4950   23.5457 C.3     1  UNL1        0.0054
      3 C         -11.3901  -18.9330   24.6035 C.3     1  UNL1        0.0004
      4 C         -12.8394  -18.5625   24.4928 C.3     1  UNL1        0.0001
      5 C         -13.3197  -17.7538   23.3243 C.3     1  UNL1        0.0017
      6 C         -12.3506  -17.3157   22.2665 C.3     1  UNL1        0.0208
      7 C         -12.5300  -16.5166   21.0098 C.3     1  UNL1        0.0689
      8 N         -11.1917  -16.3933   20.3438 N.3     1  UNL1       -0.2972
      9 C         -10.1851  -17.1162   21.1889 C.3     1  UNL1        0.0726
     10 H         -10.9341  -15.4096   20.2640 H       1  UNL1        0.1233
     11 CL         -5.0180  -18.8595   22.2800 Cl      1  UNL1       -0.0814
     12 C          -6.4888  -18.5662   22.3043 C.ar    1  UNL1        0.0682
     13 C          -7.4550  -19.5234   21.6716 C.ar    1  UNL1        0.0119
     14 C          -8.9258  -19.2301   21.6959 C.ar    1  UNL1       -0.0033
     15 C          -9.4305  -17.9796   22.3529 C.ar    1  UNL1       -0.0206
     16 C          -8.4643  -17.0225   22.9856 C.ar    1  UNL1        0.0080
     17 C          -6.9935  -17.3158   22.9613 C.ar    1  UNL1        0.0679
     18 CL         -6.0273  -16.3587   23.5940 Cl      1  UNL1       -0.0814
@<TRIPOS>BOND
     1    11    12    1
     2    12    13   ar
     3    13    14   ar
     4    14    15   ar
     5     1    15    1
     6     1     2    1
     7     2     3    1
     8     3     4    1
     9     4     5    1
    10     6     5    1
    11     6     7    1
    12     7     8    1
    13     8     9    1
    14    15    16   ar
    15    16    17   ar
    16    17    18    1
    17    17    12   ar
    18     6     1    1
    19     9     1    1
    20     8    10    1
@<TRIPOS>MOLECULE
*****
 18 20 0 0 0
SMALL
GASTEIGER

@<TRIPOS>ATOM
      1 C          -8.6247  -19.5944   21.2334 C.3     1  UNL1        0.0347
      2 C          -8.0886  -19.9486   22.5888 C.3     1  UNL1        0.0054
      3 C          -9.0338  -20.2328   23.7183 C.3     1  UNL1        0.0004
      4 C         -10.5151  -20.1628   23.4924 C.3     1  UNL1        0.0001
      5 C         -11.0511  -19.8087   22.1370 C.3     1  UNL1        0.0017
      6 C         -10.1060  -19.5244   21.0075 C.3     1  UNL1        0.0208
      7 C         -10.3390  -19.1523   19.5732 C.3     1  UNL1        0.0689
      8 N          -9.0018  -18.9922   18.9126 N.3     1  UNL1       -0.2972
      9 C          -7.9424  -19.2655   19.9387 C.3     1  UNL1        0.0726
     10 H          -8.9028  -18.0412   18.5576 H       1  UNL1        0.1233
     11 CL         -2.6335  -19.7186   21.5321 Cl      1  UNL1       -0.0814
     12 C          -4.1313  -19.6875   21.4574 C.ar    1  UNL1        0.0682
     13 C          -4.8567  -20.6358   20.5494 C.ar    1  UNL1        0.0119
     14 C          -6.3545  -20.6047   20.4747 C.ar    1  UNL1       -0.0033
     15 C          -7.1269  -19.6254   21.3081 C.ar    1  UNL1       -0.0206
     16 C          -6.4014  -18.6772   22.2161 C.ar    1  UNL1        0.0080
     17 C          -4.9036  -18.7083   22.2908 C.ar    1  UNL1        0.0679
     18 CL         -4.1782  -17.7600   23.1988 Cl      1  UNL1       -0.0814
@<TRIPOS>BOND
     1    11    12    1
     2    12    13   ar
     3    13    14   ar
     4    14    15   ar
     5     1    15    1
     6     1     2    1
     7     2     3    1
     8     3     4    1
     9     4     5    1
    10     6     5    1
    11     6     7    1
    12     7     8    1
    13     8     9    1
    14    15    16   ar
    15    16    17   ar
    16    17    18    1
    17    17    12   ar
    18     6     1    1
    19     9     1    1
    20     8    10    1
@<TRIPOS>MOLECULE
*****
 18 20 0 0 0
SMALL
GASTEIGER

@<TRIPOS>ATOM
      1 C         -10.5211  -17.0790   22.6117 C.3     1  UNL1        0.0347
      2 C         -10.0869  -17.8111   23.8468 C.3     1  UNL1        0.0054
      3 C         -11.0967  -18.5481   24.6756 C.3     1  UNL1        0.0004
      4 C         -12.5407  -18.5530   24.2694 C.3     1  UNL1        0.0001
      5 C         -12.9748  -17.8208   23.0344 C.3     1  UNL1        0.0017
      6 C         -11.9650  -17.0838   22.2055 C.3     1  UNL1        0.0208
      7 C         -12.0951  -16.2786   20.9467 C.3     1  UNL1        0.0689
      8 N         -10.7316  -15.7760   20.5748 N.3     1  UNL1       -0.2972
      9 C          -9.7588  -16.2707   21.6039 C.3     1  UNL1        0.0726
     10 H         -10.7308  -14.7561   20.5598 H       1  UNL1        0.1233
     11 CL         -4.6380  -16.7049   23.7294 Cl      1  UNL1       -0.0814
     12 C          -6.1088  -16.7984   23.4500 C.ar    1  UNL1        0.0682
     13 C          -7.0476  -15.7797   24.0249 C.ar    1  UNL1        0.0119
     14 C          -8.5184  -15.8732   23.7455 C.ar    1  UNL1       -0.0033
     15 C          -9.0503  -16.9854   22.8911 C.ar    1  UNL1       -0.0206
     16 C          -8.1114  -18.0042   22.3162 C.ar    1  UNL1        0.0080
     17 C          -6.6407  -17.9107   22.5956 C.ar    1  UNL1        0.0679
     18 CL         -5.7017  -18.9294   22.0206 Cl      1  UNL1       -0.0814
@<TRIPOS>BOND
     1    11    12    1
     2    12    13   ar
     3    13    14   ar
     4    14    15   ar
     5     1    15    1
     6     1     2    1
     7     2     3    1
     8     3     4    1
     9     4     5    1
    10     6     5    1
    11     6     7    1
    12     7     8    1
    13     8     9    1
    14    15    16   ar
    15    16    17   ar
    16    17    18    1
    17    17    12   ar
    18     6     1    1
    19     9     1    1
    20     8    10    1
