@<TRIPOS>MOLECULE
*****
 31 33 0 0 0
SMALL
GASTEIGER

@<TRIPOS>ATOM
      1 C          -7.3126  -19.3624   22.4257 C.3     1  UNL1        0.1958
      2 C          -7.0641  -20.4778   21.4541 C.3     1  UNL1        0.1173
      3 C          -5.7208  -20.6186   20.8015 C.2     1  UNL1        0.1800
      4 O          -5.4723  -21.7340   19.8298 O.2     1  UNL1       -0.2911
      5 C          -4.6261  -19.6440   21.1206 C.ar    1  UNL1        0.0687
      6 C          -3.2829  -19.7848   20.4679 C.ar    1  UNL1        0.0090
      7 C          -2.1881  -18.8102   20.7870 C.ar    1  UNL1        0.0366
      8 C          -2.4367  -17.6948   21.7587 C.ar    1  UNL1        0.1329
      9 O          -1.3420  -16.7202   22.0778 O.3     1  UNL1       -0.5057
     10 C          -3.7799  -17.5540   22.4113 C.ar    1  UNL1        0.0498
     11 C          -4.8746  -18.5286   22.0922 C.ar    1  UNL1        0.1407
     12 O          -6.2179  -18.3878   22.7448 O.3     1  UNL1       -0.4744
     13 H          -0.5029  -16.8082   21.6702 H       1  UNL1        0.2922
     14 C         -10.7947  -17.8227   23.5457 C.ar    1  UNL1        0.0157
     15 C          -9.4515  -17.9636   22.8931 C.ar    1  UNL1       -0.0018
     16 C          -8.6558  -19.2216   23.0784 C.ar    1  UNL1        0.0175
     17 C          -9.2034  -20.3388   23.9162 C.ar    1  UNL1        0.0023
     18 C         -10.5466  -20.1980   24.5688 C.ar    1  UNL1        0.0361
     19 C         -11.3423  -18.9399   24.3836 C.ar    1  UNL1        0.1299
     20 O         -12.6855  -18.7991   25.0362 O.3     1  UNL1       -0.5058
     21 H         -13.0275  -19.4970   25.5596 H       1  UNL1        0.2922
     22 C         -11.5904  -16.5647   23.3605 C.3     1  UNL1        0.0547
     23 C         -11.8825  -15.8087   19.4755 C.3     1  UNL1        0.0260
     24 C         -11.9287  -16.5394   20.7847 C.2     1  UNL1       -0.0475
     25 C         -12.3594  -17.9757   20.8271 C.3     1  UNL1        0.0260
     26 C         -11.5442  -15.8340   22.0513 C.2     1  UNL1       -0.0298
     27 C          -4.0284  -16.4387   23.3830 C.3     1  UNL1        0.0578
     28 C          -5.3661  -15.7610   23.4208 C.2     1  UNL1       -0.0297
     29 C          -6.0030  -15.4315   24.7383 C.2     1  UNL1       -0.0475
     30 C          -7.3406  -14.7539   24.7761 C.3     1  UNL1        0.0260
     31 C          -5.3022  -15.7797   26.0180 C.3     1  UNL1        0.0260
@<TRIPOS>BOND
     1    23    24    1
     2    24    25    1
     3    24    26    2
     4    26    22    1
     5    22    14    1
     6    14    15   ar
     7    15    16   ar
     8    16     1    1
     9     1     2    1
    10     2     3    1
    11     3     4    2
    12     3     5    1
    13     5     6   ar
    14     6     7   ar
    15     7     8   ar
    16     8     9    1
    17     8    10   ar
    18    10    27    1
    19    27    28    1
    20    28    29    2
    21    29    30    1
    22    29    31    1
    23    10    11   ar
    24    11    12    1
    25    16    17   ar
    26    17    18   ar
    27    18    19   ar
    28    19    20    1
    29    19    14   ar
    30    12     1    1
    31    11     5   ar
    32     9    13    1
    33    20    21    1
@<TRIPOS>MOLECULE
*****
 31 33 0 0 0
SMALL
GASTEIGER

@<TRIPOS>ATOM
      1 C          -7.4105  -19.0907   20.6508 C.3     1  UNL1        0.1958
      2 C          -8.1479  -19.8023   19.5555 C.3     1  UNL1        0.1173
      3 C          -9.6142  -19.5569   19.3562 C.2     1  UNL1        0.1800
      4 O         -10.3517  -20.2684   18.2608 O.2     1  UNL1       -0.2911
      5 C         -10.3430  -18.5998   20.2522 C.ar    1  UNL1        0.0687
      6 C         -11.8094  -18.3544   20.0528 C.ar    1  UNL1        0.0090
      7 C         -12.5383  -17.3974   20.9489 C.ar    1  UNL1        0.0366
      8 C         -11.8008  -16.6858   22.0443 C.ar    1  UNL1        0.1329
      9 O         -12.5297  -15.7288   22.9403 O.3     1  UNL1       -0.5057
     10 C         -10.3345  -16.9313   22.2436 C.ar    1  UNL1        0.0498
     11 C          -9.6056  -17.8883   21.3476 C.ar    1  UNL1        0.1407
     12 O          -8.1394  -18.1337   21.5469 O.3     1  UNL1       -0.4744
     13 H         -13.4456  -15.5755   22.8158 H       1  UNL1        0.2922
     14 C          -3.7074  -18.7586   22.0391 C.ar    1  UNL1        0.0157
     15 C          -5.1737  -18.5132   21.8397 C.ar    1  UNL1       -0.0018
     16 C          -5.9442  -19.3361   20.8502 C.ar    1  UNL1        0.0175
     17 C          -5.2483  -20.4045   20.0601 C.ar    1  UNL1        0.0023
     18 C          -3.7821  -20.6500   20.2594 C.ar    1  UNL1        0.0361
     19 C          -3.0115  -19.8270   21.2489 C.ar    1  UNL1        0.1299
     20 O          -1.5453  -20.0724   21.4482 O.3     1  UNL1       -0.5058
     21 H          -1.1106  -20.7398   20.9546 H       1  UNL1        0.2922
     22 C          -2.9369  -17.9356   23.0285 C.3     1  UNL1        0.0547
     23 C          -4.9196  -16.2595   26.0302 C.3     1  UNL1        0.0260
     24 C          -4.3619  -16.4995   24.6585 C.2     1  UNL1       -0.0475
     25 C          -4.6715  -15.5430   23.5452 C.3     1  UNL1        0.0260
     26 C          -3.4946  -17.6957   24.4002 C.2     1  UNL1       -0.0298
     27 C          -9.5971  -16.2197   23.3390 C.3     1  UNL1        0.0578
     28 C          -9.4765  -16.8504   24.6946 C.2     1  UNL1       -0.0297
     29 C          -8.6083  -16.2178   25.7415 C.2     1  UNL1       -0.0475
     30 C          -8.4877  -16.8485   27.0971 C.3     1  UNL1        0.0260
     31 C          -7.8607  -14.9546   25.4329 C.3     1  UNL1        0.0260
@<TRIPOS>BOND
     1    23    24    1
     2    24    25    1
     3    24    26    2
     4    26    22    1
     5    22    14    1
     6    14    15   ar
     7    15    16   ar
     8    16     1    1
     9     1     2    1
    10     2     3    1
    11     3     4    2
    12     3     5    1
    13     5     6   ar
    14     6     7   ar
    15     7     8   ar
    16     8     9    1
    17     8    10   ar
    18    10    27    1
    19    27    28    1
    20    28    29    2
    21    29    30    1
    22    29    31    1
    23    10    11   ar
    24    11    12    1
    25    16    17   ar
    26    17    18   ar
    27    18    19   ar
    28    19    20    1
    29    19    14   ar
    30    12     1    1
    31    11     5   ar
    32     9    13    1
    33    20    21    1
@<TRIPOS>MOLECULE
*****
 31 33 0 0 0
SMALL
GASTEIGER

@<TRIPOS>ATOM
      1 C          -7.4567  -19.0246   20.6510 C.3     1  UNL1        0.1958
      2 C          -8.3304  -19.7015   19.6368 C.3     1  UNL1        0.1173
      3 C          -9.7789  -19.3279   19.5261 C.2     1  UNL1        0.1800
      4 O         -10.6526  -20.0047   18.5119 O.2     1  UNL1       -0.2911
      5 C         -10.3537  -18.2775   20.4296 C.ar    1  UNL1        0.0687
      6 C         -11.8022  -17.9039   20.3189 C.ar    1  UNL1        0.0090
      7 C         -12.3770  -16.8535   21.2223 C.ar    1  UNL1        0.0366
      8 C         -11.5033  -16.1767   22.2365 C.ar    1  UNL1        0.1329
      9 O         -12.0781  -15.1263   23.1400 O.3     1  UNL1       -0.5057
     10 C         -10.0548  -16.5503   22.3472 C.ar    1  UNL1        0.0498
     11 C          -9.4800  -17.6007   21.4438 C.ar    1  UNL1        0.1407
     12 O          -8.0315  -17.9743   21.5545 O.3     1  UNL1       -0.4744
     13 H         -12.9829  -14.8929   23.0709 H       1  UNL1        0.2922
     14 C          -3.6128  -18.8879   21.6289 C.ar    1  UNL1        0.0157
     15 C          -5.0614  -18.5143   21.5182 C.ar    1  UNL1       -0.0018
     16 C          -6.0081  -19.3982   20.7617 C.ar    1  UNL1        0.0175
     17 C          -5.5064  -20.6557   20.1159 C.ar    1  UNL1        0.0023
     18 C          -4.0580  -21.0293   20.2266 C.ar    1  UNL1        0.0361
     19 C          -3.1111  -20.1454   20.9831 C.ar    1  UNL1        0.1299
     20 O          -1.6626  -20.5190   21.0938 O.3     1  UNL1       -0.5058
     21 H          -1.3493  -21.3045   20.6905 H       1  UNL1        0.2922
     22 C          -2.6660  -18.0040   22.3854 C.3     1  UNL1        0.0547
     23 C           0.3387  -17.0976   19.9564 C.3     1  UNL1        0.0260
     24 C          -1.0547  -17.3151   20.4673 C.2     1  UNL1       -0.0475
     25 C          -2.2304  -17.0610   19.5709 C.3     1  UNL1        0.0260
     26 C          -1.2726  -17.7866   21.8745 C.2     1  UNL1       -0.0298
     27 C          -9.1811  -15.8735   23.3614 C.3     1  UNL1        0.0578
     28 C          -9.2609  -16.2720   24.8053 C.2     1  UNL1       -0.0297
     29 C          -8.1266  -15.9553   25.7345 C.2     1  UNL1       -0.0475
     30 C          -8.2063  -16.3538   27.1784 C.3     1  UNL1        0.0260
     31 C          -6.9127  -15.2403   25.2197 C.3     1  UNL1        0.0260
@<TRIPOS>BOND
     1    23    24    1
     2    24    25    1
     3    24    26    2
     4    26    22    1
     5    22    14    1
     6    14    15   ar
     7    15    16   ar
     8    16     1    1
     9     1     2    1
    10     2     3    1
    11     3     4    2
    12     3     5    1
    13     5     6   ar
    14     6     7   ar
    15     7     8   ar
    16     8     9    1
    17     8    10   ar
    18    10    27    1
    19    27    28    1
    20    28    29    2
    21    29    30    1
    22    29    31    1
    23    10    11   ar
    24    11    12    1
    25    16    17   ar
    26    17    18   ar
    27    18    19   ar
    28    19    20    1
    29    19    14   ar
    30    12     1    1
    31    11     5   ar
    32     9    13    1
    33    20    21    1
@<TRIPOS>MOLECULE
*****
 31 33 0 0 0
SMALL
GASTEIGER

@<TRIPOS>ATOM
      1 C          -4.8154  -16.7154   23.3685 C.3     1  UNL1        0.1958
      2 C          -3.5621  -15.9428   23.0817 C.3     1  UNL1        0.1173
      3 C          -2.6045  -16.4289   22.0345 C.2     1  UNL1        0.1800
      4 O          -1.3512  -15.6563   21.7476 O.2     1  UNL1       -0.2911
      5 C          -2.9002  -17.6876   21.2742 C.ar    1  UNL1        0.0687
      6 C          -1.9426  -18.1738   20.2269 C.ar    1  UNL1        0.0090
      7 C          -2.2382  -19.4325   19.4666 C.ar    1  UNL1        0.0366
      8 C          -3.4916  -20.2051   19.7534 C.ar    1  UNL1        0.1329
      9 O          -3.7873  -21.4639   18.9931 O.3     1  UNL1       -0.5057
     10 C          -4.4492  -19.7190   20.8006 C.ar    1  UNL1        0.0498
     11 C          -4.1535  -18.4603   21.5610 C.ar    1  UNL1        0.1407
     12 O          -5.1111  -17.9741   22.6082 O.3     1  UNL1       -0.4744
     13 H          -3.1891  -21.7675   18.3389 H       1  UNL1        0.2922
     14 C          -8.2088  -15.8078   25.2157 C.ar    1  UNL1        0.0157
     15 C          -7.2511  -16.2939   24.1684 C.ar    1  UNL1       -0.0018
     16 C          -5.7731  -16.2293   24.4158 C.ar    1  UNL1        0.0175
     17 C          -5.2526  -15.6785   25.7103 C.ar    1  UNL1        0.0023
     18 C          -6.2102  -15.1924   26.7575 C.ar    1  UNL1        0.0361
     19 C          -7.6883  -15.2571   26.5102 C.ar    1  UNL1        0.1299
     20 O          -8.6459  -14.7710   27.5574 O.3     1  UNL1       -0.5058
     21 H          -8.3208  -14.4269   28.3661 H       1  UNL1        0.2922
     22 C          -9.6868  -15.8725   24.9684 C.3     1  UNL1        0.0547
     23 C         -11.4183  -17.9539   22.0667 C.3     1  UNL1        0.0260
     24 C         -10.9006  -17.5705   23.4214 C.2     1  UNL1       -0.0475
     25 C         -11.0790  -18.5019   24.5836 C.3     1  UNL1        0.0260
     26 C         -10.2045  -16.2559   23.6137 C.2     1  UNL1       -0.0298
     27 C          -5.7024  -20.4916   21.0875 C.3     1  UNL1        0.0578
     28 C          -6.8229  -20.5004   20.0903 C.2     1  UNL1       -0.0297
     29 C          -7.9695  -19.5451   20.2421 C.2     1  UNL1       -0.0475
     30 C          -9.0900  -19.5539   19.2449 C.3     1  UNL1        0.0260
     31 C          -7.9955  -18.5812   21.3910 C.3     1  UNL1        0.0260
@<TRIPOS>BOND
     1    23    24    1
     2    24    25    1
     3    24    26    2
     4    26    22    1
     5    22    14    1
     6    14    15   ar
     7    15    16   ar
     8    16     1    1
     9     1     2    1
    10     2     3    1
    11     3     4    2
    12     3     5    1
    13     5     6   ar
    14     6     7   ar
    15     7     8   ar
    16     8     9    1
    17     8    10   ar
    18    10    27    1
    19    27    28    1
    20    28    29    2
    21    29    30    1
    22    29    31    1
    23    10    11   ar
    24    11    12    1
    25    16    17   ar
    26    17    18   ar
    27    18    19   ar
    28    19    20    1
    29    19    14   ar
    30    12     1    1
    31    11     5   ar
    32     9    13    1
    33    20    21    1
@<TRIPOS>MOLECULE
*****
 31 33 0 0 0
SMALL
GASTEIGER

@<TRIPOS>ATOM
      1 C          -7.3995  -18.6468   21.2878 C.3     1  UNL1        0.1958
      2 C          -7.5234  -19.8863   20.4521 C.3     1  UNL1        0.1173
      3 C          -6.2922  -20.6288   20.0248 C.2     1  UNL1        0.1800
      4 O          -6.4160  -21.8683   19.1891 O.2     1  UNL1       -0.2911
      5 C          -4.9370  -20.1318   20.4331 C.ar    1  UNL1        0.0687
      6 C          -3.7058  -20.8744   20.0057 C.ar    1  UNL1        0.0090
      7 C          -2.3506  -20.3775   20.4140 C.ar    1  UNL1        0.0366
      8 C          -2.2268  -19.1379   21.2496 C.ar    1  UNL1        0.1329
      9 O          -0.8717  -18.6410   21.6579 O.3     1  UNL1       -0.5057
     10 C          -3.4580  -18.3954   21.6770 C.ar    1  UNL1        0.0498
     11 C          -4.8132  -18.8924   21.2687 C.ar    1  UNL1        0.1407
     12 O          -6.0444  -18.1499   21.6961 O.3     1  UNL1       -0.4744
     13 H          -0.1026  -19.1048   21.3910 H       1  UNL1        0.2922
     14 C          -9.9098  -16.5002   23.4880 C.ar    1  UNL1        0.0157
     15 C          -8.6785  -17.2427   23.0606 C.ar    1  UNL1       -0.0018
     16 C          -8.6308  -17.9042   21.7152 C.ar    1  UNL1        0.0175
     17 C          -9.8143  -17.8232   20.7971 C.ar    1  UNL1        0.0023
     18 C         -11.0455  -17.0807   21.2245 C.ar    1  UNL1        0.0361
     19 C         -11.0933  -16.4191   22.5699 C.ar    1  UNL1        0.1299
     20 O         -12.3245  -15.6766   22.9973 O.3     1  UNL1       -0.5058
     21 H         -13.0638  -15.6260   22.4238 H       1  UNL1        0.2922
     22 C          -9.9576  -15.8387   24.8334 C.3     1  UNL1        0.0547
     23 C          -6.9073  -15.0419   27.2440 C.3     1  UNL1        0.0260
     24 C          -8.1385  -15.6890   26.6822 C.2     1  UNL1       -0.0475
     25 C          -8.7817  -16.8336   27.4078 C.3     1  UNL1        0.0260
     26 C          -8.7264  -15.1916   25.3951 C.2     1  UNL1       -0.0298
     27 C          -3.3342  -17.1560   22.5126 C.3     1  UNL1        0.0578
     28 C          -3.5379  -17.2287   23.9969 C.2     1  UNL1       -0.0297
     29 C          -4.5643  -16.3561   24.6567 C.2     1  UNL1       -0.0475
     30 C          -4.7681  -16.4288   26.1410 C.3     1  UNL1        0.0260
     31 C          -5.3869  -15.4109   23.8322 C.3     1  UNL1        0.0260
@<TRIPOS>BOND
     1    23    24    1
     2    24    25    1
     3    24    26    2
     4    26    22    1
     5    22    14    1
     6    14    15   ar
     7    15    16   ar
     8    16     1    1
     9     1     2    1
    10     2     3    1
    11     3     4    2
    12     3     5    1
    13     5     6   ar
    14     6     7   ar
    15     7     8   ar
    16     8     9    1
    17     8    10   ar
    18    10    27    1
    19    27    28    1
    20    28    29    2
    21    29    30    1
    22    29    31    1
    23    10    11   ar
    24    11    12    1
    25    16    17   ar
    26    17    18   ar
    27    18    19   ar
    28    19    20    1
    29    19    14   ar
    30    12     1    1
    31    11     5   ar
    32     9    13    1
    33    20    21    1
@<TRIPOS>MOLECULE
*****
 31 33 0 0 0
SMALL
GASTEIGER

@<TRIPOS>ATOM
      1 C          -6.9765  -19.1384   20.9264 C.3     1  UNL1        0.1958
      2 C          -6.3835  -20.1106   19.9502 C.3     1  UNL1        0.1173
      3 C          -4.9055  -20.3665   19.9505 C.2     1  UNL1        0.1800
      4 O          -4.3125  -21.3388   18.9742 O.2     1  UNL1       -0.2911
      5 C          -4.0206  -19.6502   20.9271 C.ar    1  UNL1        0.0687
      6 C          -2.5425  -19.9061   20.9274 C.ar    1  UNL1        0.0090
      7 C          -1.6575  -19.1898   21.9039 C.ar    1  UNL1        0.0366
      8 C          -2.2506  -18.2175   22.8802 C.ar    1  UNL1        0.1329
      9 O          -1.3656  -17.5012   23.8568 O.3     1  UNL1       -0.5057
     10 C          -3.7286  -17.9616   22.8799 C.ar    1  UNL1        0.0498
     11 C          -4.6136  -18.6779   21.9033 C.ar    1  UNL1        0.1407
     12 O          -6.0915  -18.4220   21.9030 O.3     1  UNL1       -0.4744
     13 H          -0.4424  -17.6610   23.8570 H       1  UNL1        0.2922
     14 C         -10.5815  -17.9766   22.1117 C.ar    1  UNL1        0.0157
     15 C          -9.1034  -18.2325   22.1120 C.ar    1  UNL1       -0.0018
     16 C          -8.4546  -18.8824   20.9261 C.ar    1  UNL1        0.0175
     17 C          -9.2837  -19.2764   19.7398 C.ar    1  UNL1        0.0023
     18 C         -10.7617  -19.0205   19.7394 C.ar    1  UNL1        0.0361
     19 C         -11.4106  -18.3706   20.9254 C.ar    1  UNL1        0.1299
     20 O         -12.8886  -18.1147   20.9251 O.3     1  UNL1       -0.5058
     21 H         -13.4065  -18.3608   20.1840 H       1  UNL1        0.2922
     22 C         -11.2304  -17.3267   23.2977 C.3     1  UNL1        0.0547
     23 C          -9.0062  -17.4039   26.5836 C.3     1  UNL1        0.0260
     24 C          -9.8450  -17.8650   25.4287 C.2     1  UNL1       -0.0475
     25 C         -10.1374  -19.3253   25.2499 C.3     1  UNL1        0.0260
     26 C         -10.3915  -16.8657   24.4526 C.2     1  UNL1       -0.0298
     27 C          -4.3216  -16.9894   23.8561 C.3     1  UNL1        0.0578
     28 C          -5.5964  -16.2735   23.5211 C.2     1  UNL1       -0.0297
     29 C          -6.3311  -15.5125   24.5848 C.2     1  UNL1       -0.0475
     30 C          -7.6059  -14.7966   24.2498 C.3     1  UNL1        0.0260
     31 C          -5.7909  -15.4675   25.9834 C.3     1  UNL1        0.0260
@<TRIPOS>BOND
     1    23    24    1
     2    24    25    1
     3    24    26    2
     4    26    22    1
     5    22    14    1
     6    14    15   ar
     7    15    16   ar
     8    16     1    1
     9     1     2    1
    10     2     3    1
    11     3     4    2
    12     3     5    1
    13     5     6   ar
    14     6     7   ar
    15     7     8   ar
    16     8     9    1
    17     8    10   ar
    18    10    27    1
    19    27    28    1
    20    28    29    2
    21    29    30    1
    22    29    31    1
    23    10    11   ar
    24    11    12    1
    25    16    17   ar
    26    17    18   ar
    27    18    19   ar
    28    19    20    1
    29    19    14   ar
    30    12     1    1
    31    11     5   ar
    32     9    13    1
    33    20    21    1
@<TRIPOS>MOLECULE
*****
 31 33 0 0 0
SMALL
GASTEIGER

@<TRIPOS>ATOM
      1 C          -2.6445    3.3076   25.6848 C.3     1  UNL1        0.1958
      2 C          -3.1304    4.1560   26.8224 C.3     1  UNL1        0.1173
      3 C          -4.4170    4.9165   26.6945 C.2     1  UNL1        0.1800
      4 O          -4.9030    5.7649   27.8321 O.2     1  UNL1       -0.2911
      5 C          -5.2177    4.8285   25.4292 C.ar    1  UNL1        0.0687
      6 C          -6.5043    5.5890   25.3014 C.ar    1  UNL1        0.0090
      7 C          -7.3050    5.5010   24.0360 C.ar    1  UNL1        0.0366
      8 C          -6.8190    4.6525   22.8984 C.ar    1  UNL1        0.1329
      9 O          -7.6197    4.5646   21.6330 O.3     1  UNL1       -0.5057
     10 C          -5.5324    3.8921   23.0262 C.ar    1  UNL1        0.0498
     11 C          -4.7317    3.9801   24.2916 C.ar    1  UNL1        0.1407
     12 O          -3.4452    3.2196   24.4195 O.3     1  UNL1       -0.4744
     13 H          -8.4234    5.0396   21.5532 H       1  UNL1        0.2922
     14 C           0.7938    1.5680   24.7346 C.ar    1  UNL1        0.0157
     15 C          -0.4929    2.3285   24.6068 C.ar    1  UNL1       -0.0018
     16 C          -1.3578    2.5471   25.8126 C.ar    1  UNL1        0.0175
     17 C          -0.9362    2.0053   27.1463 C.ar    1  UNL1        0.0023
     18 C           0.3504    1.2448   27.2741 C.ar    1  UNL1        0.0361
     19 C           1.2154    1.0262   26.0683 C.ar    1  UNL1        0.1299
     20 O           2.5020    0.2657   26.1961 O.3     1  UNL1       -0.5058
     21 H           2.7653   -0.0728   27.0292 H       1  UNL1        0.2922
     22 C           1.6587    1.3494   23.5288 C.3     1  UNL1        0.0547
     23 C           0.9931   -0.3583   20.0088 C.3     1  UNL1        0.0260
     24 C           1.6200   -0.0399   21.3338 C.2     1  UNL1       -0.0475
     25 C           2.8353   -0.7924   21.7886 C.3     1  UNL1        0.0260
     26 C           1.0318    1.0310   22.2039 C.2     1  UNL1       -0.0298
     27 C          -5.0465    3.0437   21.8887 C.3     1  UNL1        0.0578
     28 C          -4.1159    3.6233   20.8649 C.2     1  UNL1       -0.0297
     29 C          -4.5444    3.7185   19.4305 C.2     1  UNL1       -0.0475
     30 C          -3.6138    4.2981   18.4067 C.3     1  UNL1        0.0260
     31 C          -5.9033    3.2340   19.0199 C.3     1  UNL1        0.0260
@<TRIPOS>BOND
     1    23    24    1
     2    24    25    1
     3    24    26    2
     4    26    22    1
     5    22    14    1
     6    14    15   ar
     7    15    16   ar
     8    16     1    1
     9     1     2    1
    10     2     3    1
    11     3     4    2
    12     3     5    1
    13     5     6   ar
    14     6     7   ar
    15     7     8   ar
    16     8     9    1
    17     8    10   ar
    18    10    27    1
    19    27    28    1
    20    28    29    2
    21    29    30    1
    22    29    31    1
    23    10    11   ar
    24    11    12    1
    25    16    17   ar
    26    17    18   ar
    27    18    19   ar
    28    19    20    1
    29    19    14   ar
    30    12     1    1
    31    11     5   ar
    32     9    13    1
    33    20    21    1
@<TRIPOS>MOLECULE
*****
 31 33 0 0 0
SMALL
GASTEIGER

@<TRIPOS>ATOM
      1 C           3.8477   -1.0830   24.6964 C.3     1  UNL1        0.1958
      2 C           5.0810   -1.9340   24.6283 C.3     1  UNL1        0.1173
      3 C           5.8083   -2.3025   25.8873 C.2     1  UNL1        0.1800
      4 O           7.0417   -3.1536   25.8193 O.2     1  UNL1       -0.2911
      5 C           5.3024   -1.8199   27.2144 C.ar    1  UNL1        0.0687
      6 C           6.0298   -2.1884   28.4735 C.ar    1  UNL1        0.0090
      7 C           5.5238   -1.7059   29.8005 C.ar    1  UNL1        0.0366
      8 C           4.2905   -0.8548   29.8686 C.ar    1  UNL1        0.1329
      9 O           3.7845   -0.3722   31.1956 O.3     1  UNL1       -0.5057
     10 C           3.5631   -0.4863   28.6096 C.ar    1  UNL1        0.0498
     11 C           4.0691   -0.9689   27.2825 C.ar    1  UNL1        0.1407
     12 O           3.3417   -0.6004   26.0235 O.3     1  UNL1       -0.4744
     13 H           4.2389   -0.6024   31.9821 H       1  UNL1        0.2922
     14 C           2.7513   -1.0117   20.8828 C.ar    1  UNL1        0.0157
     15 C           3.4787   -1.3802   22.1419 C.ar    1  UNL1       -0.0018
     16 C           3.1203   -0.7145   23.4373 C.ar    1  UNL1        0.0175
     17 C           2.0344    0.3197   23.4738 C.ar    1  UNL1        0.0023
     18 C           1.3070    0.6882   22.2149 C.ar    1  UNL1        0.0361
     19 C           1.6654    0.0225   20.9193 C.ar    1  UNL1        0.1299
     20 O           0.9380    0.3910   19.6604 O.3     1  UNL1       -0.5058
     21 H           0.2598    1.0371   19.6832 H       1  UNL1        0.2922
     22 C           3.1097   -1.6774   19.5873 C.3     1  UNL1        0.0547
     23 C           4.6439   -5.2490   18.7873 C.3     1  UNL1        0.0260
     24 C           4.4736   -3.7597   18.8433 C.2     1  UNL1       -0.0475
     25 C           5.4971   -2.8636   18.2112 C.3     1  UNL1        0.0260
     26 C           3.2800   -3.1667   19.5313 C.2     1  UNL1       -0.0298
     27 C           2.3298    0.3647   28.6776 C.3     1  UNL1        0.0578
     28 C           1.0349   -0.2276   29.1491 C.2     1  UNL1       -0.0297
     29 C          -0.2478    0.1259   28.4564 C.2     1  UNL1       -0.0475
     30 C          -1.5427   -0.4665   28.9278 C.3     1  UNL1        0.0260
     31 C          -0.2355    1.0717   27.2923 C.3     1  UNL1        0.0260
@<TRIPOS>BOND
     1    23    24    1
     2    24    25    1
     3    24    26    2
     4    26    22    1
     5    22    14    1
     6    14    15   ar
     7    15    16   ar
     8    16     1    1
     9     1     2    1
    10     2     3    1
    11     3     4    2
    12     3     5    1
    13     5     6   ar
    14     6     7   ar
    15     7     8   ar
    16     8     9    1
    17     8    10   ar
    18    10    27    1
    19    27    28    1
    20    28    29    2
    21    29    30    1
    22    29    31    1
    23    10    11   ar
    24    11    12    1
    25    16    17   ar
    26    17    18   ar
    27    18    19   ar
    28    19    20    1
    29    19    14   ar
    30    12     1    1
    31    11     5   ar
    32     9    13    1
    33    20    21    1
@<TRIPOS>MOLECULE
*****
 31 33 0 0 0
SMALL
GASTEIGER

@<TRIPOS>ATOM
      1 C           2.5846   -0.1671   22.8890 C.3     1  UNL1        0.1958
      2 C           3.3622   -0.9878   23.8747 C.3     1  UNL1        0.1173
      3 C           4.3447   -2.0116   23.3884 C.2     1  UNL1        0.1800
      4 O           5.1224   -2.8324   24.3741 O.2     1  UNL1       -0.2911
      5 C           4.5495   -2.2147   21.9164 C.ar    1  UNL1        0.0687
      6 C           5.5320   -3.2386   21.4301 C.ar    1  UNL1        0.0090
      7 C           5.7368   -3.4417   19.9581 C.ar    1  UNL1        0.0366
      8 C           4.9591   -2.6209   18.9724 C.ar    1  UNL1        0.1329
      9 O           5.1639   -2.8240   17.5004 O.3     1  UNL1       -0.5057
     10 C           3.9767   -1.5971   19.4587 C.ar    1  UNL1        0.0498
     11 C           3.7718   -1.3940   20.9307 C.ar    1  UNL1        0.1407
     12 O           2.7894   -0.3702   21.4170 O.3     1  UNL1       -0.4744
     13 H           5.7777   -3.4636   17.1966 H       1  UNL1        0.2922
     14 C           0.3852    2.0559   25.3327 C.ar    1  UNL1        0.0157
     15 C           1.3677    1.0320   24.8464 C.ar    1  UNL1       -0.0018
     16 C           1.6021    0.8568   23.3752 C.ar    1  UNL1        0.0175
     17 C           0.8539    1.7054   22.3903 C.ar    1  UNL1        0.0023
     18 C          -0.1285    2.7293   22.8765 C.ar    1  UNL1        0.0361
     19 C          -0.3629    2.9045   24.3477 C.ar    1  UNL1        0.1299
     20 O          -1.3454    3.9284   24.8339 O.3     1  UNL1       -0.5058
     21 H          -1.8127    4.4585   24.2187 H       1  UNL1        0.2922
     22 C           0.1509    2.2311   26.8038 C.3     1  UNL1        0.0547
     23 C          -1.6597   -0.4388   29.1154 C.3     1  UNL1        0.0260
     24 C          -0.5762    0.3403   28.4305 C.2     1  UNL1       -0.0475
     25 C           0.8637    0.0076   28.6874 C.3     1  UNL1        0.0260
     26 C          -0.9326    1.4521   27.4887 C.2     1  UNL1       -0.0298
     27 C           3.1990   -0.7764   18.4730 C.3     1  UNL1        0.0578
     28 C           3.4529    0.6976   18.3586 C.2     1  UNL1       -0.0297
     29 C           2.3164    1.6671   18.4950 C.2     1  UNL1       -0.0475
     30 C           2.5702    3.1410   18.3807 C.3     1  UNL1        0.0260
     31 C           0.9262    1.1627   18.7458 C.3     1  UNL1        0.0260
@<TRIPOS>BOND
     1    23    24    1
     2    24    25    1
     3    24    26    2
     4    26    22    1
     5    22    14    1
     6    14    15   ar
     7    15    16   ar
     8    16     1    1
     9     1     2    1
    10     2     3    1
    11     3     4    2
    12     3     5    1
    13     5     6   ar
    14     6     7   ar
    15     7     8   ar
    16     8     9    1
    17     8    10   ar
    18    10    27    1
    19    27    28    1
    20    28    29    2
    21    29    30    1
    22    29    31    1
    23    10    11   ar
    24    11    12    1
    25    16    17   ar
    26    17    18   ar
    27    18    19   ar
    28    19    20    1
    29    19    14   ar
    30    12     1    1
    31    11     5   ar
    32     9    13    1
    33    20    21    1
