@<TRIPOS>MOLECULE
*****
 33 36 0 0 0
SMALL
GASTEIGER

@<TRIPOS>ATOM
      1 O          -6.0425  -19.5867   19.0270 O.2     1  UNL1       -0.2522
      2 C          -6.5495  -19.0523   20.3337 C.2     1  UNL1        0.3077
      3 N          -5.5911  -18.4619   21.3251 N.am    1  UNL1       -0.2681
      4 N          -8.0149  -19.1084   20.6491 N.am    1  UNL1       -0.2637
      5 C          -8.9733  -19.6989   19.6577 C.3     1  UNL1        0.0950
      6 C         -10.4387  -19.7549   19.9731 C.3     1  UNL1        0.0219
      7 C         -10.9457  -19.2206   21.2798 C.3     1  UNL1        0.0075
      8 C          -9.9873  -18.6301   22.2711 C.3     1  UNL1        0.0379
      9 C          -8.5219  -18.5740   21.9557 C.3     1  UNL1        0.0989
     10 H          -5.9238  -18.1111   22.1827 H       1  UNL1        0.1564
     11 C          -4.1256  -18.4058   21.0097 C.ar    1  UNL1        0.0516
     12 C          -3.1228  -18.3028   22.1205 C.ar    1  UNL1        0.0156
     13 C          -1.6575  -18.2467   21.8051 C.ar    1  UNL1        0.0127
     14 C          -1.1949  -18.2936   20.3790 C.ar    1  UNL1        0.0578
     15 CL          0.2706  -18.2375   20.0637 Cl      1  UNL1       -0.0822
     16 C          -2.1976  -18.3965   19.2683 C.ar    1  UNL1        0.0127
     17 C          -3.6630  -18.4526   19.5836 C.ar    1  UNL1        0.0156
     18 C         -11.2752  -18.4607   23.0212 C.ar    1  UNL1       -0.0212
     19 C         -11.4198  -19.0304   24.4013 C.ar    1  UNL1       -0.0042
     20 C         -12.7077  -18.8610   25.1514 C.ar    1  UNL1       -0.0003
     21 C         -13.8509  -18.1219   24.5214 C.ar    1  UNL1       -0.0000
     22 C         -13.7062  -17.5522   23.1414 C.ar    1  UNL1       -0.0003
     23 C         -12.4183  -17.7216   22.3912 C.ar    1  UNL1       -0.0042
     24 C          -9.4761  -17.9808   23.5230 C.3     1  UNL1        0.0185
     25 C          -9.3972  -16.4857   23.6140 C.3     1  UNL1        0.1214
     26 C          -8.0725  -15.8163   23.8309 C.2     1  UNL1        0.3387
     27 N          -6.8806  -15.9058   22.9245 N.2     1  UNL1        0.0551
     28 N          -5.7785  -15.0847   23.5256 N.pl3   1  UNL1       -0.0731
     29 N          -6.2893  -14.4879   24.8035 N.3     1  UNL1       -0.0526
     30 N          -7.7070  -14.9400   24.9921 N.pl3   1  UNL1       -0.1384
     31 H          -4.8781  -14.9595   23.1478 H       1  UNL1        0.2196
     32 H          -6.2551  -13.4699   24.7481 H       1  UNL1        0.1969
     33 H          -8.2945  -14.7033   25.7458 H       1  UNL1        0.3193
@<TRIPOS>BOND
     1     1     2    2
     2     2     3   am
     3     3    11    1
     4    11    12   ar
     5    12    13   ar
     6    13    14   ar
     7    14    15    1
     8    14    16   ar
     9    16    17   ar
    10     2     4   am
    11     4     5    1
    12     5     6    1
    13     6     7    1
    14     7     8    1
    15     8    24    1
    16    24    25    1
    17    25    26    1
    18    26    27    2
    19    27    28    1
    20    28    29    1
    21    29    30    1
    22     8    18    1
    23    18    19   ar
    24    19    20   ar
    25    20    21   ar
    26    21    22   ar
    27    22    23   ar
    28     8     9    1
    29    17    11   ar
    30     9     4    1
    31    30    26    1
    32    23    18   ar
    33     3    10    1
    34    28    31    1
    35    29    32    1
    36    30    33    1
@<TRIPOS>MOLECULE
*****
 33 36 0 0 0
SMALL
GASTEIGER

@<TRIPOS>ATOM
      1 O          -4.4676  -16.0991   23.3561 O.2     1  UNL1       -0.2522
      2 C          -5.5854  -16.9865   22.8948 C.2     1  UNL1        0.3077
      3 N          -5.3166  -18.0749   21.8983 N.am    1  UNL1       -0.2681
      4 N          -6.9722  -16.7856   23.4301 N.am    1  UNL1       -0.2637
      5 C          -7.2411  -15.6973   24.4267 C.3     1  UNL1        0.0950
      6 C          -8.6279  -15.4964   24.9619 C.3     1  UNL1        0.0219
      7 C          -9.7457  -16.3838   24.5006 C.3     1  UNL1        0.0075
      8 C          -9.4768  -17.4722   23.5041 C.3     1  UNL1        0.0379
      9 C          -8.0901  -17.6730   22.9688 C.3     1  UNL1        0.0989
     10 H          -6.0503  -18.6573   21.5955 H       1  UNL1        0.1564
     11 C          -3.9297  -18.2758   21.3630 C.ar    1  UNL1        0.0516
     12 C          -2.7700  -18.3872   22.3077 C.ar    1  UNL1        0.0156
     13 C          -1.3833  -18.5881   21.7723 C.ar    1  UNL1        0.0127
     14 C          -1.1563  -18.6776   20.2923 C.ar    1  UNL1        0.0578
     15 CL          0.2305  -18.8786   19.7570 Cl      1  UNL1       -0.0822
     16 C          -2.3161  -18.5662   19.3476 C.ar    1  UNL1        0.0127
     17 C          -3.7028  -18.3653   19.8829 C.ar    1  UNL1        0.0156
     18 C         -10.9477  -17.6735   23.7192 C.ar    1  UNL1       -0.0212
     19 C         -11.4305  -18.7729   24.6182 C.ar    1  UNL1       -0.0042
     20 C         -12.9013  -18.9743   24.8333 C.ar    1  UNL1       -0.0003
     21 C         -13.8892  -18.0762   24.1493 C.ar    1  UNL1       -0.0000
     22 C         -13.4063  -16.9769   23.2503 C.ar    1  UNL1       -0.0003
     23 C         -11.9355  -16.7755   23.0352 C.ar    1  UNL1       -0.0042
     24 C          -9.7188  -18.6305   22.5821 C.3     1  UNL1        0.0185
     25 C          -9.5766  -18.4515   21.0997 C.3     1  UNL1        0.1214
     26 C         -10.3771  -17.3994   20.3910 C.2     1  UNL1        0.3387
     27 N         -11.6520  -17.6231   19.6329 N.2     1  UNL1        0.0551
     28 N         -12.1061  -16.3008   19.0893 N.pl3   1  UNL1       -0.0731
     29 N         -11.1118  -15.2599   19.5116 N.3     1  UNL1       -0.0526
     30 N         -10.0434  -15.9389   20.3160 N.pl3   1  UNL1       -0.1384
     31 H         -12.9146  -16.1436   18.5502 H       1  UNL1        0.2196
     32 H         -11.5741  -14.5499   20.0795 H       1  UNL1        0.1969
     33 H          -9.2604  -15.5026   20.7233 H       1  UNL1        0.3193
@<TRIPOS>BOND
     1     1     2    2
     2     2     3   am
     3     3    11    1
     4    11    12   ar
     5    12    13   ar
     6    13    14   ar
     7    14    15    1
     8    14    16   ar
     9    16    17   ar
    10     2     4   am
    11     4     5    1
    12     5     6    1
    13     6     7    1
    14     7     8    1
    15     8    24    1
    16    24    25    1
    17    25    26    1
    18    26    27    2
    19    27    28    1
    20    28    29    1
    21    29    30    1
    22     8    18    1
    23    18    19   ar
    24    19    20   ar
    25    20    21   ar
    26    21    22   ar
    27    22    23   ar
    28     8     9    1
    29    17    11   ar
    30     9     4    1
    31    30    26    1
    32    23    18   ar
    33     3    10    1
    34    28    31    1
    35    29    32    1
    36    30    33    1
@<TRIPOS>MOLECULE
*****
 33 36 0 0 0
SMALL
GASTEIGER

@<TRIPOS>ATOM
      1 O          -4.0696  -15.9767   24.1710 O.2     1  UNL1       -0.2522
      2 C          -5.1495  -16.6914   23.4140 C.2     1  UNL1        0.3077
      3 N          -4.8048  -17.4964   22.1962 N.am    1  UNL1       -0.2681
      4 N          -6.5741  -16.6010   23.8748 N.am    1  UNL1       -0.2637
      5 C          -6.9189  -15.7960   25.0926 C.3     1  UNL1        0.0950
      6 C          -8.3435  -15.7057   25.5533 C.3     1  UNL1        0.0219
      7 C          -9.4233  -16.4204   24.7963 C.3     1  UNL1        0.0075
      8 C          -9.0786  -17.2254   23.5785 C.3     1  UNL1        0.0379
      9 C          -7.6540  -17.3157   23.1178 C.3     1  UNL1        0.0989
     10 H          -5.5135  -17.9655   21.6993 H       1  UNL1        0.1564
     11 C          -3.3801  -17.5868   21.7354 C.ar    1  UNL1        0.0516
     12 C          -2.7188  -18.9264   21.6012 C.ar    1  UNL1        0.0156
     13 C          -1.2942  -19.0167   21.1405 C.ar    1  UNL1        0.0127
     14 C          -0.5309  -17.7674   20.8138 C.ar    1  UNL1        0.0578
     15 CL          0.8937  -17.8578   20.3530 Cl      1  UNL1       -0.0822
     16 C          -1.1923  -16.4278   20.9480 C.ar    1  UNL1        0.0127
     17 C          -2.6168  -16.3375   21.4088 C.ar    1  UNL1        0.0156
     18 C         -10.5625  -17.4406   23.6215 C.ar    1  UNL1       -0.0212
     19 C         -11.4663  -16.6075   22.7618 C.ar    1  UNL1       -0.0042
     20 C         -12.9502  -16.8228   22.8048 C.ar    1  UNL1       -0.0003
     21 C         -13.5301  -17.8710   23.7075 C.ar    1  UNL1       -0.0000
     22 C         -12.6263  -18.7040   24.5672 C.ar    1  UNL1       -0.0003
     23 C         -11.1424  -18.4888   24.5242 C.ar    1  UNL1       -0.0042
     24 C          -9.2492  -18.1052   22.3756 C.3     1  UNL1        0.0185
     25 C          -8.4519  -19.3697   22.2521 C.3     1  UNL1        0.1214
     26 C          -7.3246  -19.4523   21.2661 C.2     1  UNL1        0.3387
     27 N          -6.2523  -20.5010   21.2388 N.2     1  UNL1        0.0551
     28 N          -5.3366  -20.1977   20.0901 N.pl3   1  UNL1       -0.0731
     29 N          -5.8429  -18.9616   19.4075 N.3     1  UNL1       -0.0526
     30 N          -7.0715  -18.5011   20.1343 N.pl3   1  UNL1       -0.1384
     31 H          -4.5426  -20.7184   19.8299 H       1  UNL1        0.2196
     32 H          -6.0737  -19.1723   18.4365 H       1  UNL1        0.1969
     33 H          -7.6162  -17.7128   19.9082 H       1  UNL1        0.3193
@<TRIPOS>BOND
     1     1     2    2
     2     2     3   am
     3     3    11    1
     4    11    12   ar
     5    12    13   ar
     6    13    14   ar
     7    14    15    1
     8    14    16   ar
     9    16    17   ar
    10     2     4   am
    11     4     5    1
    12     5     6    1
    13     6     7    1
    14     7     8    1
    15     8    24    1
    16    24    25    1
    17    25    26    1
    18    26    27    2
    19    27    28    1
    20    28    29    1
    21    29    30    1
    22     8    18    1
    23    18    19   ar
    24    19    20   ar
    25    20    21   ar
    26    21    22   ar
    27    22    23   ar
    28     8     9    1
    29    17    11   ar
    30     9     4    1
    31    30    26    1
    32    23    18   ar
    33     3    10    1
    34    28    31    1
    35    29    32    1
    36    30    33    1
@<TRIPOS>MOLECULE
*****
 33 36 0 0 0
SMALL
GASTEIGER

@<TRIPOS>ATOM
      1 O          -4.2291  -15.8938   23.7688 O.2     1  UNL1       -0.2522
      2 C          -5.3114  -16.7464   23.1758 C.2     1  UNL1        0.3077
      3 N          -4.9808  -17.7362   22.0984 N.am    1  UNL1       -0.2681
      4 N          -6.7245  -16.6090   23.6602 N.am    1  UNL1       -0.2637
      5 C          -7.0551  -15.6192   24.7376 C.3     1  UNL1        0.0950
      6 C          -8.4681  -15.4819   25.2219 C.3     1  UNL1        0.0219
      7 C          -9.5504  -16.3345   24.6288 C.3     1  UNL1        0.0075
      8 C          -9.2197  -17.3244   23.5515 C.3     1  UNL1        0.0379
      9 C          -7.8068  -17.4616   23.0671 C.3     1  UNL1        0.0989
     10 H          -5.6911  -18.2958   21.7092 H       1  UNL1        0.1564
     11 C          -3.5677  -17.8735   21.6140 C.ar    1  UNL1        0.0516
     12 C          -2.7180  -16.6522   21.4240 C.ar    1  UNL1        0.0156
     13 C          -1.3051  -16.7895   20.9396 C.ar    1  UNL1        0.0127
     14 C          -0.7418  -18.1482   20.6453 C.ar    1  UNL1        0.0578
     15 CL          0.6712  -18.2856   20.1609 Cl      1  UNL1       -0.0822
     16 C          -1.5915  -19.3696   20.8354 C.ar    1  UNL1        0.0127
     17 C          -3.0045  -19.2323   21.3197 C.ar    1  UNL1        0.0156
     18 C         -10.6960  -17.5592   23.6768 C.ar    1  UNL1       -0.0212
     19 C         -11.2134  -18.5788   24.6476 C.ar    1  UNL1       -0.0042
     20 C         -12.6897  -18.8137   24.7729 C.ar    1  UNL1       -0.0003
     21 C         -13.6483  -18.0288   23.9273 C.ar    1  UNL1       -0.0000
     22 C         -13.1308  -17.0092   22.9565 C.ar    1  UNL1       -0.0003
     23 C         -11.6546  -16.7743   22.8312 C.ar    1  UNL1       -0.0042
     24 C          -9.4017  -18.3958   22.5176 C.3     1  UNL1        0.0185
     25 C          -8.5309  -18.4154   21.2965 C.3     1  UNL1        0.1214
     26 C          -8.9292  -19.2337   20.1041 C.2     1  UNL1        0.3387
     27 N          -8.0195  -20.1036   19.2881 N.2     1  UNL1        0.0551
     28 N          -8.8352  -20.7333   18.1981 N.pl3   1  UNL1       -0.0731
     29 N         -10.2490  -20.2526   18.3405 N.3     1  UNL1       -0.0526
     30 N         -10.3070  -19.3258   19.5184 N.pl3   1  UNL1       -0.1384
     31 H          -8.5014  -21.3532   17.5100 H       1  UNL1        0.2196
     32 H         -10.8708  -21.0465   18.4937 H       1  UNL1        0.1969
     33 H         -11.1087  -18.8598   19.8492 H       1  UNL1        0.3193
@<TRIPOS>BOND
     1     1     2    2
     2     2     3   am
     3     3    11    1
     4    11    12   ar
     5    12    13   ar
     6    13    14   ar
     7    14    15    1
     8    14    16   ar
     9    16    17   ar
    10     2     4   am
    11     4     5    1
    12     5     6    1
    13     6     7    1
    14     7     8    1
    15     8    24    1
    16    24    25    1
    17    25    26    1
    18    26    27    2
    19    27    28    1
    20    28    29    1
    21    29    30    1
    22     8    18    1
    23    18    19   ar
    24    19    20   ar
    25    20    21   ar
    26    21    22   ar
    27    22    23   ar
    28     8     9    1
    29    17    11   ar
    30     9     4    1
    31    30    26    1
    32    23    18   ar
    33     3    10    1
    34    28    31    1
    35    29    32    1
    36    30    33    1
@<TRIPOS>MOLECULE
*****
 33 36 0 0 0
SMALL
GASTEIGER

@<TRIPOS>ATOM
      1 O           7.7249   -5.1914   22.9259 O.2     1  UNL1       -0.2522
      2 C           6.6145   -4.2066   23.1431 C.2     1  UNL1        0.3077
      3 N           6.1719   -3.8705   24.5363 N.am    1  UNL1       -0.2681
      4 N           5.9467   -3.5579   21.9669 N.am    1  UNL1       -0.2637
      5 C           6.3892   -3.8940   20.5737 C.3     1  UNL1        0.0950
      6 C           5.7214   -3.2453   19.3976 C.3     1  UNL1        0.0219
      7 C           4.6110   -2.2605   19.6148 C.3     1  UNL1        0.0075
      8 C           4.1684   -1.9244   21.0080 C.3     1  UNL1        0.0379
      9 C           4.8362   -2.5731   22.1841 C.3     1  UNL1        0.0989
     10 H           5.4431   -3.2241   24.6788 H       1  UNL1        0.1564
     11 C           6.8398   -4.5192   25.7124 C.ar    1  UNL1        0.0516
     12 C           6.8264   -6.0125   25.8529 C.ar    1  UNL1        0.0156
     13 C           7.4942   -6.6611   27.0290 C.ar    1  UNL1        0.0127
     14 C           8.1754   -5.8164   28.0646 C.ar    1  UNL1        0.0578
     15 CL          8.8432   -6.4651   29.2408 Cl      1  UNL1       -0.0822
     16 C           8.1888   -4.3231   27.9241 C.ar    1  UNL1        0.0127
     17 C           7.5210   -3.6745   26.7480 C.ar    1  UNL1        0.0156
     18 C           3.2342   -1.0540   20.2208 C.ar    1  UNL1       -0.0212
     19 C           3.7547   -0.2412   19.0726 C.ar    1  UNL1       -0.0042
     20 C           2.8205    0.6293   18.2855 C.ar    1  UNL1       -0.0003
     21 C           1.3658    0.6868   18.6466 C.ar    1  UNL1       -0.0000
     22 C           0.8452   -0.1260   19.7947 C.ar    1  UNL1       -0.0003
     23 C           1.7794   -0.9964   20.5819 C.ar    1  UNL1       -0.0042
     24 C           3.4014   -1.2860   22.1279 C.3     1  UNL1        0.0185
     25 C           4.1330   -0.5868   23.2350 C.3     1  UNL1        0.1214
     26 C           3.6622   -0.7288   24.6521 C.2     1  UNL1        0.3387
     27 N           4.1670   -1.7254   25.6532 N.2     1  UNL1        0.0551
     28 N           3.4207   -1.5118   26.9367 N.pl3   1  UNL1       -0.0731
     29 N           2.4547   -0.3832   26.7289 N.3     1  UNL1       -0.0526
     30 N           2.6039    0.1006   25.3170 N.pl3   1  UNL1       -0.1384
     31 H           3.5434   -2.0226   27.7693 H       1  UNL1        0.2196
     32 H           2.6632    0.3750   27.3785 H       1  UNL1        0.1969
     33 H           2.0964    0.8338   24.8998 H       1  UNL1        0.3193
@<TRIPOS>BOND
     1     1     2    2
     2     2     3   am
     3     3    11    1
     4    11    12   ar
     5    12    13   ar
     6    13    14   ar
     7    14    15    1
     8    14    16   ar
     9    16    17   ar
    10     2     4   am
    11     4     5    1
    12     5     6    1
    13     6     7    1
    14     7     8    1
    15     8    24    1
    16    24    25    1
    17    25    26    1
    18    26    27    2
    19    27    28    1
    20    28    29    1
    21    29    30    1
    22     8    18    1
    23    18    19   ar
    24    19    20   ar
    25    20    21   ar
    26    21    22   ar
    27    22    23   ar
    28     8     9    1
    29    17    11   ar
    30     9     4    1
    31    30    26    1
    32    23    18   ar
    33     3    10    1
    34    28    31    1
    35    29    32    1
    36    30    33    1
@<TRIPOS>MOLECULE
*****
 33 36 0 0 0
SMALL
GASTEIGER

@<TRIPOS>ATOM
      1 O           7.6629   -5.9473   27.1704 O.2     1  UNL1       -0.2522
      2 C           7.2267   -4.5981   27.6595 C.2     1  UNL1        0.3077
      3 N           7.0437   -3.4709   26.6869 N.am    1  UNL1       -0.2681
      4 N           6.9734   -4.3761   29.1212 N.am    1  UNL1       -0.2637
      5 C           7.1564   -5.5033   30.0938 C.3     1  UNL1        0.0950
      6 C           6.9032   -5.2812   31.5554 C.3     1  UNL1        0.0219
      7 C           6.4669   -3.9320   32.0446 C.3     1  UNL1        0.0075
      8 C           6.2839   -2.8048   31.0720 C.3     1  UNL1        0.0379
      9 C           6.5372   -3.0268   29.6103 C.3     1  UNL1        0.0989
     10 H           6.7574   -2.5854   27.0080 H       1  UNL1        0.1564
     11 C           7.2969   -3.6929   25.2252 C.ar    1  UNL1        0.0516
     12 C           8.7024   -3.8331   24.7203 C.ar    1  UNL1        0.0156
     13 C           8.9556   -4.0551   23.2586 C.ar    1  UNL1        0.0127
     14 C           7.8033   -4.1369   22.3018 C.ar    1  UNL1        0.0578
     15 CL          8.0566   -4.3589   20.8400 Cl      1  UNL1       -0.0822
     16 C           6.3978   -3.9967   22.8066 C.ar    1  UNL1        0.0127
     17 C           6.1446   -3.7747   24.2683 C.ar    1  UNL1        0.0156
     18 C           5.9237   -2.1071   32.3501 C.ar    1  UNL1       -0.0212
     19 C           4.6086   -2.3899   33.0140 C.ar    1  UNL1       -0.0042
     20 C           4.2484   -1.6922   34.2921 C.ar    1  UNL1       -0.0003
     21 C           5.2032   -0.7118   34.9062 C.ar    1  UNL1       -0.0000
     22 C           6.5182   -0.4290   34.2423 C.ar    1  UNL1       -0.0003
     23 C           6.8784   -1.1267   32.9642 C.ar    1  UNL1       -0.0042
     24 C           5.9758   -1.4352   30.5433 C.3     1  UNL1        0.0185
     25 C           5.2039   -1.2803   29.2666 C.3     1  UNL1        0.1214
     26 C           3.7272   -1.0208   29.3097 C.2     1  UNL1        0.3387
     27 N           2.7921   -1.0511   28.1371 N.2     1  UNL1        0.0551
     28 N           1.4132   -0.7344   28.6356 N.pl3   1  UNL1       -0.0731
     29 N           1.4961   -0.5083   30.1162 N.3     1  UNL1       -0.0526
     30 N           2.9262   -0.6854   30.5327 N.pl3   1  UNL1       -0.1384
     31 H           0.5971   -0.6838   28.0872 H       1  UNL1        0.2196
     32 H           0.9076   -1.1843   30.6030 H       1  UNL1        0.1969
     33 H           3.2774   -0.5969   31.4481 H       1  UNL1        0.3193
@<TRIPOS>BOND
     1     1     2    2
     2     2     3   am
     3     3    11    1
     4    11    12   ar
     5    12    13   ar
     6    13    14   ar
     7    14    15    1
     8    14    16   ar
     9    16    17   ar
    10     2     4   am
    11     4     5    1
    12     5     6    1
    13     6     7    1
    14     7     8    1
    15     8    24    1
    16    24    25    1
    17    25    26    1
    18    26    27    2
    19    27    28    1
    20    28    29    1
    21    29    30    1
    22     8    18    1
    23    18    19   ar
    24    19    20   ar
    25    20    21   ar
    26    21    22   ar
    27    22    23   ar
    28     8     9    1
    29    17    11   ar
    30     9     4    1
    31    30    26    1
    32    23    18   ar
    33     3    10    1
    34    28    31    1
    35    29    32    1
    36    30    33    1
@<TRIPOS>MOLECULE
*****
 33 36 0 0 0
SMALL
GASTEIGER

@<TRIPOS>ATOM
      1 O           1.3458    2.7788   18.9420 O.2     1  UNL1       -0.2522
      2 C          -0.0162    2.5780   19.5374 C.2     1  UNL1        0.3077
      3 N          -0.2546    1.4549   20.5027 N.am    1  UNL1       -0.2681
      4 N          -1.1399    3.5004   19.1676 N.am    1  UNL1       -0.2637
      5 C          -0.9015    4.6235   18.2024 C.3     1  UNL1        0.0950
      6 C          -2.0251    5.5458   17.8327 C.3     1  UNL1        0.0219
      7 C          -3.3872    5.3450   18.4282 C.3     1  UNL1        0.0075
      8 C          -3.6255    4.2218   19.3934 C.3     1  UNL1        0.0379
      9 C          -2.5019    3.2995   19.7631 C.3     1  UNL1        0.0989
     10 H          -1.1485    1.3231   20.8935 H       1  UNL1        0.1564
     11 C           0.8691    0.5325   20.8725 C.ar    1  UNL1        0.0516
     12 C           1.3050   -0.5390   19.9176 C.ar    1  UNL1        0.0156
     13 C           2.4286   -1.4613   20.2874 C.ar    1  UNL1        0.0127
     14 C           3.1163   -1.3121   21.6121 C.ar    1  UNL1        0.0578
     15 CL          4.2399   -2.2345   21.9819 Cl      1  UNL1       -0.0822
     16 C           2.6804   -0.2406   22.5670 C.ar    1  UNL1        0.0127
     17 C           1.5568    0.6817   22.1972 C.ar    1  UNL1        0.0156
     18 C          -4.9975    4.8271   19.3541 C.ar    1  UNL1       -0.0212
     19 C          -5.2142    6.2265   19.8488 C.ar    1  UNL1       -0.0042
     20 C          -6.5861    6.8318   19.8095 C.ar    1  UNL1       -0.0003
     21 C          -7.7412    6.0376   19.2756 C.ar    1  UNL1       -0.0000
     22 C          -7.5245    4.6382   18.7809 C.ar    1  UNL1       -0.0003
     23 C          -6.1525    4.0329   18.8202 C.ar    1  UNL1       -0.0042
     24 C          -4.3404    3.3089   20.3450 C.3     1  UNL1        0.0185
     25 C          -3.9691    3.3007   21.7983 C.3     1  UNL1        0.1214
     26 C          -5.0257    3.5031   22.8435 C.2     1  UNL1        0.3387
     27 N          -6.4126    4.0231   22.6060 N.2     1  UNL1        0.0551
     28 N          -7.1250    4.0625   23.9255 N.pl3   1  UNL1       -0.0731
     29 N          -6.1785    3.5669   24.9784 N.3     1  UNL1       -0.0526
     30 N          -4.8811    3.2213   24.3096 N.pl3   1  UNL1       -0.1384
     31 H          -8.0512    4.3612   24.0743 H       1  UNL1        0.2196
     32 H          -6.5663    2.7389   25.4304 H       1  UNL1        0.1969
     33 H          -4.0760    2.8709   24.7549 H       1  UNL1        0.3193
@<TRIPOS>BOND
     1     1     2    2
     2     2     3   am
     3     3    11    1
     4    11    12   ar
     5    12    13   ar
     6    13    14   ar
     7    14    15    1
     8    14    16   ar
     9    16    17   ar
    10     2     4   am
    11     4     5    1
    12     5     6    1
    13     6     7    1
    14     7     8    1
    15     8    24    1
    16    24    25    1
    17    25    26    1
    18    26    27    2
    19    27    28    1
    20    28    29    1
    21    29    30    1
    22     8    18    1
    23    18    19   ar
    24    19    20   ar
    25    20    21   ar
    26    21    22   ar
    27    22    23   ar
    28     8     9    1
    29    17    11   ar
    30     9     4    1
    31    30    26    1
    32    23    18   ar
    33     3    10    1
    34    28    31    1
    35    29    32    1
    36    30    33    1
@<TRIPOS>MOLECULE
*****
 33 36 0 0 0
SMALL
GASTEIGER

@<TRIPOS>ATOM
      1 O           1.1178    3.0366   22.2423 O.2     1  UNL1       -0.2522
      2 C          -0.2981    2.8662   21.7774 C.2     1  UNL1        0.3077
      3 N          -0.6191    1.8747   20.6986 N.am    1  UNL1       -0.2681
      4 N          -1.3930    3.6875   22.3912 N.am    1  UNL1       -0.2637
      5 C          -1.0720    4.6790   23.4700 C.3     1  UNL1        0.0950
      6 C          -2.1669    5.5002   24.0838 C.3     1  UNL1        0.0219
      7 C          -3.5828    5.3299   23.6188 C.3     1  UNL1        0.0075
      8 C          -3.9038    4.3383   22.5401 C.3     1  UNL1        0.0379
      9 C          -2.8089    3.5171   21.9263 C.3     1  UNL1        0.0989
     10 H          -1.5484    1.7629   20.3935 H       1  UNL1        0.1564
     11 C           0.4759    1.0534   20.0848 C.ar    1  UNL1        0.0516
     12 C           1.1516    1.5221   18.8304 C.ar    1  UNL1        0.0156
     13 C           2.2465    0.7009   18.2166 C.ar    1  UNL1        0.0127
     14 C           2.6656   -0.5891   18.8572 C.ar    1  UNL1        0.0578
     15 CL          3.7605   -1.4103   18.2434 Cl      1  UNL1       -0.0822
     16 C           1.9898   -1.0577   20.1116 C.ar    1  UNL1        0.0127
     17 C           0.8950   -0.2365   20.7254 C.ar    1  UNL1        0.0156
     18 C          -5.2757    4.8806   22.8121 C.ar    1  UNL1       -0.0212
     19 C          -6.3617    3.9655   23.2951 C.ar    1  UNL1       -0.0042
     20 C          -7.7336    4.5077   23.5670 C.ar    1  UNL1       -0.0003
     21 C          -8.0194    5.9650   23.3560 C.ar    1  UNL1       -0.0000
     22 C          -6.9334    6.8801   22.8730 C.ar    1  UNL1       -0.0003
     23 C          -5.5615    6.3379   22.6010 C.ar    1  UNL1       -0.0042
     24 C          -4.7013    3.5350   21.5558 C.3     1  UNL1        0.0185
     25 C          -4.5618    3.7976   20.0856 C.3     1  UNL1        0.1214
     26 C          -5.7563    4.2191   19.2822 C.2     1  UNL1        0.3387
     27 N          -5.7321    4.7554   17.8815 N.2     1  UNL1        0.0551
     28 N          -7.1456    5.0461   17.4721 N.pl3   1  UNL1       -0.0731
     29 N          -8.0433    4.6894   18.6197 N.3     1  UNL1       -0.0526
     30 N          -7.1847    4.1783   19.7383 N.pl3   1  UNL1       -0.1384
     31 H          -7.4335    5.4075   16.6028 H       1  UNL1        0.2196
     32 H          -8.7028    3.9666   18.3316 H       1  UNL1        0.1969
     33 H          -7.5027    3.8702   20.6176 H       1  UNL1        0.3193
@<TRIPOS>BOND
     1     1     2    2
     2     2     3   am
     3     3    11    1
     4    11    12   ar
     5    12    13   ar
     6    13    14   ar
     7    14    15    1
     8    14    16   ar
     9    16    17   ar
    10     2     4   am
    11     4     5    1
    12     5     6    1
    13     6     7    1
    14     7     8    1
    15     8    24    1
    16    24    25    1
    17    25    26    1
    18    26    27    2
    19    27    28    1
    20    28    29    1
    21    29    30    1
    22     8    18    1
    23    18    19   ar
    24    19    20   ar
    25    20    21   ar
    26    21    22   ar
    27    22    23   ar
    28     8     9    1
    29    17    11   ar
    30     9     4    1
    31    30    26    1
    32    23    18   ar
    33     3    10    1
    34    28    31    1
    35    29    32    1
    36    30    33    1
@<TRIPOS>MOLECULE
*****
 33 36 0 0 0
SMALL
GASTEIGER

@<TRIPOS>ATOM
      1 O           0.0304    2.0851   24.6955 O.2     1  UNL1       -0.2522
      2 C           1.1203    1.0641   24.5551 C.2     1  UNL1        0.3077
      3 N           1.8533    0.5777   25.7700 N.am    1  UNL1       -0.2681
      4 N           1.4772    0.5296   23.1997 N.am    1  UNL1       -0.2637
      5 C           0.7442    1.0160   21.9848 C.3     1  UNL1        0.0950
      6 C           1.1011    0.4815   20.6296 C.3     1  UNL1        0.0219
      7 C           2.1911   -0.5395   20.4892 C.3     1  UNL1        0.0075
      8 C           2.9241   -1.0259   21.7041 C.3     1  UNL1        0.0379
      9 C           2.5672   -0.4913   23.0594 C.3     1  UNL1        0.0989
     10 H           2.5687   -0.0924   25.6779 H       1  UNL1        0.1564
     11 C           1.4964    1.1123   27.1254 C.ar    1  UNL1        0.0516
     12 C           2.3631    2.1504   27.7743 C.ar    1  UNL1        0.0156
     13 C           2.0062    2.6849   29.1296 C.ar    1  UNL1        0.0127
     14 C           0.7826    2.1812   29.8360 C.ar    1  UNL1        0.0578
     15 CL          0.4256    2.7157   31.1914 Cl      1  UNL1       -0.0822
     16 C          -0.0842    1.1431   29.1871 C.ar    1  UNL1        0.0127
     17 C           0.2728    0.6086   27.8318 C.ar    1  UNL1        0.0156
     18 C           3.6195   -1.8258   20.6427 C.ar    1  UNL1       -0.0212
     19 C           4.0580   -1.1630   19.3705 C.ar    1  UNL1       -0.0042
     20 C           4.7534   -1.9630   18.3091 C.ar    1  UNL1       -0.0003
     21 C           5.0102   -3.4257   18.5200 C.ar    1  UNL1       -0.0000
     22 C           4.5717   -4.0885   19.7921 C.ar    1  UNL1       -0.0003
     23 C           3.8763   -3.2886   20.8535 C.ar    1  UNL1       -0.0042
     24 C           3.8986   -1.7901   22.5504 C.3     1  UNL1        0.0185
     25 C           4.6665   -1.0872   23.6303 C.3     1  UNL1        0.1214
     26 C           4.8611   -1.7469   24.9632 C.2     1  UNL1        0.3387
     27 N           4.1736   -1.3701   26.2421 N.2     1  UNL1        0.0551
     28 N           4.6650   -2.2896   27.3207 N.pl3   1  UNL1       -0.0731
     29 N           5.6561   -3.2345   26.7084 N.3     1  UNL1       -0.0526
     30 N           5.7772   -2.8991   25.2515 N.pl3   1  UNL1       -0.1384
     31 H           4.3859   -2.2753   28.2647 H       1  UNL1        0.2196
     32 H           5.3308   -4.1952   26.8166 H       1  UNL1        0.1969
     33 H           6.3564   -3.3551   24.5989 H       1  UNL1        0.3193
@<TRIPOS>BOND
     1     1     2    2
     2     2     3   am
     3     3    11    1
     4    11    12   ar
     5    12    13   ar
     6    13    14   ar
     7    14    15    1
     8    14    16   ar
     9    16    17   ar
    10     2     4   am
    11     4     5    1
    12     5     6    1
    13     6     7    1
    14     7     8    1
    15     8    24    1
    16    24    25    1
    17    25    26    1
    18    26    27    2
    19    27    28    1
    20    28    29    1
    21    29    30    1
    22     8    18    1
    23    18    19   ar
    24    19    20   ar
    25    20    21   ar
    26    21    22   ar
    27    22    23   ar
    28     8     9    1
    29    17    11   ar
    30     9     4    1
    31    30    26    1
    32    23    18   ar
    33     3    10    1
    34    28    31    1
    35    29    32    1
    36    30    33    1
