@<TRIPOS>MOLECULE
*****
 28 31 0 0 0
SMALL
GASTEIGER

@<TRIPOS>ATOM
      1 C          -8.5068  -17.1483   23.9675 C.2     1  UNL1       -0.0246
      2 C          -7.3629  -17.2294   23.0005 C.2     1  UNL1       -0.0421
      3 C          -6.1946  -16.5070   23.6032 C.3     1  UNL1        0.0480
      4 C          -6.6164  -15.9796   24.9426 C.ar    1  UNL1       -0.0184
      5 C          -5.8838  -15.1896   25.9862 C.ar    1  UNL1       -0.0040
      6 C          -6.5803  -14.7960   27.2550 C.ar    1  UNL1       -0.0003
      7 C          -8.0094  -15.1924   27.4802 C.ar    1  UNL1       -0.0000
      8 C          -8.7419  -15.9824   26.4365 C.ar    1  UNL1       -0.0006
      9 C          -8.0454  -16.3760   25.1677 C.ar    1  UNL1       -0.0079
     10 C         -10.3901  -18.7699   24.7252 C.3     1  UNL1        0.0111
     11 C          -9.8724  -17.7365   23.7691 C.3     1  UNL1        0.0634
     12 C         -10.7202  -17.2913   22.6146 C.ar    1  UNL1        0.0818
     13 C         -12.0174  -17.9865   22.3247 C.ar    1  UNL1        0.1139
     14 N         -12.8653  -17.5413   21.1702 N.ar    1  UNL1       -0.2394
     15 C         -12.4160  -16.4009   20.3055 C.ar    1  UNL1        0.1195
     16 C         -11.1188  -15.7057   20.5954 C.ar    1  UNL1        0.1191
     17 N         -10.2709  -16.1509   21.7499 N.ar    1  UNL1       -0.2446
     18 C          -7.3837  -17.9127   21.6654 C.3     1  UNL1        0.0394
     19 C          -7.2819  -19.4071   21.5861 C.3     1  UNL1        0.0768
     20 N          -5.9649  -20.0536   21.2738 N.3     1  UNL1       -0.2661
     21 C          -5.9007  -21.1926   20.2998 C.3     1  UNL1        0.0899
     22 C          -4.7121  -19.5611   21.9356 C.3     1  UNL1        0.1203
     23 C          -3.5774  -19.0434   21.1022 C.ar    1  UNL1        0.0943
     24 C          -2.1614  -19.3546   21.4869 C.ar    1  UNL1        0.1149
     25 N          -1.0267  -18.8368   20.6536 N.ar    1  UNL1       -0.2394
     26 C          -1.3081  -18.0079   19.4356 C.ar    1  UNL1        0.1195
     27 C          -2.7241  -17.6966   19.0509 C.ar    1  UNL1        0.1191
     28 N          -3.8588  -18.2144   19.8842 N.ar    1  UNL1       -0.2436
@<TRIPOS>BOND
     1    11    10    1
     2    11     1    1
     3     1     2    2
     4     2    18    1
     5    18    19    1
     6    19    20    1
     7    20    21    1
     8    20    22    1
     9    22    23    1
    10    23    24   ar
    11    24    25   ar
    12    25    26   ar
    13    26    27   ar
    14    27    28   ar
    15     2     3    1
    16     3     4    1
    17     4     5   ar
    18     5     6   ar
    19     6     7   ar
    20     7     8   ar
    21     8     9   ar
    22    11    12    1
    23    12    13   ar
    24    13    14   ar
    25    14    15   ar
    26    15    16   ar
    27    16    17   ar
    28     9     1    1
    29    17    12   ar
    30    28    23   ar
    31     9     4   ar
@<TRIPOS>MOLECULE
*****
 28 31 0 0 0
SMALL
GASTEIGER

@<TRIPOS>ATOM
      1 C          -6.0951  -18.5739   21.7595 C.2     1  UNL1       -0.0246
      2 C          -7.4839  -18.5478   21.1933 C.2     1  UNL1       -0.0421
      3 C          -8.2402  -17.4441   21.8714 C.3     1  UNL1        0.0480
      4 C          -7.3189  -16.7881   22.8567 C.ar    1  UNL1       -0.0184
      5 C          -7.5158  -15.6451   23.8079 C.ar    1  UNL1       -0.0040
      6 C          -6.3870  -15.2004   24.6899 C.ar    1  UNL1       -0.0003
      7 C          -5.0613  -15.8987   24.6207 C.ar    1  UNL1       -0.0000
      8 C          -4.8643  -17.0417   23.6695 C.ar    1  UNL1       -0.0006
      9 C          -5.9931  -17.4863   22.7875 C.ar    1  UNL1       -0.0079
     10 C          -5.1946  -21.0000   21.5278 C.3     1  UNL1        0.0111
     11 C          -5.0005  -19.5212   21.3667 C.3     1  UNL1        0.0634
     12 C          -3.7118  -18.9901   20.8127 C.ar    1  UNL1        0.0818
     13 C          -2.4101  -19.3489   21.4660 C.ar    1  UNL1        0.1139
     14 N          -1.1213  -18.8177   20.9120 N.ar    1  UNL1       -0.2394
     15 C          -1.1342  -17.9276   19.7048 C.ar    1  UNL1        0.1195
     16 C          -2.4359  -17.5686   19.0514 C.ar    1  UNL1        0.1191
     17 N          -3.7246  -18.0999   19.6054 N.ar    1  UNL1       -0.2446
     18 C          -8.0219  -19.4645   20.1348 C.3     1  UNL1        0.0394
     19 C          -9.2327  -19.0674   19.3435 C.3     1  UNL1        0.0768
     20 N         -10.5465  -18.8589   20.0367 N.3     1  UNL1       -0.2661
     21 C         -11.3488  -17.6206   19.7665 C.3     1  UNL1        0.0899
     22 C         -11.0579  -19.8886   21.0001 C.3     1  UNL1        0.1203
     23 C         -10.8623  -19.6984   22.4750 C.ar    1  UNL1        0.0943
     24 C          -9.7816  -20.4525   23.1916 C.ar    1  UNL1        0.1149
     25 N          -9.5860  -20.2623   24.6666 N.ar    1  UNL1       -0.2394
     26 C         -10.4709  -19.3180   25.4250 C.ar    1  UNL1        0.1195
     27 C         -11.5515  -18.5639   24.7084 C.ar    1  UNL1        0.1191
     28 N         -11.7472  -18.7541   23.2334 N.ar    1  UNL1       -0.2436
@<TRIPOS>BOND
     1    11    10    1
     2    11     1    1
     3     1     2    2
     4     2    18    1
     5    18    19    1
     6    19    20    1
     7    20    21    1
     8    20    22    1
     9    22    23    1
    10    23    24   ar
    11    24    25   ar
    12    25    26   ar
    13    26    27   ar
    14    27    28   ar
    15     2     3    1
    16     3     4    1
    17     4     5   ar
    18     5     6   ar
    19     6     7   ar
    20     7     8   ar
    21     8     9   ar
    22    11    12    1
    23    12    13   ar
    24    13    14   ar
    25    14    15   ar
    26    15    16   ar
    27    16    17   ar
    28     9     1    1
    29    17    12   ar
    30    28    23   ar
    31     9     4   ar
@<TRIPOS>MOLECULE
*****
 28 31 0 0 0
SMALL
GASTEIGER

@<TRIPOS>ATOM
      1 C          -5.6588  -18.3281   22.2971 C.2     1  UNL1       -0.0246
      2 C          -7.0070  -18.5808   21.6900 C.2     1  UNL1       -0.0421
      3 C          -7.9713  -17.5917   22.2747 C.3     1  UNL1        0.0480
      4 C          -7.2191  -16.7277   23.2431 C.ar    1  UNL1       -0.0184
      5 C          -7.6509  -15.5855   24.1141 C.ar    1  UNL1       -0.0040
      6 C          -6.6535  -14.8983   24.9989 C.ar    1  UNL1       -0.0003
      7 C          -5.2243  -15.3535   25.0127 C.ar    1  UNL1       -0.0000
      8 C          -4.7925  -16.4958   24.1418 C.ar    1  UNL1       -0.0006
      9 C          -5.7899  -17.1829   23.2569 C.ar    1  UNL1       -0.0079
     10 C          -4.1881  -20.4502   22.5867 C.3     1  UNL1        0.0111
     11 C          -4.4005  -19.0874   21.9970 C.3     1  UNL1        0.0634
     12 C          -3.3545  -18.4840   21.1073 C.ar    1  UNL1        0.0818
     13 C          -3.0869  -19.0765   19.7555 C.ar    1  UNL1        0.1139
     14 N          -2.0408  -18.4730   18.8658 N.ar    1  UNL1       -0.2394
     15 C          -1.2623  -17.2770   19.3278 C.ar    1  UNL1        0.1195
     16 C          -1.5299  -16.6844   20.6796 C.ar    1  UNL1        0.1191
     17 N          -2.5759  -17.2879   21.5693 N.ar    1  UNL1       -0.2446
     18 C          -7.3336  -19.6370   20.6762 C.3     1  UNL1        0.0394
     19 C          -8.0527  -19.2673   19.4129 C.3     1  UNL1        0.0768
     20 N          -9.2458  -20.0609   18.9693 N.3     1  UNL1       -0.2661
     21 C          -9.1368  -20.9841   17.7920 C.3     1  UNL1        0.0899
     22 C         -10.5477  -19.9313   19.7028 C.3     1  UNL1        0.1203
     23 C         -10.8893  -18.6500   20.4038 C.ar    1  UNL1        0.0943
     24 C         -11.3540  -18.6759   21.8298 C.ar    1  UNL1        0.1149
     25 N         -11.6956  -17.3945   22.5307 N.ar    1  UNL1       -0.2394
     26 C         -11.5726  -16.0872   21.8057 C.ar    1  UNL1        0.1195
     27 C         -11.1080  -16.0612   20.3797 C.ar    1  UNL1        0.1191
     28 N         -10.7664  -17.3426   19.6788 N.ar    1  UNL1       -0.2436
@<TRIPOS>BOND
     1    11    10    1
     2    11     1    1
     3     1     2    2
     4     2    18    1
     5    18    19    1
     6    19    20    1
     7    20    21    1
     8    20    22    1
     9    22    23    1
    10    23    24   ar
    11    24    25   ar
    12    25    26   ar
    13    26    27   ar
    14    27    28   ar
    15     2     3    1
    16     3     4    1
    17     4     5   ar
    18     5     6   ar
    19     6     7   ar
    20     7     8   ar
    21     8     9   ar
    22    11    12    1
    23    12    13   ar
    24    13    14   ar
    25    14    15   ar
    26    15    16   ar
    27    16    17   ar
    28     9     1    1
    29    17    12   ar
    30    28    23   ar
    31     9     4   ar
@<TRIPOS>MOLECULE
*****
 28 31 0 0 0
SMALL
GASTEIGER

@<TRIPOS>ATOM
      1 C          -9.2450  -18.1059   23.0959 C.2     1  UNL1       -0.0246
      2 C          -8.6916  -16.8828   23.7650 C.2     1  UNL1       -0.0421
      3 C          -9.7260  -15.7998   23.6799 C.3     1  UNL1        0.0480
      4 C         -10.9187  -16.3536   22.9582 C.ar    1  UNL1       -0.0184
      5 C         -12.2370  -15.7443   22.5830 C.ar    1  UNL1       -0.0040
      6 C         -13.2580  -16.5601   21.8470 C.ar    1  UNL1       -0.0003
      7 C         -12.9607  -17.9854   21.4860 C.ar    1  UNL1       -0.0000
      8 C         -11.6424  -18.5948   21.8612 C.ar    1  UNL1       -0.0006
      9 C         -10.6214  -17.7789   22.5972 C.ar    1  UNL1       -0.0079
     10 C          -8.9325  -20.5797   23.8259 C.3     1  UNL1        0.0111
     11 C          -8.5450  -19.4245   22.9509 C.3     1  UNL1        0.0634
     12 C          -7.4574  -19.5882   21.9310 C.ar    1  UNL1        0.0818
     13 C          -7.2685  -18.5519   20.8631 C.ar    1  UNL1        0.1139
     14 N          -6.1808  -18.7156   19.8431 N.ar    1  UNL1       -0.2394
     15 C          -5.2821  -19.9155   19.8911 C.ar    1  UNL1        0.1195
     16 C          -5.4709  -20.9519   20.9590 C.ar    1  UNL1        0.1191
     17 N          -6.5586  -20.7882   21.9789 N.ar    1  UNL1       -0.2446
     18 C          -7.3410  -16.7635   24.4066 C.3     1  UNL1        0.0394
     19 C          -6.1252  -16.5360   23.5582 C.3     1  UNL1        0.0768
     20 N          -4.8133  -17.1505   23.9474 N.3     1  UNL1       -0.2661
     21 C          -4.0915  -16.6661   25.1698 C.3     1  UNL1        0.0899
     22 C          -4.2234  -18.2494   23.1141 C.3     1  UNL1        0.1203
     23 C          -3.0564  -17.9653   22.2155 C.ar    1  UNL1        0.0943
     24 C          -2.2470  -19.0977   21.6566 C.ar    1  UNL1        0.1149
     25 N          -1.0801  -18.8136   20.7580 N.ar    1  UNL1       -0.2394
     26 C          -0.7226  -17.3970   20.4182 C.ar    1  UNL1        0.1195
     27 C          -1.5320  -16.2646   20.9771 C.ar    1  UNL1        0.1191
     28 N          -2.6989  -16.5487   21.8757 N.ar    1  UNL1       -0.2436
@<TRIPOS>BOND
     1    11    10    1
     2    11     1    1
     3     1     2    2
     4     2    18    1
     5    18    19    1
     6    19    20    1
     7    20    21    1
     8    20    22    1
     9    22    23    1
    10    23    24   ar
    11    24    25   ar
    12    25    26   ar
    13    26    27   ar
    14    27    28   ar
    15     2     3    1
    16     3     4    1
    17     4     5   ar
    18     5     6   ar
    19     6     7   ar
    20     7     8   ar
    21     8     9   ar
    22    11    12    1
    23    12    13   ar
    24    13    14   ar
    25    14    15   ar
    26    15    16   ar
    27    16    17   ar
    28     9     1    1
    29    17    12   ar
    30    28    23   ar
    31     9     4   ar
@<TRIPOS>MOLECULE
*****
 28 31 0 0 0
SMALL
GASTEIGER

@<TRIPOS>ATOM
      1 C          -8.2625  -16.4287   23.3867 C.2     1  UNL1       -0.0246
      2 C          -6.9719  -16.8671   22.7604 C.2     1  UNL1       -0.0421
      3 C          -5.8779  -16.6713   23.7678 C.3     1  UNL1        0.0480
      4 C          -6.4924  -16.1119   25.0166 C.ar    1  UNL1       -0.0184
      5 C          -5.9003  -15.7197   26.3378 C.ar    1  UNL1       -0.0040
      6 C          -6.7820  -15.1775   27.4234 C.ar    1  UNL1       -0.0003
      7 C          -8.2558  -15.0276   27.1879 C.ar    1  UNL1       -0.0000
      8 C          -8.8479  -15.4198   25.8667 C.ar    1  UNL1       -0.0006
      9 C          -7.9662  -15.9620   24.7811 C.ar    1  UNL1       -0.0079
     10 C          -9.8481  -15.6795   21.4696 C.3     1  UNL1        0.0111
     11 C          -9.6125  -16.4528   22.7332 C.3     1  UNL1        0.0634
     12 C         -10.7269  -17.2501   23.3433 C.ar    1  UNL1        0.0818
     13 C         -10.4185  -18.3396   24.3271 C.ar    1  UNL1        0.1139
     14 N         -11.5330  -19.1369   24.9371 N.ar    1  UNL1       -0.2394
     15 C         -12.9560  -18.8448   24.5635 C.ar    1  UNL1        0.1195
     16 C         -13.2645  -17.7552   23.5797 C.ar    1  UNL1        0.1191
     17 N         -12.1500  -16.9579   22.9696 N.ar    1  UNL1       -0.2446
     18 C          -6.8047  -17.4065   21.3708 C.3     1  UNL1        0.0394
     19 C          -7.2639  -18.7970   21.0458 C.3     1  UNL1        0.0768
     20 N          -6.3223  -19.9539   21.2035 N.3     1  UNL1       -0.2661
     21 C          -6.4132  -20.8353   22.4139 C.3     1  UNL1        0.0899
     22 C          -5.2898  -20.2295   20.1509 C.3     1  UNL1        0.1203
     23 C          -3.9818  -19.4955   20.1730 C.ar    1  UNL1        0.0943
     24 C          -2.8612  -19.9859   21.0411 C.ar    1  UNL1        0.1149
     25 N          -1.5532  -19.2519   21.0632 N.ar    1  UNL1       -0.2394
     26 C          -1.3659  -18.0276   20.2171 C.ar    1  UNL1        0.1195
     27 C          -2.4865  -17.5372   19.3490 C.ar    1  UNL1        0.1191
     28 N          -3.7945  -18.2712   19.3269 N.ar    1  UNL1       -0.2436
@<TRIPOS>BOND
     1    11    10    1
     2    11     1    1
     3     1     2    2
     4     2    18    1
     5    18    19    1
     6    19    20    1
     7    20    21    1
     8    20    22    1
     9    22    23    1
    10    23    24   ar
    11    24    25   ar
    12    25    26   ar
    13    26    27   ar
    14    27    28   ar
    15     2     3    1
    16     3     4    1
    17     4     5   ar
    18     5     6   ar
    19     6     7   ar
    20     7     8   ar
    21     8     9   ar
    22    11    12    1
    23    12    13   ar
    24    13    14   ar
    25    14    15   ar
    26    15    16   ar
    27    16    17   ar
    28     9     1    1
    29    17    12   ar
    30    28    23   ar
    31     9     4   ar
@<TRIPOS>MOLECULE
*****
 28 31 0 0 0
SMALL
GASTEIGER

@<TRIPOS>ATOM
      1 C           3.8292   -2.0573   21.2853 C.2     1  UNL1       -0.0246
      2 C           4.5587   -2.6580   22.4501 C.2     1  UNL1       -0.0421
      3 C           4.1166   -1.9431   23.6925 C.3     1  UNL1        0.0480
      4 C           3.1138   -0.9006   23.2955 C.ar    1  UNL1       -0.0184
      5 C           2.3396    0.1038   24.0964 C.ar    1  UNL1       -0.0040
      6 C           1.3876    1.0377   23.4096 C.ar    1  UNL1       -0.0003
      7 C           1.2100    0.9671   21.9218 C.ar    1  UNL1       -0.0000
      8 C           1.9843   -0.0373   21.1209 C.ar    1  UNL1       -0.0006
      9 C           2.9362   -0.9712   21.8077 C.ar    1  UNL1       -0.0079
     10 C           3.2916   -3.7158   19.3589 C.3     1  UNL1        0.0111
     11 C           3.9682   -2.4702   19.8499 C.3     1  UNL1        0.0634
     12 C           4.7837   -1.6378   18.9056 C.ar    1  UNL1        0.0818
     13 C           6.0079   -2.2171   18.2607 C.ar    1  UNL1        0.1139
     14 N           6.8234   -1.3846   17.3164 N.ar    1  UNL1       -0.2394
     15 C           6.4148    0.0273   17.0168 C.ar    1  UNL1        0.1195
     16 C           5.1906    0.6066   17.6617 C.ar    1  UNL1        0.1191
     17 N           4.3751   -0.2259   18.6060 N.ar    1  UNL1       -0.2446
     18 C           5.5554   -3.7771   22.3842 C.3     1  UNL1        0.0394
     19 C           6.8906   -3.5552   21.7379 C.3     1  UNL1        0.0768
     20 N           8.0538   -4.4303   22.0999 N.3     1  UNL1       -0.2661
     21 C           8.7107   -5.2769   21.0501 C.3     1  UNL1        0.0899
     22 C           8.5602   -4.4589   23.5115 C.3     1  UNL1        0.1203
     23 C           8.0619   -5.5033   24.4660 C.ar    1  UNL1        0.0943
     24 C           8.3748   -6.9503   24.2246 C.ar    1  UNL1        0.1149
     25 N           7.8765   -7.9947   25.1791 N.ar    1  UNL1       -0.2394
     26 C           7.0655   -7.5922   26.3749 C.ar    1  UNL1        0.1195
     27 C           6.7526   -6.1452   26.6163 C.ar    1  UNL1        0.1191
     28 N           7.2509   -5.1008   25.6618 N.ar    1  UNL1       -0.2436
@<TRIPOS>BOND
     1    11    10    1
     2    11     1    1
     3     1     2    2
     4     2    18    1
     5    18    19    1
     6    19    20    1
     7    20    21    1
     8    20    22    1
     9    22    23    1
    10    23    24   ar
    11    24    25   ar
    12    25    26   ar
    13    26    27   ar
    14    27    28   ar
    15     2     3    1
    16     3     4    1
    17     4     5   ar
    18     5     6   ar
    19     6     7   ar
    20     7     8   ar
    21     8     9   ar
    22    11    12    1
    23    12    13   ar
    24    13    14   ar
    25    14    15   ar
    26    15    16   ar
    27    16    17   ar
    28     9     1    1
    29    17    12   ar
    30    28    23   ar
    31     9     4   ar
@<TRIPOS>MOLECULE
*****
 28 31 0 0 0
SMALL
GASTEIGER

@<TRIPOS>ATOM
      1 C           4.1103   -2.0491   19.2373 C.2     1  UNL1       -0.0246
      2 C           5.1374   -1.4310   18.3356 C.2     1  UNL1       -0.0421
      3 C           4.6253   -0.0899   17.9005 C.3     1  UNL1        0.0480
      4 C           3.2817    0.1208   18.5333 C.ar    1  UNL1       -0.0184
      5 C           2.3070    1.2588   18.4640 C.ar    1  UNL1       -0.0040
      6 C           1.0141    1.1860   19.2208 C.ar    1  UNL1       -0.0003
      7 C           0.6958   -0.0248   20.0470 C.ar    1  UNL1       -0.0000
      8 C           1.6705   -1.1628   20.1163 C.ar    1  UNL1       -0.0006
      9 C           2.9635   -1.0900   19.3595 C.ar    1  UNL1       -0.0079
     10 C           3.4836   -4.5690   19.3249 C.3     1  UNL1        0.0111
     11 C           4.2122   -3.3907   19.9003 C.3     1  UNL1        0.0634
     12 C           5.0425   -3.5542   21.1387 C.ar    1  UNL1        0.0818
     13 C           4.4575   -3.2323   22.4819 C.ar    1  UNL1        0.1139
     14 N           5.2879   -3.3958   23.7203 N.ar    1  UNL1       -0.2394
     15 C           6.7033   -3.8812   23.6156 C.ar    1  UNL1        0.1195
     16 C           7.2884   -4.2031   22.2724 C.ar    1  UNL1        0.1191
     17 N           6.4580   -4.0395   21.0340 N.ar    1  UNL1       -0.2446
     18 C           6.4467   -2.0460   17.9386 C.3     1  UNL1        0.0394
     19 C           7.7002   -1.6842   18.6787 C.3     1  UNL1        0.0768
     20 N           7.9535   -0.2594   19.0733 N.3     1  UNL1       -0.2661
     21 C           8.3839    0.7397   18.0404 C.3     1  UNL1        0.0899
     22 C           7.7765    0.1664   20.5006 C.3     1  UNL1        0.1203
     23 C           6.4662    0.7371   20.9560 C.ar    1  UNL1        0.0943
     24 C           6.0232    2.0833   20.4648 C.ar    1  UNL1        0.1149
     25 N           4.7129    2.6540   20.9202 N.ar    1  UNL1       -0.2394
     26 C           3.8457    1.8785   21.8669 C.ar    1  UNL1        0.1195
     27 C           4.2886    0.5323   22.3582 C.ar    1  UNL1        0.1191
     28 N           5.5989   -0.0384   21.9028 N.ar    1  UNL1       -0.2436
@<TRIPOS>BOND
     1    11    10    1
     2    11     1    1
     3     1     2    2
     4     2    18    1
     5    18    19    1
     6    19    20    1
     7    20    21    1
     8    20    22    1
     9    22    23    1
    10    23    24   ar
    11    24    25   ar
    12    25    26   ar
    13    26    27   ar
    14    27    28   ar
    15     2     3    1
    16     3     4    1
    17     4     5   ar
    18     5     6   ar
    19     6     7   ar
    20     7     8   ar
    21     8     9   ar
    22    11    12    1
    23    12    13   ar
    24    13    14   ar
    25    14    15   ar
    26    15    16   ar
    27    16    17   ar
    28     9     1    1
    29    17    12   ar
    30    28    23   ar
    31     9     4   ar
@<TRIPOS>MOLECULE
*****
 28 31 0 0 0
SMALL
GASTEIGER

@<TRIPOS>ATOM
      1 C           4.0470   -2.1528   19.2959 C.2     1  UNL1       -0.0246
      2 C           5.0511   -1.6772   18.2882 C.2     1  UNL1       -0.0421
      3 C           4.5614   -0.3762   17.7245 C.3     1  UNL1        0.0480
      4 C           3.2547   -0.0479   18.3838 C.ar    1  UNL1       -0.0184
      5 C           2.3133    1.1091   18.2254 C.ar    1  UNL1       -0.0040
      6 C           1.0540    1.1680   19.0381 C.ar    1  UNL1       -0.0003
      7 C           0.7360    0.0700   20.0093 C.ar    1  UNL1       -0.0000
      8 C           1.6774   -1.0870   20.1678 C.ar    1  UNL1       -0.0006
      9 C           2.9368   -1.1459   19.3551 C.ar    1  UNL1       -0.0079
     10 C           3.5915   -4.6979   19.5515 C.3     1  UNL1        0.0111
     11 C           4.1373   -3.4141   20.1029 C.3     1  UNL1        0.0634
     12 C           4.7732   -3.3915   21.4611 C.ar    1  UNL1        0.0818
     13 C           4.2187   -2.5023   22.5343 C.ar    1  UNL1        0.1139
     14 N           4.8547   -2.4798   23.8926 N.ar    1  UNL1       -0.2394
     15 C           6.0452   -3.3466   24.1778 C.ar    1  UNL1        0.1195
     16 C           6.5998   -4.2359   23.1046 C.ar    1  UNL1        0.1191
     17 N           5.9637   -4.2584   21.7463 N.ar    1  UNL1       -0.2446
     18 C           6.3217   -2.3792   17.9104 C.3     1  UNL1        0.0394
     19 C           7.5793   -2.1232   18.6868 C.3     1  UNL1        0.0768
     20 N           7.7316   -0.8533   19.4704 N.3     1  UNL1       -0.2661
     21 C           7.1912   -0.7642   20.8669 C.3     1  UNL1        0.0899
     22 C           8.4243    0.3276   18.8576 C.3     1  UNL1        0.1203
     23 C           7.6240    1.3893   18.1631 C.ar    1  UNL1        0.0943
     24 C           6.7129    2.2799   18.9546 C.ar    1  UNL1        0.1149
     25 N           5.9126    3.3416   18.2602 N.ar    1  UNL1       -0.2394
     26 C           6.0234    3.5127   16.7741 C.ar    1  UNL1        0.1195
     27 C           6.9345    2.6221   15.9825 C.ar    1  UNL1        0.1191
     28 N           7.7348    1.5604   16.6770 N.ar    1  UNL1       -0.2436
@<TRIPOS>BOND
     1    11    10    1
     2    11     1    1
     3     1     2    2
     4     2    18    1
     5    18    19    1
     6    19    20    1
     7    20    21    1
     8    20    22    1
     9    22    23    1
    10    23    24   ar
    11    24    25   ar
    12    25    26   ar
    13    26    27   ar
    14    27    28   ar
    15     2     3    1
    16     3     4    1
    17     4     5   ar
    18     5     6   ar
    19     6     7   ar
    20     7     8   ar
    21     8     9   ar
    22    11    12    1
    23    12    13   ar
    24    13    14   ar
    25    14    15   ar
    26    15    16   ar
    27    16    17   ar
    28     9     1    1
    29    17    12   ar
    30    28    23   ar
    31     9     4   ar
@<TRIPOS>MOLECULE
*****
 28 31 0 0 0
SMALL
GASTEIGER

@<TRIPOS>ATOM
      1 C          -6.8983  -15.8508   23.7856 C.2     1  UNL1       -0.0246
      2 C          -5.4014  -15.9391   23.8235 C.2     1  UNL1       -0.0421
      3 C          -4.9585  -15.6977   25.2361 C.3     1  UNL1        0.0480
      4 C          -6.1816  -15.4601   26.0713 C.ar    1  UNL1       -0.0184
      5 C          -6.3586  -15.1699   27.5322 C.ar    1  UNL1       -0.0040
      6 C          -7.7345  -14.9743   28.0967 C.ar    1  UNL1       -0.0003
      7 C          -8.9334  -15.0690   27.2002 C.ar    1  UNL1       -0.0000
      8 C          -8.7564  -15.3592   25.7393 C.ar    1  UNL1       -0.0006
      9 C          -7.3805  -15.5548   25.1748 C.ar    1  UNL1       -0.0079
     10 C          -7.9215  -14.9005   21.5947 C.3     1  UNL1        0.0111
     11 C          -7.7615  -16.0275   22.5717 C.3     1  UNL1        0.0634
     12 C          -8.4646  -17.3310   22.3346 C.ar    1  UNL1        0.0818
     13 C          -8.7961  -18.2258   23.4919 C.ar    1  UNL1        0.1139
     14 N          -9.4993  -19.5294   23.2548 N.ar    1  UNL1       -0.2394
     15 C          -9.8709  -19.9382   21.8603 C.ar    1  UNL1        0.1195
     16 C          -9.5394  -19.0435   20.7028 C.ar    1  UNL1        0.1191
     17 N          -8.8363  -17.7400   20.9400 N.ar    1  UNL1       -0.2446
     18 C          -4.5048  -16.2196   22.6541 C.3     1  UNL1        0.0394
     19 C          -3.0516  -16.5166   22.8775 C.3     1  UNL1        0.0768
     20 N          -2.2991  -17.3626   21.8936 N.3     1  UNL1       -0.2661
     21 C          -1.4525  -16.7131   20.8393 C.3     1  UNL1        0.0899
     22 C          -2.3932  -18.8579   21.9639 C.3     1  UNL1        0.1203
     23 C          -3.6471  -19.5522   21.5213 C.ar    1  UNL1        0.0943
     24 C          -4.8709  -19.5146   22.3878 C.ar    1  UNL1        0.1149
     25 N          -6.1248  -20.2088   21.9452 N.ar    1  UNL1       -0.2394
     26 C          -6.1548  -20.9407   20.6362 C.ar    1  UNL1        0.1195
     27 C          -4.9309  -20.9782   19.7698 C.ar    1  UNL1        0.1191
     28 N          -3.6771  -20.2840   20.2124 N.ar    1  UNL1       -0.2436
@<TRIPOS>BOND
     1    11    10    1
     2    11     1    1
     3     1     2    2
     4     2    18    1
     5    18    19    1
     6    19    20    1
     7    20    21    1
     8    20    22    1
     9    22    23    1
    10    23    24   ar
    11    24    25   ar
    12    25    26   ar
    13    26    27   ar
    14    27    28   ar
    15     2     3    1
    16     3     4    1
    17     4     5   ar
    18     5     6   ar
    19     6     7   ar
    20     7     8   ar
    21     8     9   ar
    22    11    12    1
    23    12    13   ar
    24    13    14   ar
    25    14    15   ar
    26    15    16   ar
    27    16    17   ar
    28     9     1    1
    29    17    12   ar
    30    28    23   ar
    31     9     4   ar
