@<TRIPOS>MOLECULE
*****
 17 18 0 0 0
SMALL
GASTEIGER

@<TRIPOS>ATOM
      1 C          -7.4739  -18.9607   22.4805 C.2     1  UNL1        0.0408
      2 C          -8.4506  -20.0237   22.8878 C.2     1  UNL1        0.0467
      3 C          -4.0466  -19.2743   20.6857 C.ar    1  UNL1        0.1228
      4 C          -4.7551  -20.4928   20.1726 C.ar    1  UNL1        0.0361
      5 C          -6.1252  -20.5237   20.7824 C.ar    1  UNL1        0.0403
      6 C          -6.2635  -19.3242   21.6725 C.ar    1  UNL1        0.1450
      7 O          -4.9789  -18.5521   21.6127 O.2     1  UNL1       -0.4578
      8 C          -2.3901  -18.1189   19.0515 C.3     1  UNL1        0.0084
      9 C          -2.6510  -18.8521   20.3337 C.3     1  UNL1        0.0645
     10 C          -9.6611  -19.6603   23.6958 C.2     1  UNL1        0.2112
     11 O          -9.7247  -20.0142   25.1520 O.2     1  UNL1       -0.2850
     12 C         -10.8078  -18.9428   23.0475 C.ar    1  UNL1        0.0961
     13 C         -11.9726  -18.3195   23.7578 C.ar    1  UNL1        0.0218
     14 C         -12.8758  -17.7142   22.7244 C.ar    1  UNL1        0.0200
     15 C         -12.2692  -17.9635   21.3754 C.ar    1  UNL1        0.0725
     16 N         -10.9911  -18.7228   21.5751 N.ar    1  UNL1       -0.3495
     17 H         -10.3798  -19.0239   20.8645 H       1  UNL1        0.1661
@<TRIPOS>BOND
     1     8     9    1
     2     9     3    1
     3     3     4   ar
     4     4     5   ar
     5     5     6   ar
     6     6     1    1
     7     1     2    2
     8     2    10    1
     9    10    11    2
    10    10    12    1
    11    12    13   ar
    12    13    14   ar
    13    14    15   ar
    14    15    16   ar
    15     6     7   ar
    16     7     3   ar
    17    16    12   ar
    18    16    17    1
@<TRIPOS>MOLECULE
*****
 17 18 0 0 0
SMALL
GASTEIGER

@<TRIPOS>ATOM
      1 C          -7.4739  -19.1315   22.2380 C.2     1  UNL1        0.0408
      2 C          -7.0385  -19.1700   20.8031 C.2     1  UNL1        0.0467
      3 C         -10.8954  -17.3985   22.8339 C.ar    1  UNL1        0.1228
      4 C          -9.9962  -16.5716   23.7042 C.ar    1  UNL1        0.0361
      5 C          -8.6050  -17.1201   23.5869 C.ar    1  UNL1        0.0403
      6 C          -8.6444  -18.2861   22.6441 C.ar    1  UNL1        0.1450
      7 O         -10.0600  -18.4582   22.1787 O.2     1  UNL1       -0.4578
      8 C         -13.3398  -17.9032   23.5551 C.3     1  UNL1        0.0084
      9 C         -12.3710  -17.2006   22.6509 C.3     1  UNL1        0.0645
     10 C          -5.8678  -20.0155   20.3969 C.2     1  UNL1        0.2112
     11 O          -6.0331  -21.4976   20.2361 O.2     1  UNL1       -0.2850
     12 C          -4.5320  -19.3787   20.1515 C.ar    1  UNL1        0.0961
     13 C          -3.2263  -19.8105   20.7502 C.ar    1  UNL1        0.0218
     14 C          -2.1547  -18.8971   20.2332 C.ar    1  UNL1        0.0200
     15 C          -2.7982  -17.9008   19.3149 C.ar    1  UNL1        0.0725
     16 N          -4.2675  -18.1984   19.2645 N.ar    1  UNL1       -0.3495
     17 H          -4.9402  -17.7057   18.7410 H       1  UNL1        0.1661
@<TRIPOS>BOND
     1     8     9    1
     2     9     3    1
     3     3     4   ar
     4     4     5   ar
     5     5     6   ar
     6     6     1    1
     7     1     2    2
     8     2    10    1
     9    10    11    2
    10    10    12    1
    11    12    13   ar
    12    13    14   ar
    13    14    15   ar
    14    15    16   ar
    15     6     7   ar
    16     7     3   ar
    17    16    12   ar
    18    16    17    1
@<TRIPOS>MOLECULE
*****
 17 18 0 0 0
SMALL
GASTEIGER

@<TRIPOS>ATOM
      1 C          -7.0575  -19.1922   20.1991 C.2     1  UNL1        0.0408
      2 C          -6.0375  -19.8961   21.0441 C.2     1  UNL1        0.0467
      3 C         -10.5602  -19.1087   21.8694 C.ar    1  UNL1        0.1228
      4 C         -10.9172  -19.5030   20.4669 C.ar    1  UNL1        0.0361
      5 C          -9.6485  -19.5822   19.6704 C.ar    1  UNL1        0.0403
      6 C          -8.5074  -19.2370   20.5808 C.ar    1  UNL1        0.1450
      7 O          -9.0709  -18.9444   21.9398 O.2     1  UNL1       -0.4578
      8 C         -12.6186  -17.8948   22.8887 C.3     1  UNL1        0.0084
      9 C         -11.5233  -18.9132   23.0026 C.3     1  UNL1        0.0645
     10 C          -4.5875  -19.8514   20.6625 C.2     1  UNL1        0.2112
     11 O          -4.0180  -20.9014   19.7554 O.2     1  UNL1       -0.2850
     12 C          -3.7071  -18.7565   21.1881 C.ar    1  UNL1        0.0961
     13 C          -3.5051  -18.4043   22.6321 C.ar    1  UNL1        0.0218
     14 C          -2.5474  -17.2518   22.6985 C.ar    1  UNL1        0.0200
     15 C          -2.1574  -16.8918   21.2956 C.ar    1  UNL1        0.0725
     16 N          -2.8741  -17.8218   20.3621 N.ar    1  UNL1       -0.3495
     17 H          -2.8092  -17.8191   19.3797 H       1  UNL1        0.1661
@<TRIPOS>BOND
     1     8     9    1
     2     9     3    1
     3     3     4   ar
     4     4     5   ar
     5     5     6   ar
     6     6     1    1
     7     1     2    2
     8     2    10    1
     9    10    11    2
    10    10    12    1
    11    12    13   ar
    12    13    14   ar
    13    14    15   ar
    14    15    16   ar
    15     6     7   ar
    16     7     3   ar
    17    16    12   ar
    18    16    17    1
@<TRIPOS>MOLECULE
*****
 17 18 0 0 0
SMALL
GASTEIGER

@<TRIPOS>ATOM
      1 C          -6.8321  -18.0929   22.3713 C.2     1  UNL1        0.0408
      2 C          -5.7509  -18.9720   21.8163 C.2     1  UNL1        0.0467
      3 C         -10.4906  -18.0907   21.0747 C.ar    1  UNL1        0.1228
      4 C         -10.4510  -19.3870   21.8284 C.ar    1  UNL1        0.0361
      5 C          -9.0757  -19.5457   22.4058 C.ar    1  UNL1        0.0403
      6 C          -8.2653  -18.3474   22.0090 C.ar    1  UNL1        0.1450
      7 O          -9.1398  -17.4482   21.1864 O.2     1  UNL1       -0.4578
      8 C         -11.6123  -16.1541   19.7551 C.3     1  UNL1        0.0084
      9 C         -11.6734  -17.5346   20.3387 C.3     1  UNL1        0.0645
     10 C          -4.3176  -18.7176   22.1785 C.2     1  UNL1        0.2112
     11 O          -3.9120  -18.6333   23.6201 O.2     1  UNL1       -0.2850
     12 C          -3.2901  -18.5476   21.0990 C.ar    1  UNL1        0.0961
     13 C          -1.8086  -18.7212   21.2569 C.ar    1  UNL1        0.0218
     14 C          -1.1665  -18.4550   19.9276 C.ar    1  UNL1        0.0200
     15 C          -2.2512  -18.1168   18.9483 C.ar    1  UNL1        0.0725
     16 N          -3.5637  -18.1740   19.6723 N.ar    1  UNL1       -0.3495
     17 H          -4.4492  -17.9974   19.2800 H       1  UNL1        0.1661
@<TRIPOS>BOND
     1     8     9    1
     2     9     3    1
     3     3     4   ar
     4     4     5   ar
     5     5     6   ar
     6     6     1    1
     7     1     2    2
     8     2    10    1
     9    10    11    2
    10    10    12    1
    11    12    13   ar
    12    13    14   ar
    13    14    15   ar
    14    15    16   ar
    15     6     7   ar
    16     7     3   ar
    17    16    12   ar
    18    16    17    1
@<TRIPOS>MOLECULE
*****
 17 18 0 0 0
SMALL
GASTEIGER

@<TRIPOS>ATOM
      1 C          -6.9543  -19.1692   21.5508 C.2     1  UNL1        0.0408
      2 C          -8.1033  -19.3045   20.5961 C.2     1  UNL1        0.0467
      3 C          -3.1905  -18.9417   20.6304 C.ar    1  UNL1        0.1228
      4 C          -3.5719  -20.2350   19.9733 C.ar    1  UNL1        0.0361
      5 C          -5.0283  -20.4777   20.2381 C.ar    1  UNL1        0.0403
      6 C          -5.5470  -19.3343   21.0589 C.ar    1  UNL1        0.1450
      7 O          -4.4111  -18.3850   21.3013 O.2     1  UNL1       -0.4578
      8 C          -1.1711  -17.9721   19.3143 C.3     1  UNL1        0.0084
      9 C          -1.8277  -18.3150   20.6186 C.3     1  UNL1        0.0645
     10 C          -9.5107  -19.1394   21.0880 C.2     1  UNL1        0.2112
     11 O         -10.6358  -18.9933   20.1069 O.2     1  UNL1       -0.2850
     12 C          -9.7929  -19.1204   22.5612 C.ar    1  UNL1        0.0961
     13 C          -9.9495  -17.8958   23.4130 C.ar    1  UNL1        0.0218
     14 C         -10.2214  -18.3412   24.8194 C.ar    1  UNL1        0.0200
     15 C         -10.2328  -19.8410   24.8366 C.ar    1  UNL1        0.0725
     16 N          -9.9680  -20.3226   23.4409 N.ar    1  UNL1       -0.3495
     17 H          -9.9179  -21.2627   23.1529 H       1  UNL1        0.1661
@<TRIPOS>BOND
     1     8     9    1
     2     9     3    1
     3     3     4   ar
     4     4     5   ar
     5     5     6   ar
     6     6     1    1
     7     1     2    2
     8     2    10    1
     9    10    11    2
    10    10    12    1
    11    12    13   ar
    12    13    14   ar
    13    14    15   ar
    14    15    16   ar
    15     6     7   ar
    16     7     3   ar
    17    16    12   ar
    18    16    17    1
@<TRIPOS>MOLECULE
*****
 17 18 0 0 0
SMALL
GASTEIGER

@<TRIPOS>ATOM
      1 C          -7.0720  -18.6327   22.2766 C.2     1  UNL1        0.0408
      2 C          -7.0065  -17.2138   22.7586 C.2     1  UNL1        0.0467
      3 C          -4.0096  -19.3289   19.9958 C.ar    1  UNL1        0.1228
      4 C          -4.6331  -20.6913   20.0677 C.ar    1  UNL1        0.0361
      5 C          -5.8562  -20.5963   20.9309 C.ar    1  UNL1        0.0403
      6 C          -5.9886  -19.1753   21.3924 C.ar    1  UNL1        0.1450
      7 O          -4.8473  -18.3920   20.8146 O.2     1  UNL1       -0.4578
      8 C          -1.5141  -18.6062   19.9806 C.3     1  UNL1        0.0084
      9 C          -2.7665  -18.9671   19.2383 C.3     1  UNL1        0.0645
     10 C          -8.0899  -16.6711   23.6428 C.2     1  UNL1        0.2112
     11 O          -9.5133  -16.6696   23.1699 O.2     1  UNL1       -0.2850
     12 C          -7.7497  -16.1301   24.9999 C.ar    1  UNL1        0.0961
     13 C          -6.3990  -15.6546   25.4461 C.ar    1  UNL1        0.0218
     14 C          -6.5149  -15.2002   26.8709 C.ar    1  UNL1        0.0200
     15 C          -7.9374  -15.3950   27.3053 C.ar    1  UNL1        0.0725
     16 N          -8.7006  -15.9697   26.1488 N.ar    1  UNL1       -0.3495
     17 H          -9.6575  -16.2010   26.1447 H       1  UNL1        0.1661
@<TRIPOS>BOND
     1     8     9    1
     2     9     3    1
     3     3     4   ar
     4     4     5   ar
     5     5     6   ar
     6     6     1    1
     7     1     2    2
     8     2    10    1
     9    10    11    2
    10    10    12    1
    11    12    13   ar
    12    13    14   ar
    13    14    15   ar
    14    15    16   ar
    15     6     7   ar
    16     7     3   ar
    17    16    12   ar
    18    16    17    1
@<TRIPOS>MOLECULE
*****
 17 18 0 0 0
SMALL
GASTEIGER

@<TRIPOS>ATOM
      1 C         -14.2521   -8.4186   18.1443 C.2     1  UNL1        0.0408
      2 C         -15.5024   -8.8746   18.8363 C.2     1  UNL1        0.0467
      3 C         -11.7961   -5.5403   19.0095 C.ar    1  UNL1        0.1228
      4 C         -13.0217   -5.1112   19.7604 C.ar    1  UNL1        0.0361
      5 C         -14.0909   -6.1371   19.5277 C.ar    1  UNL1        0.0403
      6 C         -13.5262   -7.2004   18.6330 C.ar    1  UNL1        0.1450
      7 O         -12.1079   -6.8315   18.3128 O.2     1  UNL1       -0.4578
      8 C          -9.4820   -5.1343   17.9006 C.3     1  UNL1        0.0084
      9 C         -10.4884   -4.8070   18.9636 C.3     1  UNL1        0.0645
     10 C         -16.2285  -10.0929   18.3476 C.2     1  UNL1        0.2112
     11 O         -15.5047  -11.4016   18.2329 O.2     1  UNL1       -0.2850
     12 C         -17.6783  -10.0023   17.9737 C.ar    1  UNL1        0.0961
     13 C         -18.3496   -8.8285   17.3244 C.ar    1  UNL1        0.0218
     14 C         -19.7975   -9.1703   17.1329 C.ar    1  UNL1        0.0200
     15 C         -20.0211  -10.5552   17.6639 C.ar    1  UNL1        0.0725
     16 N         -18.7113  -11.0694   18.1835 N.ar    1  UNL1       -0.3495
     17 H         -18.5568  -11.9523   18.5908 H       1  UNL1        0.1661
@<TRIPOS>BOND
     1     8     9    1
     2     9     3    1
     3     3     4   ar
     4     4     5   ar
     5     5     6   ar
     6     6     1    1
     7     1     2    2
     8     2    10    1
     9    10    11    2
    10    10    12    1
    11    12    13   ar
    12    13    14   ar
    13    14    15   ar
    14    15    16   ar
    15     6     7   ar
    16     7     3   ar
    17    16    12   ar
    18    16    17    1
@<TRIPOS>MOLECULE
*****
 17 18 0 0 0
SMALL
GASTEIGER

@<TRIPOS>ATOM
      1 C         -12.8871   -5.9357   18.9704 C.2     1  UNL1        0.0408
      2 C         -11.4152   -6.0922   18.7275 C.2     1  UNL1        0.0467
      3 C         -15.7011   -8.6033   18.7944 C.ar    1  UNL1        0.1228
      4 C         -14.8118   -9.0455   17.6703 C.ar    1  UNL1        0.0361
      5 C         -13.6495   -8.1000   17.5994 C.ar    1  UNL1        0.0403
      6 C         -13.8203   -7.0735   18.6797 C.ar    1  UNL1        0.1450
      7 O         -15.0883   -7.3846   19.4183 O.2     1  UNL1       -0.4578
      8 C         -17.2889  -10.6595   18.7661 C.3     1  UNL1        0.0084
      9 C         -16.9788   -9.2639   19.2200 C.3     1  UNL1        0.0645
     10 C         -10.4819   -4.9544   19.0182 C.2     1  UNL1        0.2112
     11 O          -9.1635   -5.2171   19.6833 O.2     1  UNL1       -0.2850
     12 C         -10.8672   -3.5539   18.6437 C.ar    1  UNL1        0.0961
     13 C         -10.5560   -2.8714   17.3448 C.ar    1  UNL1        0.0218
     14 C         -11.1278   -1.4858   17.4006 C.ar    1  UNL1        0.0200
     15 C         -11.7924   -1.3120   18.7340 C.ar    1  UNL1        0.0725
     16 N         -11.6314   -2.5902   19.5023 N.ar    1  UNL1       -0.3495
     17 H         -11.9681   -2.7658   20.4106 H       1  UNL1        0.1661
@<TRIPOS>BOND
     1     8     9    1
     2     9     3    1
     3     3     4   ar
     4     4     5   ar
     5     5     6   ar
     6     6     1    1
     7     1     2    2
     8     2    10    1
     9    10    11    2
    10    10    12    1
    11    12    13   ar
    12    13    14   ar
    13    14    15   ar
    14    15    16   ar
    15     6     7   ar
    16     7     3   ar
    17    16    12   ar
    18    16    17    1
@<TRIPOS>MOLECULE
*****
 17 18 0 0 0
SMALL
GASTEIGER

@<TRIPOS>ATOM
      1 C           5.7367  -12.8913   28.7021 C.2     1  UNL1        0.0408
      2 C           6.1556  -11.6191   28.0268 C.2     1  UNL1        0.0467
      3 C           2.2140  -14.5192   28.6233 C.ar    1  UNL1        0.1228
      4 C           1.8865  -13.1436   29.1237 C.ar    1  UNL1        0.0361
      5 C           3.1662  -12.3663   29.2141 C.ar    1  UNL1        0.0403
      6 C           4.2847  -13.2616   28.7696 C.ar    1  UNL1        0.1450
      7 O           3.6962  -14.5921   28.4044 O.2     1  UNL1       -0.4578
      8 C           1.5632  -17.0278   28.8068 C.3     1  UNL1        0.0084
      9 C           1.2319  -15.6274   28.3837 C.3     1  UNL1        0.0645
     10 C           7.6077  -11.2488   27.9592 C.2     1  UNL1        0.2112
     11 O           8.6594  -12.2921   28.1941 O.2     1  UNL1       -0.2850
     12 C           8.0078   -9.8351   27.6568 C.ar    1  UNL1        0.0961
     13 C           9.3606   -9.2320   27.8936 C.ar    1  UNL1        0.0218
     14 C           9.3144   -7.8005   27.4477 C.ar    1  UNL1        0.0200
     15 C           7.9330   -7.5191   26.9353 C.ar    1  UNL1        0.0725
     16 N           7.1255   -8.7765   27.0646 N.ar    1  UNL1       -0.3495
     17 H           6.1820   -8.8876   26.8061 H       1  UNL1        0.1661
@<TRIPOS>BOND
     1     8     9    1
     2     9     3    1
     3     3     4   ar
     4     4     5   ar
     5     5     6   ar
     6     6     1    1
     7     1     2    2
     8     2    10    1
     9    10    11    2
    10    10    12    1
    11    12    13   ar
    12    13    14   ar
    13    14    15   ar
    14    15    16   ar
    15     6     7   ar
    16     7     3   ar
    17    16    12   ar
    18    16    17    1
