@<TRIPOS>MOLECULE
*****
 22 23 0 0 0
SMALL
GASTEIGER

@<TRIPOS>ATOM
      1 O          -8.9396  -20.7901   17.9274 O.2     1  UNL1       -0.2866
      2 C          -8.7648  -19.9792   19.1772 C.2     1  UNL1        0.1957
      3 C          -7.3964  -19.5250   19.5912 C.2     1  UNL1        0.0420
      4 C          -6.5548  -20.3928   20.4792 C.2     1  UNL1        0.0033
      5 C          -5.1865  -19.9385   20.8932 C.ar    1  UNL1        0.0003
      6 C          -4.0280  -20.0949   19.9533 C.ar    1  UNL1        0.0031
      7 C          -2.6597  -19.6406   20.3674 C.ar    1  UNL1        0.0366
      8 C          -2.4500  -19.0300   21.7213 C.ar    1  UNL1        0.1337
      9 O          -1.0816  -18.5757   22.1353 O.3     1  UNL1       -0.5055
     10 C          -3.6085  -18.8736   22.6611 C.ar    1  UNL1        0.0366
     11 C          -4.9767  -19.3278   22.2471 C.ar    1  UNL1        0.0031
     12 H          -0.3579  -18.6734   21.5482 H       1  UNL1        0.2922
     13 C          -9.9582  -19.6226   20.0129 C.2     1  UNL1        0.0420
     14 C          -9.7767  -19.2199   21.4463 C.2     1  UNL1        0.0033
     15 C         -10.9702  -18.8633   22.2821 C.ar    1  UNL1        0.0003
     16 C         -12.1284  -18.1374   21.6645 C.ar    1  UNL1        0.0031
     17 C         -13.3219  -17.7807   22.5002 C.ar    1  UNL1        0.0366
     18 C         -13.3570  -18.1499   23.9536 C.ar    1  UNL1        0.1337
     19 O         -14.5505  -17.7933   24.7894 O.3     1  UNL1       -0.5055
     20 C         -12.1988  -18.8758   24.5712 C.ar    1  UNL1        0.0366
     21 C         -11.0053  -19.2325   23.7355 C.ar    1  UNL1        0.0031
     22 H         -15.2740  -17.3398   24.4035 H       1  UNL1        0.2922
@<TRIPOS>BOND
     1     1     2    2
     2     2     3    1
     3     3     4    2
     4     4     5    1
     5     5     6   ar
     6     6     7   ar
     7     7     8   ar
     8     8     9    1
     9     8    10   ar
    10    10    11   ar
    11     2    13    1
    12    13    14    2
    13    14    15    1
    14    15    16   ar
    15    16    17   ar
    16    17    18   ar
    17    18    19    1
    18    18    20   ar
    19    20    21   ar
    20    11     5   ar
    21    21    15   ar
    22     9    12    1
    23    19    22    1
@<TRIPOS>MOLECULE
*****
 22 23 0 0 0
SMALL
GASTEIGER

@<TRIPOS>ATOM
      1 O          -7.3036  -21.2470   19.4221 O.2     1  UNL1       -0.2866
      2 C          -7.1388  -20.0719   20.3396 C.2     1  UNL1        0.1957
      3 C          -5.8574  -19.2920   20.3368 C.2     1  UNL1        0.0420
      4 C          -4.5489  -20.0001   20.1464 C.2     1  UNL1        0.0033
      5 C          -3.2675  -19.2203   20.1436 C.ar    1  UNL1        0.0003
      6 C          -2.4900  -19.0506   21.4150 C.ar    1  UNL1        0.0031
      7 C          -1.2087  -18.2708   21.4122 C.ar    1  UNL1        0.0366
      8 C          -0.7049  -17.6606   20.1379 C.ar    1  UNL1        0.1337
      9 O           0.5765  -16.8807   20.1351 O.3     1  UNL1       -0.5055
     10 C          -1.4824  -17.8302   18.8664 C.ar    1  UNL1        0.0366
     11 C          -2.7637  -18.6100   18.8693 C.ar    1  UNL1        0.0031
     12 H           1.0622  -16.7748   20.9294 H       1  UNL1        0.2922
     13 C          -8.2554  -19.6765   21.2599 C.2     1  UNL1        0.0420
     14 C          -9.5797  -19.2559   20.6948 C.2     1  UNL1        0.0033
     15 C         -10.6963  -18.8606   21.6151 C.ar    1  UNL1        0.0003
     16 C         -10.5615  -19.0755   23.0935 C.ar    1  UNL1        0.0031
     17 C         -11.6781  -18.6802   24.0137 C.ar    1  UNL1        0.0366
     18 C         -12.9295  -18.0699   23.4556 C.ar    1  UNL1        0.1337
     19 O         -14.0461  -17.6746   24.3759 O.3     1  UNL1       -0.5055
     20 C         -13.0643  -17.8550   21.9772 C.ar    1  UNL1        0.0366
     21 C         -11.9477  -18.2503   21.0570 C.ar    1  UNL1        0.0031
     22 H         -13.9619  -17.8088   25.2994 H       1  UNL1        0.2922
@<TRIPOS>BOND
     1     1     2    2
     2     2     3    1
     3     3     4    2
     4     4     5    1
     5     5     6   ar
     6     6     7   ar
     7     7     8   ar
     8     8     9    1
     9     8    10   ar
    10    10    11   ar
    11     2    13    1
    12    13    14    2
    13    14    15    1
    14    15    16   ar
    15    16    17   ar
    16    17    18   ar
    17    18    19    1
    18    18    20   ar
    19    20    21   ar
    20    11     5   ar
    21    21    15   ar
    22     9    12    1
    23    19    22    1
@<TRIPOS>MOLECULE
*****
 22 23 0 0 0
SMALL
GASTEIGER

@<TRIPOS>ATOM
      1 O          -6.9642  -21.4262   23.0721 O.2     1  UNL1       -0.2866
      2 C          -6.7416  -20.2086   22.2248 C.2     1  UNL1        0.1957
      3 C          -5.3522  -19.6822   22.0184 C.2     1  UNL1        0.0420
      4 C          -4.9052  -19.2615   20.6498 C.2     1  UNL1        0.0033
      5 C          -3.5157  -18.7352   20.4434 C.ar    1  UNL1        0.0003
      6 C          -3.0704  -18.3095   19.0758 C.ar    1  UNL1        0.0031
      7 C          -1.6811  -17.7832   18.8695 C.ar    1  UNL1        0.0366
      8 C          -0.7370  -17.6825   20.0308 C.ar    1  UNL1        0.1337
      9 O           0.6524  -17.1562   19.8244 O.3     1  UNL1       -0.5055
     10 C          -1.1823  -18.1082   21.3984 C.ar    1  UNL1        0.0366
     11 C          -2.5717  -18.6345   21.6047 C.ar    1  UNL1        0.0031
     12 H           0.9306  -16.8903   18.9700 H       1  UNL1        0.2922
     13 C          -7.9084  -19.5173   21.5840 C.2     1  UNL1        0.0420
     14 C          -8.5984  -18.3929   22.2979 C.2     1  UNL1        0.0033
     15 C          -9.7652  -17.7016   21.6571 C.ar    1  UNL1        0.0003
     16 C         -10.2156  -18.1064   20.2847 C.ar    1  UNL1        0.0031
     17 C         -11.3824  -17.4151   19.6439 C.ar    1  UNL1        0.0366
     18 C         -12.0988  -16.3190   20.3754 C.ar    1  UNL1        0.1337
     19 O         -13.2657  -15.6276   19.7346 O.3     1  UNL1       -0.5055
     20 C         -11.6485  -15.9141   21.7478 C.ar    1  UNL1        0.0366
     21 C         -10.4817  -16.6054   22.3886 C.ar    1  UNL1        0.0031
     22 H         -13.5470  -15.8805   18.8774 H       1  UNL1        0.2922
@<TRIPOS>BOND
     1     1     2    2
     2     2     3    1
     3     3     4    2
     4     4     5    1
     5     5     6   ar
     6     6     7   ar
     7     7     8   ar
     8     8     9    1
     9     8    10   ar
    10    10    11   ar
    11     2    13    1
    12    13    14    2
    13    14    15    1
    14    15    16   ar
    15    16    17   ar
    16    17    18   ar
    17    18    19    1
    18    18    20   ar
    19    20    21   ar
    20    11     5   ar
    21    21    15   ar
    22     9    12    1
    23    19    22    1
@<TRIPOS>MOLECULE
*****
 22 23 0 0 0
SMALL
GASTEIGER

@<TRIPOS>ATOM
      1 O         -10.0548   -6.9357   18.9024 O.2     1  UNL1       -0.2866
      2 C         -11.2726   -6.0606   18.8680 C.2     1  UNL1        0.1957
      3 C         -11.1432   -4.6087   18.5139 C.2     1  UNL1        0.0420
      4 C         -12.3369   -3.7051   18.6057 C.2     1  UNL1        0.0033
      5 C         -12.2075   -2.2531   18.2517 C.ar    1  UNL1        0.0003
      6 C         -11.0010   -1.7682   17.5039 C.ar    1  UNL1        0.0031
      7 C         -10.8716   -0.3163   17.1499 C.ar    1  UNL1        0.0366
      8 C         -11.9487    0.6505   17.5437 C.ar    1  UNL1        0.1337
      9 O         -11.8193    2.1025   17.1896 O.3     1  UNL1       -0.5055
     10 C         -13.1551    0.1656   18.2915 C.ar    1  UNL1        0.0366
     11 C         -13.2845   -1.2863   18.6455 C.ar    1  UNL1        0.0031
     12 H         -11.0656    2.4054   16.7225 H       1  UNL1        0.2922
     13 C         -12.6199   -6.6374   19.1876 C.2     1  UNL1        0.0420
     14 C         -13.2808   -7.5780   18.2241 C.2     1  UNL1        0.0033
     15 C         -14.6281   -8.1549   18.5437 C.ar    1  UNL1        0.0003
     16 C         -15.6031   -7.3699   19.3702 C.ar    1  UNL1        0.0031
     17 C         -16.9503   -7.9467   19.6898 C.ar    1  UNL1        0.0366
     18 C         -17.3225   -9.3085   19.1830 C.ar    1  UNL1        0.1337
     19 O         -18.6698   -9.8853   19.5026 O.3     1  UNL1       -0.5055
     20 C         -16.3475  -10.0935   18.3565 C.ar    1  UNL1        0.0366
     21 C         -15.0002   -9.5167   18.0369 C.ar    1  UNL1        0.0031
     22 H         -19.2789   -9.3950   20.0189 H       1  UNL1        0.2922
@<TRIPOS>BOND
     1     1     2    2
     2     2     3    1
     3     3     4    2
     4     4     5    1
     5     5     6   ar
     6     6     7   ar
     7     7     8   ar
     8     8     9    1
     9     8    10   ar
    10    10    11   ar
    11     2    13    1
    12    13    14    2
    13    14    15    1
    14    15    16   ar
    15    16    17   ar
    16    17    18   ar
    17    18    19    1
    18    18    20   ar
    19    20    21   ar
    20    11     5   ar
    21    21    15   ar
    22     9    12    1
    23    19    22    1
@<TRIPOS>MOLECULE
*****
 22 23 0 0 0
SMALL
GASTEIGER

@<TRIPOS>ATOM
      1 O         -10.2210   -5.8176   19.2473 O.2     1  UNL1       -0.2866
      2 C         -11.6714   -5.6494   18.9038 C.2     1  UNL1        0.1957
      3 C         -12.2070   -4.2924   18.5550 C.2     1  UNL1        0.0420
      4 C         -12.8247   -3.4338   19.6185 C.2     1  UNL1        0.0033
      5 C         -13.3603   -2.0767   19.2696 C.ar    1  UNL1        0.0003
      6 C         -14.7803   -1.7234   19.5993 C.ar    1  UNL1        0.0031
      7 C         -15.3159   -0.3665   19.2505 C.ar    1  UNL1        0.0366
      8 C         -14.4315    0.6372   18.5719 C.ar    1  UNL1        0.1337
      9 O         -14.9672    1.9942   18.2231 O.3     1  UNL1       -0.5055
     10 C         -13.0115    0.2839   18.2423 C.ar    1  UNL1        0.0366
     11 C         -12.4759   -1.0730   18.5911 C.ar    1  UNL1        0.0031
     12 H         -15.8542    2.2149   18.4290 H       1  UNL1        0.2922
     13 C         -12.5861   -6.8382   18.9092 C.2     1  UNL1        0.0420
     14 C         -14.0674   -6.6452   18.7735 C.2     1  UNL1        0.0033
     15 C         -14.9823   -7.8340   18.7789 C.ar    1  UNL1        0.0003
     16 C         -14.6630   -9.0298   17.9316 C.ar    1  UNL1        0.0031
     17 C         -15.5778  -10.2186   17.9369 C.ar    1  UNL1        0.0366
     18 C         -16.8118  -10.2114   18.7896 C.ar    1  UNL1        0.1337
     19 O         -17.7267  -11.4002   18.7949 O.3     1  UNL1       -0.5055
     20 C         -17.1311   -9.0156   19.6369 C.ar    1  UNL1        0.0366
     21 C         -16.2163   -7.8268   19.6316 C.ar    1  UNL1        0.0031
     22 H         -17.5273  -12.1472   18.2656 H       1  UNL1        0.2922
@<TRIPOS>BOND
     1     1     2    2
     2     2     3    1
     3     3     4    2
     4     4     5    1
     5     5     6   ar
     6     6     7   ar
     7     7     8   ar
     8     8     9    1
     9     8    10   ar
    10    10    11   ar
    11     2    13    1
    12    13    14    2
    13    14    15    1
    14    15    16   ar
    15    16    17   ar
    16    17    18   ar
    17    18    19    1
    18    18    20   ar
    19    20    21   ar
    20    11     5   ar
    21    21    15   ar
    22     9    12    1
    23    19    22    1
@<TRIPOS>MOLECULE
*****
 22 23 0 0 0
SMALL
GASTEIGER

@<TRIPOS>ATOM
      1 O         -18.3290   -2.6675   20.3500 O.2     1  UNL1       -0.2866
      2 C         -17.3498   -3.5491   19.6331 C.2     1  UNL1        0.1957
      3 C         -16.1215   -2.9544   19.0103 C.2     1  UNL1        0.0420
      4 C         -14.9155   -2.6686   19.8553 C.2     1  UNL1        0.0033
      5 C         -13.6872   -2.0740   19.2326 C.ar    1  UNL1        0.0003
      6 C         -13.7321   -0.6879   18.6611 C.ar    1  UNL1        0.0031
      7 C         -12.5038   -0.0933   18.0384 C.ar    1  UNL1        0.0366
      8 C         -11.2307   -0.8848   17.9872 C.ar    1  UNL1        0.1337
      9 O         -10.0023   -0.2902   17.3645 O.3     1  UNL1       -0.5055
     10 C         -11.1858   -2.2709   18.5588 C.ar    1  UNL1        0.0366
     11 C         -12.4141   -2.8655   19.1814 C.ar    1  UNL1        0.0031
     12 H         -10.0304    0.5757   17.0075 H       1  UNL1        0.2922
     13 C         -17.5989   -5.0252   19.5388 C.2     1  UNL1        0.0420
     14 C         -16.4496   -5.9685   19.3406 C.2     1  UNL1        0.0033
     15 C         -16.6986   -7.4448   19.2464 C.ar    1  UNL1        0.0003
     16 C         -17.9146   -8.0428   19.8897 C.ar    1  UNL1        0.0031
     17 C         -18.1636   -9.5190   19.7955 C.ar    1  UNL1        0.0366
     18 C         -17.1968  -10.3971   19.0579 C.ar    1  UNL1        0.1337
     19 O         -17.4458  -11.8733   18.9636 O.3     1  UNL1       -0.5055
     20 C         -15.9809   -9.7990   18.4145 C.ar    1  UNL1        0.0366
     21 C         -15.7318   -8.3229   18.5088 C.ar    1  UNL1        0.0031
     22 H         -18.2053  -12.2469   19.3655 H       1  UNL1        0.2922
@<TRIPOS>BOND
     1     1     2    2
     2     2     3    1
     3     3     4    2
     4     4     5    1
     5     5     6   ar
     6     6     7   ar
     7     7     8   ar
     8     8     9    1
     9     8    10   ar
    10    10    11   ar
    11     2    13    1
    12    13    14    2
    13    14    15    1
    14    15    16   ar
    15    16    17   ar
    16    17    18   ar
    17    18    19    1
    18    18    20   ar
    19    20    21   ar
    20    11     5   ar
    21    21    15   ar
    22     9    12    1
    23    19    22    1
@<TRIPOS>MOLECULE
*****
 22 23 0 0 0
SMALL
GASTEIGER

@<TRIPOS>ATOM
      1 O          -0.1784    4.3917   17.9679 O.2     1  UNL1       -0.2866
      2 C          -0.0518    3.1683   18.8265 C.2     1  UNL1        0.1957
      3 C          -0.8506    3.0534   20.0909 C.2     1  UNL1        0.0420
      4 C          -2.2103    3.6806   20.1786 C.2     1  UNL1        0.0033
      5 C          -3.0092    3.5657   21.4431 C.ar    1  UNL1        0.0003
      6 C          -4.4751    3.2544   21.3784 C.ar    1  UNL1        0.0031
      7 C          -5.2738    3.1395   22.6428 C.ar    1  UNL1        0.0366
      8 C          -4.6067    3.3359   23.9719 C.ar    1  UNL1        0.1337
      9 O          -5.4055    3.2210   25.2363 O.3     1  UNL1       -0.5055
     10 C          -3.1408    3.6473   24.0365 C.ar    1  UNL1        0.0366
     11 C          -2.3421    3.7621   22.7721 C.ar    1  UNL1        0.0031
     12 H          -6.3212    3.0266   25.1959 H       1  UNL1        0.2922
     13 C           0.8736    2.0597   18.4206 C.2     1  UNL1        0.0420
     14 C           1.4142    1.1176   19.4550 C.2     1  UNL1        0.0033
     15 C           2.3396    0.0089   19.0492 C.ar    1  UNL1        0.0003
     16 C           2.4931   -1.1986   19.9258 C.ar    1  UNL1        0.0031
     17 C           3.4185   -2.3071   19.5200 C.ar    1  UNL1        0.0366
     18 C           4.1904   -2.2082   18.2377 C.ar    1  UNL1        0.1337
     19 O           5.1158   -3.3168   17.8319 O.3     1  UNL1       -0.5055
     20 C           4.0369   -1.0007   17.3611 C.ar    1  UNL1        0.0366
     21 C           3.1115    0.1079   17.7669 C.ar    1  UNL1        0.0031
     22 H           5.2117   -4.0711   18.3794 H       1  UNL1        0.2922
@<TRIPOS>BOND
     1     1     2    2
     2     2     3    1
     3     3     4    2
     4     4     5    1
     5     5     6   ar
     6     6     7   ar
     7     7     8   ar
     8     8     9    1
     9     8    10   ar
    10    10    11   ar
    11     2    13    1
    12    13    14    2
    13    14    15    1
    14    15    16   ar
    15    16    17   ar
    16    17    18   ar
    17    18    19    1
    18    18    20   ar
    19    20    21   ar
    20    11     5   ar
    21    21    15   ar
    22     9    12    1
    23    19    22    1
@<TRIPOS>MOLECULE
*****
 22 23 0 0 0
SMALL
GASTEIGER

@<TRIPOS>ATOM
      1 O          -0.5161    2.4369   22.6058 O.2     1  UNL1       -0.2866
      2 C           0.5948    1.6251   23.2032 C.2     1  UNL1        0.1957
      3 C           1.5274    0.8596   22.3119 C.2     1  UNL1        0.0420
      4 C           1.1725    0.6340   20.8720 C.2     1  UNL1        0.0033
      5 C           2.1051   -0.1315   19.9807 C.ar    1  UNL1        0.0003
      6 C           2.4443    0.3978   18.6189 C.ar    1  UNL1        0.0031
      7 C           3.3768   -0.3678   17.7276 C.ar    1  UNL1        0.0366
      8 C           3.9701   -1.6626   18.1983 C.ar    1  UNL1        0.1337
      9 O           4.9026   -2.4282   17.3070 O.3     1  UNL1       -0.5055
     10 C           3.6308   -2.1919   19.5601 C.ar    1  UNL1        0.0366
     11 C           2.6983   -1.4263   20.4514 C.ar    1  UNL1        0.0031
     12 H           5.1145   -2.0975   16.4562 H       1  UNL1        0.2922
     13 C           0.7732    1.5789   24.6918 C.2     1  UNL1        0.0420
     14 C          -0.4114    1.7547   25.5949 C.2     1  UNL1        0.0033
     15 C          -0.2330    1.7085   27.0836 C.ar    1  UNL1        0.0003
     16 C          -0.8615    0.6038   27.8803 C.ar    1  UNL1        0.0031
     17 C          -0.6832    0.5576   29.3689 C.ar    1  UNL1        0.0366
     18 C           0.1236    1.6159   30.0608 C.ar    1  UNL1        0.1337
     19 O           0.3020    1.5697   31.5495 O.3     1  UNL1       -0.5055
     20 C           0.7521    2.7206   29.2641 C.ar    1  UNL1        0.0366
     21 C           0.5738    2.7669   27.7755 C.ar    1  UNL1        0.0031
     22 H          -0.0906    0.8797   32.0472 H       1  UNL1        0.2922
@<TRIPOS>BOND
     1     1     2    2
     2     2     3    1
     3     3     4    2
     4     4     5    1
     5     5     6   ar
     6     6     7   ar
     7     7     8   ar
     8     8     9    1
     9     8    10   ar
    10    10    11   ar
    11     2    13    1
    12    13    14    2
    13    14    15    1
    14    15    16   ar
    15    16    17   ar
    16    17    18   ar
    17    18    19    1
    18    18    20   ar
    19    20    21   ar
    20    11     5   ar
    21    21    15   ar
    22     9    12    1
    23    19    22    1
@<TRIPOS>MOLECULE
*****
 22 23 0 0 0
SMALL
GASTEIGER

@<TRIPOS>ATOM
      1 O           8.6337   -3.1887   19.7781 O.2     1  UNL1       -0.2866
      2 C           7.3129   -3.0777   20.4803 C.2     1  UNL1        0.1957
      3 C           7.0560   -3.8744   21.7250 C.2     1  UNL1        0.0420
      4 C           8.1802   -4.6140   22.3876 C.2     1  UNL1        0.0033
      5 C           7.9233   -5.4107   23.6323 C.ar    1  UNL1        0.0003
      6 C           8.4043   -6.8283   23.7281 C.ar    1  UNL1        0.0031
      7 C           8.1473   -7.6249   24.9727 C.ar    1  UNL1        0.0366
      8 C           7.4094   -7.0041   26.1216 C.ar    1  UNL1        0.1337
      9 O           7.1524   -7.8008   27.3663 O.3     1  UNL1       -0.5055
     10 C           6.9283   -5.5866   26.0258 C.ar    1  UNL1        0.0366
     11 C           7.1853   -4.7899   24.7812 C.ar    1  UNL1        0.0031
     12 H           7.4529   -8.6863   27.4262 H       1  UNL1        0.2922
     13 C           6.2491   -2.1700   19.9379 C.2     1  UNL1        0.0420
     14 C           4.8049   -2.4463   20.2342 C.2     1  UNL1        0.0033
     15 C           3.7409   -1.5386   19.6918 C.ar    1  UNL1        0.0003
     16 C           3.9564   -0.8243   18.3904 C.ar    1  UNL1        0.0031
     17 C           2.8925    0.0833   17.8480 C.ar    1  UNL1        0.0366
     18 C           1.6132    0.2768   18.6068 C.ar    1  UNL1        0.1337
     19 O           0.5493    1.1845   18.0644 O.3     1  UNL1       -0.5055
     20 C           1.3978   -0.4374   19.9082 C.ar    1  UNL1        0.0366
     21 C           2.4616   -1.3451   20.4506 C.ar    1  UNL1        0.0031
     22 H           0.6838    1.6306   17.2515 H       1  UNL1        0.2922
@<TRIPOS>BOND
     1     1     2    2
     2     2     3    1
     3     3     4    2
     4     4     5    1
     5     5     6   ar
     6     6     7   ar
     7     7     8   ar
     8     8     9    1
     9     8    10   ar
    10    10    11   ar
    11     2    13    1
    12    13    14    2
    13    14    15    1
    14    15    16   ar
    15    16    17   ar
    16    17    18   ar
    17    18    19    1
    18    18    20   ar
    19    20    21   ar
    20    11     5   ar
    21    21    15   ar
    22     9    12    1
    23    19    22    1
