@<TRIPOS>MOLECULE
*****
 33 37 0 0 0
SMALL
GASTEIGER

@<TRIPOS>ATOM
      1 N          -0.3410    3.0251   19.5312 N.pl3   1  UNL1       -0.2927
      2 H          -0.1881    3.6991   18.8301 H       1  UNL1        0.1541
      3 C          -1.4708    3.1966   20.5029 C.ar    1  UNL1        0.1629
      4 N          -1.3426    3.3101   21.9930 N.ar    1  UNL1       -0.2284
      5 C          -2.7198    3.4684   22.5661 C.ar    1  UNL1        0.0666
      6 C          -3.6992    3.4527   21.4300 C.ar    1  UNL1        0.0237
      7 S          -2.9272    3.2847   20.1549 S.2     1  UNL1       -0.0561
      8 C          -5.1673    3.5934   21.7034 C.3     1  UNL1        0.0343
      9 C          -5.6560    3.7498   23.1129 C.3     1  UNL1        0.0060
     10 C          -4.6767    3.7655   24.2489 C.3     1  UNL1        0.0107
     11 C          -3.2086    3.6248   23.9755 C.3     1  UNL1        0.0627
     12 C          -2.2292    3.6405   25.1116 C.ar    1  UNL1       -0.0169
     13 C          -2.1405    4.8392   26.0089 C.ar    1  UNL1       -0.0039
     14 C          -1.1612    4.8549   27.1449 C.ar    1  UNL1       -0.0003
     15 C          -0.2705    3.6719   27.3837 C.ar    1  UNL1       -0.0000
     16 C          -0.3592    2.4731   26.4864 C.ar    1  UNL1       -0.0003
     17 C          -1.3385    2.4574   25.3504 C.ar    1  UNL1       -0.0039
     18 C           2.3497   -0.5702   19.8211 C.ar    1  UNL1        0.0695
     19 C           1.0591   -0.5358   20.5847 C.ar    1  UNL1        0.0188
     20 C           0.1622    0.6626   20.4881 C.ar    1  UNL1        0.0161
     21 C           0.5559    1.8267   19.6279 C.ar    1  UNL1        0.0498
     22 C           1.8466    1.7923   18.8643 C.ar    1  UNL1        0.0200
     23 C           2.7435    0.5939   18.9609 C.ar    1  UNL1        0.0888
     24 C           4.6595   -5.2089   18.8067 C.3     1  UNL1        0.0538
     25 C           4.3083   -3.9008   19.4514 C.ar    1  UNL1        0.0786
     26 C           3.2584   -2.9390   18.9795 C.ar    1  UNL1        0.0962
     27 N           3.2467   -1.7686   19.9177 N.ar    1  UNL1       -0.2868
     28 C           4.2894   -2.0071   20.9693 C.ar    1  UNL1        0.1825
     29 N           4.9455   -3.3248   20.6812 N.ar    1  UNL1       -0.2280
     30 C           4.0342    0.5595   18.1973 C.3     1  UNL1        0.4200
     31 F           5.3248    0.5251   17.4338 F       1  UNL1       -0.1658
     32 F           4.7173    1.2832   19.3195 F       1  UNL1       -0.1658
     33 F           3.3510   -0.1642   17.0751 F       1  UNL1       -0.1658
@<TRIPOS>BOND
     1    24    25    1
     2    25    26   ar
     3    26    27   ar
     4    27    18    1
     5    18    19   ar
     6    19    20   ar
     7    20    21   ar
     8    21     1    1
     9     1     3    1
    10     3     4   ar
    11     4     5   ar
    12     5     6   ar
    13     6     7   ar
    14     6     8    1
    15     8     9    1
    16     9    10    1
    17    10    11    1
    18    11    12    1
    19    12    13   ar
    20    13    14   ar
    21    14    15   ar
    22    15    16   ar
    23    16    17   ar
    24    21    22   ar
    25    22    23   ar
    26    23    30    1
    27    30    31    1
    28    30    32    1
    29    30    33    1
    30    27    28   ar
    31    28    29   ar
    32    29    25   ar
    33    23    18   ar
    34     7     3   ar
    35    17    12   ar
    36    11     5    1
    37     1     2    1
@<TRIPOS>MOLECULE
*****
 33 37 0 0 0
SMALL
GASTEIGER

@<TRIPOS>ATOM
      1 N          -0.4278    3.0584   24.2256 N.pl3   1  UNL1       -0.2927
      2 H          -1.0742    3.7778   24.0419 H       1  UNL1        0.1541
      3 C           0.1501    2.2623   23.0932 C.ar    1  UNL1        0.1629
      4 N           1.1816    1.1798   23.2127 N.ar    1  UNL1       -0.2284
      5 C           1.4670    0.6574   21.8359 C.ar    1  UNL1        0.0666
      6 C           0.6119    1.4169   20.8654 C.ar    1  UNL1        0.0237
      7 S          -0.2020    2.4088   21.6425 S.2     1  UNL1       -0.0561
      8 C           0.6847    1.1073   19.3996 C.3     1  UNL1        0.0343
      9 C           1.6128    0.0380   18.9042 C.3     1  UNL1        0.0060
     10 C           2.4679   -0.7216   19.8747 C.3     1  UNL1        0.0107
     11 C           2.3950   -0.4119   21.3405 C.3     1  UNL1        0.0627
     12 C           3.2501   -1.1715   22.3110 C.ar    1  UNL1       -0.0169
     13 C           3.3799   -0.6963   23.7278 C.ar    1  UNL1       -0.0039
     14 C           4.2350   -1.4559   24.6982 C.ar    1  UNL1       -0.0003
     15 C           4.9604   -2.6906   24.2519 C.ar    1  UNL1       -0.0000
     16 C           4.8306   -3.1658   22.8351 C.ar    1  UNL1       -0.0003
     17 C           3.9755   -2.4062   21.8646 C.ar    1  UNL1       -0.0039
     18 C           0.7935    2.1584   28.4621 C.ar    1  UNL1        0.0695
     19 C           1.3679    3.3487   27.7528 C.ar    1  UNL1        0.0188
     20 C           0.9608    3.6488   26.3406 C.ar    1  UNL1        0.0161
     21 C          -0.0207    2.7584   25.6377 C.ar    1  UNL1        0.0498
     22 C          -0.5951    1.5681   26.3471 C.ar    1  UNL1        0.0200
     23 C          -0.1880    1.2681   27.7593 C.ar    1  UNL1        0.0888
     24 C           3.4679    0.3529   32.6417 C.3     1  UNL1        0.0538
     25 C           2.4299    1.0285   31.7955 C.ar    1  UNL1        0.0786
     26 C           2.4153    1.0862   30.2966 C.ar    1  UNL1        0.0962
     27 N           1.2005    1.8584   29.8744 N.ar    1  UNL1       -0.2868
     28 C           0.4644    2.2778   31.1122 C.ar    1  UNL1        0.1825
     29 N           1.2241    1.7649   32.2995 N.ar    1  UNL1       -0.2280
     30 C          -0.7625    0.0778   28.4687 C.3     1  UNL1        0.4200
     31 F          -1.3368   -1.1125   29.1780 F       1  UNL1       -0.1658
     32 F           0.5084   -0.6808   28.2248 F       1  UNL1       -0.1658
     33 F          -2.0333    0.8363   28.7126 F       1  UNL1       -0.1658
@<TRIPOS>BOND
     1    24    25    1
     2    25    26   ar
     3    26    27   ar
     4    27    18    1
     5    18    19   ar
     6    19    20   ar
     7    20    21   ar
     8    21     1    1
     9     1     3    1
    10     3     4   ar
    11     4     5   ar
    12     5     6   ar
    13     6     7   ar
    14     6     8    1
    15     8     9    1
    16     9    10    1
    17    10    11    1
    18    11    12    1
    19    12    13   ar
    20    13    14   ar
    21    14    15   ar
    22    15    16   ar
    23    16    17   ar
    24    21    22   ar
    25    22    23   ar
    26    23    30    1
    27    30    31    1
    28    30    32    1
    29    30    33    1
    30    27    28   ar
    31    28    29   ar
    32    29    25   ar
    33    23    18   ar
    34     7     3   ar
    35    17    12   ar
    36    11     5    1
    37     1     2    1
@<TRIPOS>MOLECULE
*****
 33 37 0 0 0
SMALL
GASTEIGER

@<TRIPOS>ATOM
      1 N           0.1538    2.3967   18.9368 N.pl3   1  UNL1       -0.2927
      2 H           0.1350    2.8871   18.0834 H       1  UNL1        0.1541
      3 C          -0.7387    2.8207   20.0653 C.ar    1  UNL1        0.1629
      4 N          -2.1742    3.2388   19.9449 N.ar    1  UNL1       -0.2284
      5 C          -2.6752    3.5775   21.3176 C.ar    1  UNL1        0.0666
      6 C          -1.5493    3.3688   22.2865 C.ar    1  UNL1        0.0237
      7 S          -0.3525    2.9010   21.5125 S.2     1  UNL1       -0.0561
      8 C          -1.7593    3.6315   23.7482 C.3     1  UNL1        0.0343
      9 C          -3.0951    4.1031   24.2411 C.3     1  UNL1        0.0060
     10 C          -4.2210    4.3119   23.2722 C.3     1  UNL1        0.0107
     11 C          -4.0111    4.0491   21.8105 C.3     1  UNL1        0.0627
     12 C          -5.1370    4.2579   20.8416 C.ar    1  UNL1       -0.0169
     13 C          -5.4241    3.2258   19.7917 C.ar    1  UNL1       -0.0039
     14 C          -6.5500    3.4346   18.8228 C.ar    1  UNL1       -0.0003
     15 C          -7.3888    4.6755   18.9038 C.ar    1  UNL1       -0.0000
     16 C          -7.1017    5.7076   19.9537 C.ar    1  UNL1       -0.0003
     17 C          -5.9758    5.4988   20.9226 C.ar    1  UNL1       -0.0039
     18 C           2.9173   -1.1172   19.4519 C.ar    1  UNL1        0.0695
     19 C           1.6791   -1.0075   20.2914 C.ar    1  UNL1        0.0188
     20 C           0.7579    0.1638   20.1197 C.ar    1  UNL1        0.0161
     21 C           1.0749    1.2254   19.1085 C.ar    1  UNL1        0.0498
     22 C           2.3132    1.1156   18.2690 C.ar    1  UNL1        0.0200
     23 C           3.2344   -0.0557   18.4407 C.ar    1  UNL1        0.0888
     24 C           7.0749   -4.0813   20.7972 C.3     1  UNL1        0.0538
     25 C           5.7496   -3.6510   20.2420 C.ar    1  UNL1        0.0786
     26 C           5.1784   -2.2650   20.2976 C.ar    1  UNL1        0.0962
     27 N           3.8385   -2.2886   19.6236 N.ar    1  UNL1       -0.2868
     28 C           3.5816   -3.6890   19.1514 C.ar    1  UNL1        0.1825
     29 N           4.7627   -4.5310   19.5336 N.ar    1  UNL1       -0.2280
     30 C           4.4726   -0.1654   17.6012 C.3     1  UNL1        0.4200
     31 F           5.7108   -0.2752   16.7617 F       1  UNL1       -0.1658
     32 F           3.6962   -0.9058   16.5529 F       1  UNL1       -0.1658
     33 F           5.2490    0.5750   18.6495 F       1  UNL1       -0.1658
@<TRIPOS>BOND
     1    24    25    1
     2    25    26   ar
     3    26    27   ar
     4    27    18    1
     5    18    19   ar
     6    19    20   ar
     7    20    21   ar
     8    21     1    1
     9     1     3    1
    10     3     4   ar
    11     4     5   ar
    12     5     6   ar
    13     6     7   ar
    14     6     8    1
    15     8     9    1
    16     9    10    1
    17    10    11    1
    18    11    12    1
    19    12    13   ar
    20    13    14   ar
    21    14    15   ar
    22    15    16   ar
    23    16    17   ar
    24    21    22   ar
    25    22    23   ar
    26    23    30    1
    27    30    31    1
    28    30    32    1
    29    30    33    1
    30    27    28   ar
    31    28    29   ar
    32    29    25   ar
    33    23    18   ar
    34     7     3   ar
    35    17    12   ar
    36    11     5    1
    37     1     2    1
@<TRIPOS>MOLECULE
*****
 33 37 0 0 0
SMALL
GASTEIGER

@<TRIPOS>ATOM
      1 N           0.5274    1.7309   23.1297 N.pl3   1  UNL1       -0.2927
      2 H          -0.3853    1.9978   22.8748 H       1  UNL1        0.1541
      3 C           1.5840    1.5721   22.0769 C.ar    1  UNL1        0.1629
      4 N           2.2001    0.2781   21.6343 N.ar    1  UNL1       -0.2284
      5 C           3.2068    0.5855   20.5656 C.ar    1  UNL1        0.0666
      6 C           3.2129    2.0696   20.3478 C.ar    1  UNL1        0.0237
      7 S           2.2099    2.6793   21.2818 S.2     1  UNL1       -0.0561
      8 C           4.1309    2.6741   19.3271 C.3     1  UNL1        0.0343
      9 C           5.0428    1.7944   18.5242 C.3     1  UNL1        0.0060
     10 C           5.0368    0.3103   18.7421 C.3     1  UNL1        0.0107
     11 C           4.1188   -0.2941   19.7628 C.3     1  UNL1        0.0627
     12 C           4.1127   -1.7782   19.9807 C.ar    1  UNL1       -0.0169
     13 C           4.5230   -2.3430   21.3083 C.ar    1  UNL1       -0.0039
     14 C           4.5169   -3.8271   21.5262 C.ar    1  UNL1       -0.0003
     15 C           4.1006   -4.7463   20.4165 C.ar    1  UNL1       -0.0000
     16 C           3.6903   -4.1815   19.0888 C.ar    1  UNL1       -0.0003
     17 C           3.6964   -2.6975   18.8710 C.ar    1  UNL1       -0.0039
     18 C           1.5296    0.9880   27.4533 C.ar    1  UNL1        0.0695
     19 C           2.6283    1.2022   26.4549 C.ar    1  UNL1        0.0188
     20 C           2.2943    1.4499   25.0136 C.ar    1  UNL1        0.0161
     21 C           0.8615    1.4833   24.5709 C.ar    1  UNL1        0.0498
     22 C          -0.2372    1.2690   25.5694 C.ar    1  UNL1        0.0200
     23 C           0.0969    1.0214   27.0106 C.ar    1  UNL1        0.0888
     24 C           2.4306    1.7436   32.6010 C.3     1  UNL1        0.0538
     25 C           2.2778    1.0876   31.2607 C.ar    1  UNL1        0.0786
     26 C           1.8984    1.7733   29.9816 C.ar    1  UNL1        0.0962
     27 N           1.8637    0.7403   28.8946 N.ar    1  UNL1       -0.2868
     28 C           2.2216   -0.5838   29.5017 C.ar    1  UNL1        0.1825
     29 N           2.4776   -0.3691   30.9641 N.ar    1  UNL1       -0.2280
     30 C          -1.0019    0.8071   28.0091 C.3     1  UNL1        0.4200
     31 F          -2.1005    0.5928   29.0075 F       1  UNL1       -0.1658
     32 F          -0.7701   -0.6735   27.9464 F       1  UNL1       -0.1658
     33 F          -1.2337    2.2877   28.0718 F       1  UNL1       -0.1658
@<TRIPOS>BOND
     1    24    25    1
     2    25    26   ar
     3    26    27   ar
     4    27    18    1
     5    18    19   ar
     6    19    20   ar
     7    20    21   ar
     8    21     1    1
     9     1     3    1
    10     3     4   ar
    11     4     5   ar
    12     5     6   ar
    13     6     7   ar
    14     6     8    1
    15     8     9    1
    16     9    10    1
    17    10    11    1
    18    11    12    1
    19    12    13   ar
    20    13    14   ar
    21    14    15   ar
    22    15    16   ar
    23    16    17   ar
    24    21    22   ar
    25    22    23   ar
    26    23    30    1
    27    30    31    1
    28    30    32    1
    29    30    33    1
    30    27    28   ar
    31    28    29   ar
    32    29    25   ar
    33    23    18   ar
    34     7     3   ar
    35    17    12   ar
    36    11     5    1
    37     1     2    1
@<TRIPOS>MOLECULE
*****
 33 37 0 0 0
SMALL
GASTEIGER

@<TRIPOS>ATOM
      1 N           0.9808    3.3795   19.9472 N.pl3   1  UNL1       -0.2927
      2 H           1.4187    4.1548   20.3674 H       1  UNL1        0.1541
      3 C          -0.3400    3.5475   19.2564 C.ar    1  UNL1        0.1629
      4 N          -1.6788    3.6455   19.9256 N.ar    1  UNL1       -0.2284
      5 C          -2.7202    3.8055   18.8579 C.ar    1  UNL1        0.0666
      6 C          -2.0249    3.8064   17.5288 C.ar    1  UNL1        0.0237
      7 S          -0.5539    3.6470   17.7751 S.2     1  UNL1       -0.0561
      8 C          -2.8211    3.9524   16.2659 C.3     1  UNL1        0.0343
      9 C          -4.3126    4.0973   16.3323 C.3     1  UNL1        0.0060
     10 C          -5.0079    4.0964   17.6614 C.3     1  UNL1        0.0107
     11 C          -4.2117    3.9505   18.9242 C.3     1  UNL1        0.0627
     12 C          -4.9069    3.9495   20.2533 C.ar    1  UNL1       -0.0169
     13 C          -4.3850    3.0976   21.3722 C.ar    1  UNL1       -0.0039
     14 C          -5.0803    3.0967   22.7013 C.ar    1  UNL1       -0.0003
     15 C          -6.2975    3.9476   22.9116 C.ar    1  UNL1       -0.0000
     16 C          -6.8194    4.7994   21.7928 C.ar    1  UNL1       -0.0003
     17 C          -6.1242    4.8004   20.4636 C.ar    1  UNL1       -0.0039
     18 C           2.9422   -0.6677   20.0988 C.ar    1  UNL1        0.0695
     19 C           1.9380   -0.2813   21.1438 C.ar    1  UNL1        0.0188
     20 C           1.2842    1.0678   21.0933 C.ar    1  UNL1        0.0161
     21 C           1.6346    2.0305   19.9977 C.ar    1  UNL1        0.0498
     22 C           2.6389    1.6441   18.9526 C.ar    1  UNL1        0.0200
     23 C           3.2927    0.2950   19.0031 C.ar    1  UNL1        0.0888
     24 C           4.5658   -5.5141   18.7730 C.3     1  UNL1        0.0538
     25 C           4.3423   -4.2444   19.5398 C.ar    1  UNL1        0.0786
     26 C           3.5599   -3.0550   19.0672 C.ar    1  UNL1        0.0962
     27 N           3.5961   -2.0168   20.1493 N.ar    1  UNL1       -0.2868
     28 C           4.4008   -2.5644   21.2905 C.ar    1  UNL1        0.1825
     29 N           4.8620   -3.9412   20.9139 N.ar    1  UNL1       -0.2280
     30 C           4.2969   -0.0914   17.9580 C.3     1  UNL1        0.4200
     31 F           5.3012   -0.4777   16.9130 F       1  UNL1       -0.1658
     32 F           5.4110    0.2755   18.8930 F       1  UNL1       -0.1658
     33 F           3.1829   -0.4582   17.0230 F       1  UNL1       -0.1658
@<TRIPOS>BOND
     1    24    25    1
     2    25    26   ar
     3    26    27   ar
     4    27    18    1
     5    18    19   ar
     6    19    20   ar
     7    20    21   ar
     8    21     1    1
     9     1     3    1
    10     3     4   ar
    11     4     5   ar
    12     5     6   ar
    13     6     7   ar
    14     6     8    1
    15     8     9    1
    16     9    10    1
    17    10    11    1
    18    11    12    1
    19    12    13   ar
    20    13    14   ar
    21    14    15   ar
    22    15    16   ar
    23    16    17   ar
    24    21    22   ar
    25    22    23   ar
    26    23    30    1
    27    30    31    1
    28    30    32    1
    29    30    33    1
    30    27    28   ar
    31    28    29   ar
    32    29    25   ar
    33    23    18   ar
    34     7     3   ar
    35    17    12   ar
    36    11     5    1
    37     1     2    1
@<TRIPOS>MOLECULE
*****
 33 37 0 0 0
SMALL
GASTEIGER

@<TRIPOS>ATOM
      1 N           1.1754    3.3784   32.7224 N.pl3   1  UNL1       -0.2927
      2 H           0.5158    4.0688   32.9622 H       1  UNL1        0.1541
      3 C           2.0567    2.7834   33.7804 C.ar    1  UNL1        0.1629
      4 N           2.9703    1.6063   33.6075 N.ar    1  UNL1       -0.2284
      5 C           3.6574    1.3565   34.9173 C.ar    1  UNL1        0.0666
      6 C           3.1685    2.3792   35.8997 C.ar    1  UNL1        0.0237
      7 S           2.1792    3.2610   35.1970 S.2     1  UNL1       -0.0561
      8 C           3.6872    2.3752   37.3071 C.3     1  UNL1        0.0343
      9 C           4.6949    1.3487   37.7321 C.3     1  UNL1        0.0060
     10 C           5.1838    0.3260   36.7497 C.3     1  UNL1        0.0107
     11 C           4.6650    0.3299   35.3423 C.3     1  UNL1        0.0627
     12 C           5.1540   -0.6928   34.3599 C.ar    1  UNL1       -0.0169
     13 C           4.2516   -1.8110   33.9297 C.ar    1  UNL1       -0.0039
     14 C           4.7405   -2.8337   32.9473 C.ar    1  UNL1       -0.0003
     15 C           6.1318   -2.7381   32.3951 C.ar    1  UNL1       -0.0000
     16 C           7.0342   -1.6198   32.8252 C.ar    1  UNL1       -0.0003
     17 C           6.5453   -0.5972   33.8076 C.ar    1  UNL1       -0.0039
     18 C           1.5464    2.0076   28.4524 C.ar    1  UNL1        0.0695
     19 C           2.4280    3.1069   28.9664 C.ar    1  UNL1        0.0188
     20 C           2.3044    3.5638   30.3898 C.ar    1  UNL1        0.0161
     21 C           1.2991    2.9215   31.2991 C.ar    1  UNL1        0.0498
     22 C           0.4174    1.8222   30.7849 C.ar    1  UNL1        0.0200
     23 C           0.5411    1.3653   29.3616 C.ar    1  UNL1        0.0888
     24 C           3.1892   -0.5087   24.1106 C.3     1  UNL1        0.0538
     25 C           2.4252    0.3940   25.0333 C.ar    1  UNL1        0.0786
     26 C           2.6567    0.5484   26.5074 C.ar    1  UNL1        0.0962
     27 N           1.6700    1.5507   27.0290 N.ar    1  UNL1       -0.2868
     28 C           0.8289    2.0157   25.8774 C.ar    1  UNL1        0.1825
     29 N           1.2955    1.3009   24.6440 N.ar    1  UNL1       -0.2280
     30 C          -0.3405    0.2659   28.8475 C.3     1  UNL1        0.4200
     31 F          -1.2221   -0.8333   28.3334 F       1  UNL1       -0.1658
     32 F           0.6875   -0.7482   29.2532 F       1  UNL1       -0.1658
     33 F          -1.3686    1.2801   28.4418 F       1  UNL1       -0.1658
@<TRIPOS>BOND
     1    24    25    1
     2    25    26   ar
     3    26    27   ar
     4    27    18    1
     5    18    19   ar
     6    19    20   ar
     7    20    21   ar
     8    21     1    1
     9     1     3    1
    10     3     4   ar
    11     4     5   ar
    12     5     6   ar
    13     6     7   ar
    14     6     8    1
    15     8     9    1
    16     9    10    1
    17    10    11    1
    18    11    12    1
    19    12    13   ar
    20    13    14   ar
    21    14    15   ar
    22    15    16   ar
    23    16    17   ar
    24    21    22   ar
    25    22    23   ar
    26    23    30    1
    27    30    31    1
    28    30    32    1
    29    30    33    1
    30    27    28   ar
    31    28    29   ar
    32    29    25   ar
    33    23    18   ar
    34     7     3   ar
    35    17    12   ar
    36    11     5    1
    37     1     2    1
@<TRIPOS>MOLECULE
*****
 33 37 0 0 0
SMALL
GASTEIGER

@<TRIPOS>ATOM
      1 N           5.6173   -1.3258   24.6210 N.pl3   1  UNL1       -0.2927
      2 H           6.5812   -1.2407   24.8023 H       1  UNL1        0.1541
      3 C           5.1471   -1.9248   23.3287 C.ar    1  UNL1        0.1629
      4 N           4.2241   -1.2758   22.3403 N.ar    1  UNL1       -0.2284
      5 C           4.0239   -2.2278   21.1986 C.ar    1  UNL1        0.0666
      6 C           4.8233   -3.4652   21.4813 C.ar    1  UNL1        0.0237
      7 S           5.5174   -3.2779   22.7977 S.2     1  UNL1       -0.0561
      8 C           4.8158   -4.6026   20.5034 C.3     1  UNL1        0.0343
      9 C           4.0090   -4.5026   19.2429 C.3     1  UNL1        0.0060
     10 C           3.2096   -3.2653   18.9602 C.3     1  UNL1        0.0107
     11 C           3.2171   -2.1279   19.9380 C.3     1  UNL1        0.0627
     12 C           2.4178   -0.8905   19.6553 C.ar    1  UNL1       -0.0169
     13 C           1.1187   -0.6577   20.3681 C.ar    1  UNL1       -0.0039
     14 C           0.3193    0.5797   20.0854 C.ar    1  UNL1       -0.0003
     15 C           0.8190    1.5843   19.0900 C.ar    1  UNL1       -0.0000
     16 C           2.1181    1.3515   18.3772 C.ar    1  UNL1       -0.0003
     17 C           2.9175    0.1141   18.6598 C.ar    1  UNL1       -0.0039
     18 C           2.6218    0.0823   27.6697 C.ar    1  UNL1        0.0695
     19 C           3.5461   -1.0533   27.9954 C.ar    1  UNL1        0.0188
     20 C           4.5446   -1.5227   26.9791 C.ar    1  UNL1        0.0161
     21 C           4.6188   -0.8565   25.6372 C.ar    1  UNL1        0.0498
     22 C           3.6944    0.2792   25.3116 C.ar    1  UNL1        0.0200
     23 C           2.6960    0.7485   26.3278 C.ar    1  UNL1        0.0888
     24 C           0.3744    2.7103   31.6602 C.3     1  UNL1        0.0538
     25 C           0.5903    1.7597   30.5201 C.ar    1  UNL1        0.0786
     26 C           1.8512    1.6134   29.7208 C.ar    1  UNL1        0.0962
     27 N           1.6232    0.5517   28.6859 N.ar    1  UNL1       -0.2868
     28 C           0.2216    0.0419   28.8456 C.ar    1  UNL1        0.1825
     29 N          -0.4168    0.7885   29.9792 N.ar    1  UNL1       -0.2280
     30 C           1.7716    1.8842   26.0021 C.3     1  UNL1        0.4200
     31 F           0.8473    3.0197   25.6765 F       1  UNL1       -0.1658
     32 F           0.7803    0.9136   25.4318 F       1  UNL1       -0.1658
     33 F           2.7629    2.8547   26.5724 F       1  UNL1       -0.1658
@<TRIPOS>BOND
     1    24    25    1
     2    25    26   ar
     3    26    27   ar
     4    27    18    1
     5    18    19   ar
     6    19    20   ar
     7    20    21   ar
     8    21     1    1
     9     1     3    1
    10     3     4   ar
    11     4     5   ar
    12     5     6   ar
    13     6     7   ar
    14     6     8    1
    15     8     9    1
    16     9    10    1
    17    10    11    1
    18    11    12    1
    19    12    13   ar
    20    13    14   ar
    21    14    15   ar
    22    15    16   ar
    23    16    17   ar
    24    21    22   ar
    25    22    23   ar
    26    23    30    1
    27    30    31    1
    28    30    32    1
    29    30    33    1
    30    27    28   ar
    31    28    29   ar
    32    29    25   ar
    33    23    18   ar
    34     7     3   ar
    35    17    12   ar
    36    11     5    1
    37     1     2    1
@<TRIPOS>MOLECULE
*****
 33 37 0 0 0
SMALL
GASTEIGER

@<TRIPOS>ATOM
      1 N           7.6755   -1.7994   23.9883 N.pl3   1  UNL1       -0.2927
      2 H           8.2287   -0.9899   23.8991 H       1  UNL1        0.1541
      3 C           6.7831   -2.2259   22.8605 C.ar    1  UNL1        0.1629
      4 N           5.4510   -1.6286   22.5160 N.ar    1  UNL1       -0.2284
      5 C           4.9107   -2.3581   21.3219 C.ar    1  UNL1        0.0666
      6 C           5.9090   -3.4062   20.9283 C.ar    1  UNL1        0.0237
      7 S           7.0662   -3.3245   21.8793 S.2     1  UNL1       -0.0561
      8 C           5.6353   -4.2997   19.7550 C.3     1  UNL1        0.0343
      9 C           4.3634   -4.1449   18.9751 C.3     1  UNL1        0.0060
     10 C           3.3652   -3.0968   19.3686 C.3     1  UNL1        0.0107
     11 C           3.6388   -2.2033   20.5420 C.3     1  UNL1        0.0627
     12 C           2.6406   -1.1552   20.9355 C.ar    1  UNL1       -0.0169
     13 C           2.7940   -0.4241   22.2362 C.ar    1  UNL1       -0.0039
     14 C           1.7958    0.6241   22.6298 C.ar    1  UNL1       -0.0003
     15 C           0.6441    0.9411   21.7226 C.ar    1  UNL1       -0.0000
     16 C           0.4906    0.2100   20.4219 C.ar    1  UNL1       -0.0003
     17 C           1.4889   -0.8381   20.0283 C.ar    1  UNL1       -0.0039
     18 C           7.8239   -4.2198   27.7789 C.ar    1  UNL1        0.0695
     19 C           8.0261   -2.7344   27.8292 C.ar    1  UNL1        0.0188
     20 C           7.9766   -1.9275   26.5656 C.ar    1  UNL1        0.0161
     21 C           7.7250   -2.6062   25.2518 C.ar    1  UNL1        0.0498
     22 C           7.5227   -4.0917   25.2016 C.ar    1  UNL1        0.0200
     23 C           7.5722   -4.8985   26.4651 C.ar    1  UNL1        0.0888
     24 C           9.5353   -7.3319   31.6863 C.3     1  UNL1        0.0538
     25 C           8.6601   -6.4572   30.8385 C.ar    1  UNL1        0.0786
     26 C           9.0521   -5.8064   29.5451 C.ar    1  UNL1        0.0962
     27 N           7.8733   -5.0267   29.0425 N.ar    1  UNL1       -0.2868
     28 C           6.7528   -5.1955   30.0253 C.ar    1  UNL1        0.1825
     29 N           7.2390   -6.0795   31.1353 N.ar    1  UNL1       -0.2280
     30 C           7.3700   -6.3840   26.4149 C.3     1  UNL1        0.4200
     31 F           7.1677   -7.8694   26.3647 F       1  UNL1       -0.1658
     32 F           5.9409   -6.2035   26.8334 F       1  UNL1       -0.1658
     33 F           8.7990   -6.5644   25.9964 F       1  UNL1       -0.1658
@<TRIPOS>BOND
     1    24    25    1
     2    25    26   ar
     3    26    27   ar
     4    27    18    1
     5    18    19   ar
     6    19    20   ar
     7    20    21   ar
     8    21     1    1
     9     1     3    1
    10     3     4   ar
    11     4     5   ar
    12     5     6   ar
    13     6     7   ar
    14     6     8    1
    15     8     9    1
    16     9    10    1
    17    10    11    1
    18    11    12    1
    19    12    13   ar
    20    13    14   ar
    21    14    15   ar
    22    15    16   ar
    23    16    17   ar
    24    21    22   ar
    25    22    23   ar
    26    23    30    1
    27    30    31    1
    28    30    32    1
    29    30    33    1
    30    27    28   ar
    31    28    29   ar
    32    29    25   ar
    33    23    18   ar
    34     7     3   ar
    35    17    12   ar
    36    11     5    1
    37     1     2    1
@<TRIPOS>MOLECULE
*****
 33 37 0 0 0
SMALL
GASTEIGER

@<TRIPOS>ATOM
      1 N           4.0639    0.0235   25.7978 N.pl3   1  UNL1       -0.2927
      2 H           4.8036   -0.0097   26.4466 H       1  UNL1        0.1541
      3 C           4.1208   -0.8102   24.5521 C.ar    1  UNL1        0.1629
      4 N           3.5009   -0.4645   23.2307 N.ar    1  UNL1       -0.2284
      5 C           3.8047   -1.5766   22.2710 C.ar    1  UNL1        0.0666
      6 C           4.6124   -2.6096   22.9993 C.ar    1  UNL1        0.0237
      7 S           4.8078   -2.1360   24.4091 S.2     1  UNL1       -0.0561
      8 C           5.0656   -3.8481   22.2847 C.3     1  UNL1        0.0343
      9 C           4.7111   -4.0536   20.8418 C.3     1  UNL1        0.0060
     10 C           3.9033   -3.0205   20.1135 C.3     1  UNL1        0.0107
     11 C           3.4501   -1.7820   20.8281 C.3     1  UNL1        0.0627
     12 C           2.6424   -0.7490   20.0998 C.ar    1  UNL1       -0.0169
     13 C           3.2581    0.0277   18.9739 C.ar    1  UNL1       -0.0039
     14 C           2.4504    1.0607   18.2456 C.ar    1  UNL1       -0.0003
     15 C           1.0270    1.3170   18.6432 C.ar    1  UNL1       -0.0000
     16 C           0.4113    0.5404   19.7691 C.ar    1  UNL1       -0.0003
     17 C           1.2190   -0.4927   20.4974 C.ar    1  UNL1       -0.0039
     18 C           0.5116    2.6760   26.5695 C.ar    1  UNL1        0.0695
     19 C           1.4368    2.9750   25.4274 C.ar    1  UNL1        0.0188
     20 C           2.6210    2.0908   25.1701 C.ar    1  UNL1        0.0161
     21 C           2.8798    0.9076   26.0550 C.ar    1  UNL1        0.0498
     22 C           1.9545    0.6086   27.1972 C.ar    1  UNL1        0.0200
     23 C           0.7705    1.4928   27.4544 C.ar    1  UNL1        0.0888
     24 C          -4.4161    4.5711   26.6561 C.3     1  UNL1        0.0538
     25 C          -2.9376    4.4312   26.8666 C.ar    1  UNL1        0.0786
     26 C          -2.0850    3.2878   26.4018 C.ar    1  UNL1        0.0962
     27 N          -0.6725    3.5602   26.8268 N.ar    1  UNL1       -0.2868
     28 C          -0.6520    4.8719   27.5541 C.ar    1  UNL1        0.1825
     29 N          -2.0518    5.4102   27.5788 N.ar    1  UNL1       -0.2280
     30 C          -0.1548    1.1938   28.5966 C.3     1  UNL1        0.4200
     31 F          -1.0801    0.8948   29.7388 F       1  UNL1       -0.1658
     32 F           0.6617    2.0798   29.4900 F       1  UNL1       -0.1658
     33 F          -0.9714    0.3078   27.7032 F       1  UNL1       -0.1658
@<TRIPOS>BOND
     1    24    25    1
     2    25    26   ar
     3    26    27   ar
     4    27    18    1
     5    18    19   ar
     6    19    20   ar
     7    20    21   ar
     8    21     1    1
     9     1     3    1
    10     3     4   ar
    11     4     5   ar
    12     5     6   ar
    13     6     7   ar
    14     6     8    1
    15     8     9    1
    16     9    10    1
    17    10    11    1
    18    11    12    1
    19    12    13   ar
    20    13    14   ar
    21    14    15   ar
    22    15    16   ar
    23    16    17   ar
    24    21    22   ar
    25    22    23   ar
    26    23    30    1
    27    30    31    1
    28    30    32    1
    29    30    33    1
    30    27    28   ar
    31    28    29   ar
    32    29    25   ar
    33    23    18   ar
    34     7     3   ar
    35    17    12   ar
    36    11     5    1
    37     1     2    1
