@<TRIPOS>MOLECULE
*****
 19 20 0 0 0
SMALL
GASTEIGER

@<TRIPOS>ATOM
      1 C          -3.8111  -19.4405   20.5255 C.ar    1  UNL1        0.0831
      2 C          -4.7046  -20.5521   20.0609 C.ar    1  UNL1        0.0188
      3 C          -6.0277  -20.7802   20.7298 C.ar    1  UNL1       -0.0024
      4 C          -6.4573  -19.8966   21.8633 C.ar    1  UNL1       -0.0177
      5 C          -5.5638  -18.7850   22.3278 C.ar    1  UNL1       -0.0024
      6 C          -4.2407  -18.5569   21.6589 C.ar    1  UNL1        0.0188
      7 C          -2.2772  -17.9943   19.0071 C.2     1  UNL1        0.1958
      8 N          -2.4880  -19.2125   19.8566 N.2     1  UNL1       -0.2242
      9 O          -0.8641  -17.7469   16.8410 O.3     1  UNL1       -0.2879
     10 N          -0.9541  -17.7662   18.3382 N.3     1  UNL1       -0.2481
     11 H           0.0551  -17.5890   16.5743 H       1  UNL1        0.2442
     12 H          -0.1448  -17.6293   18.8818 H       1  UNL1        0.1956
     13 C          -7.7804  -20.1247   22.5322 C.3     1  UNL1        0.0526
     14 C          -9.0294  -19.5395   21.9429 C.ar    1  UNL1       -0.0178
     15 C         -10.2132  -19.2598   22.8207 C.ar    1  UNL1       -0.0039
     16 C         -11.4623  -18.6746   22.2314 C.ar    1  UNL1       -0.0003
     17 C         -11.5277  -18.3691   20.7643 C.ar    1  UNL1       -0.0000
     18 C         -10.3440  -18.6488   19.8865 C.ar    1  UNL1       -0.0003
     19 C          -9.0948  -19.2340   20.4758 C.ar    1  UNL1       -0.0039
@<TRIPOS>BOND
     1     9    10    1
     2    10     7    1
     3     7     8    2
     4     8     1    1
     5     1     2   ar
     6     2     3   ar
     7     3     4   ar
     8     4    13    1
     9    13    14    1
    10    14    15   ar
    11    15    16   ar
    12    16    17   ar
    13    17    18   ar
    14    18    19   ar
    15     4     5   ar
    16     5     6   ar
    17     6     1   ar
    18    19    14   ar
    19     9    11    1
    20    10    12    1
@<TRIPOS>MOLECULE
*****
 19 20 0 0 0
SMALL
GASTEIGER

@<TRIPOS>ATOM
      1 C          -9.1913  -18.4889   21.0854 C.ar    1  UNL1        0.0831
      2 C          -8.9224  -19.3124   19.8609 C.ar    1  UNL1        0.0188
      3 C          -7.6035  -20.0086   19.7001 C.ar    1  UNL1       -0.0024
      4 C          -6.5536  -19.8813   20.7637 C.ar    1  UNL1       -0.0177
      5 C          -6.8225  -19.0578   21.9882 C.ar    1  UNL1       -0.0024
      6 C          -8.1413  -18.3616   22.1491 C.ar    1  UNL1        0.0188
      7 C         -11.2145  -17.2337   20.0458 C.2     1  UNL1        0.1958
      8 N         -10.5101  -17.7926   21.2463 N.2     1  UNL1       -0.2242
      9 O         -12.9669  -15.5108   19.2026 O.3     1  UNL1       -0.2879
     10 N         -12.5334  -16.5374   20.2066 N.3     1  UNL1       -0.2481
     11 H         -13.8362  -15.1607   19.4528 H       1  UNL1        0.2442
     12 H         -13.1145  -16.7543   20.9712 H       1  UNL1        0.1956
     13 C          -5.2347  -20.5776   20.6028 C.3     1  UNL1        0.0526
     14 C          -3.9625  -19.7830   20.6003 C.ar    1  UNL1       -0.0178
     15 C          -3.4419  -19.2047   19.3179 C.ar    1  UNL1       -0.0039
     16 C          -2.1697  -18.4101   19.3154 C.ar    1  UNL1       -0.0003
     17 C          -1.4181  -18.1937   20.5953 C.ar    1  UNL1       -0.0000
     18 C          -1.9386  -18.7719   21.8777 C.ar    1  UNL1       -0.0003
     19 C          -3.2109  -19.5666   21.8803 C.ar    1  UNL1       -0.0039
@<TRIPOS>BOND
     1     9    10    1
     2    10     7    1
     3     7     8    2
     4     8     1    1
     5     1     2   ar
     6     2     3   ar
     7     3     4   ar
     8     4    13    1
     9    13    14    1
    10    14    15   ar
    11    15    16   ar
    12    16    17   ar
    13    17    18   ar
    14    18    19   ar
    15     4     5   ar
    16     5     6   ar
    17     6     1   ar
    18    19    14   ar
    19     9    11    1
    20    10    12    1
@<TRIPOS>MOLECULE
*****
 19 20 0 0 0
SMALL
GASTEIGER

@<TRIPOS>ATOM
      1 C          -9.3299  -18.8794   20.9247 C.ar    1  UNL1        0.0831
      2 C          -8.8500  -19.3308   19.5772 C.ar    1  UNL1        0.0188
      3 C          -7.4930  -19.9540   19.4344 C.ar    1  UNL1       -0.0024
      4 C          -6.6160  -20.1257   20.6390 C.ar    1  UNL1       -0.0177
      5 C          -7.0959  -19.6742   21.9866 C.ar    1  UNL1       -0.0024
      6 C          -8.4528  -19.0511   22.1294 C.ar    1  UNL1        0.0188
      7 C         -11.1148  -17.1676   20.1286 C.2     1  UNL1        0.1958
      8 N         -10.6868  -18.2562   21.0676 N.2     1  UNL1       -0.2242
      9 O         -12.9506  -15.5493   19.2564 O.3     1  UNL1       -0.2879
     10 N         -12.4717  -16.5445   20.2715 N.3     1  UNL1       -0.2481
     11 H         -13.8406  -15.2463   19.4955 H       1  UNL1        0.2442
     12 H         -13.0480  -16.7887   21.0314 H       1  UNL1        0.1956
     13 C          -5.2590  -20.7488   20.4962 C.3     1  UNL1        0.0526
     14 C          -4.0300  -19.8908   20.5521 C.ar    1  UNL1       -0.0178
     15 C          -3.3233  -19.6770   21.8579 C.ar    1  UNL1       -0.0039
     16 C          -2.0943  -18.8190   21.9138 C.ar    1  UNL1       -0.0003
     17 C          -1.5719  -18.1746   20.6640 C.ar    1  UNL1       -0.0000
     18 C          -2.2786  -18.3882   19.3583 C.ar    1  UNL1       -0.0003
     19 C          -3.5077  -19.2464   19.3024 C.ar    1  UNL1       -0.0039
@<TRIPOS>BOND
     1     9    10    1
     2    10     7    1
     3     7     8    2
     4     8     1    1
     5     1     2   ar
     6     2     3   ar
     7     3     4   ar
     8     4    13    1
     9    13    14    1
    10    14    15   ar
    11    15    16   ar
    12    16    17   ar
    13    17    18   ar
    14    18    19   ar
    15     4     5   ar
    16     5     6   ar
    17     6     1   ar
    18    19    14   ar
    19     9    11    1
    20    10    12    1
@<TRIPOS>MOLECULE
*****
 19 20 0 0 0
SMALL
GASTEIGER

@<TRIPOS>ATOM
      1 C         -10.9025  -18.9652   23.4138 C.ar    1  UNL1        0.0831
      2 C         -10.9138  -18.1891   22.1302 C.ar    1  UNL1        0.0188
      3 C          -9.7773  -18.3261   21.1609 C.ar    1  UNL1       -0.0024
      4 C          -8.6295  -19.2392   21.4751 C.ar    1  UNL1       -0.0177
      5 C          -8.6182  -20.0153   22.7586 C.ar    1  UNL1       -0.0024
      6 C          -9.7546  -19.8782   23.7280 C.ar    1  UNL1        0.0188
      7 C         -13.3352  -18.2189   23.9378 C.2     1  UNL1        0.1958
      8 N         -12.0389  -18.8281   24.3831 N.2     1  UNL1       -0.2242
      9 O         -14.3777  -18.7089   26.2666 O.3     1  UNL1       -0.2879
     10 N         -14.4717  -18.0819   24.9072 N.3     1  UNL1       -0.2481
     11 H         -15.1906  -18.5269   26.7636 H       1  UNL1        0.2442
     12 H         -15.2793  -17.5804   24.6512 H       1  UNL1        0.1956
     13 C          -7.4930  -19.3762   20.5057 C.3     1  UNL1        0.0526
     14 C          -6.0776  -19.3559   21.0017 C.ar    1  UNL1       -0.0178
     15 C          -5.7247  -18.5714   22.2306 C.ar    1  UNL1       -0.0039
     16 C          -4.3092  -18.5511   22.7266 C.ar    1  UNL1       -0.0003
     17 C          -3.2467  -19.3153   21.9939 C.ar    1  UNL1       -0.0000
     18 C          -3.5995  -20.0998   20.7651 C.ar    1  UNL1       -0.0003
     19 C          -5.0150  -20.1201   20.2690 C.ar    1  UNL1       -0.0039
@<TRIPOS>BOND
     1     9    10    1
     2    10     7    1
     3     7     8    2
     4     8     1    1
     5     1     2   ar
     6     2     3   ar
     7     3     4   ar
     8     4    13    1
     9    13    14    1
    10    14    15   ar
    11    15    16   ar
    12    16    17   ar
    13    17    18   ar
    14    18    19   ar
    15     4     5   ar
    16     5     6   ar
    17     6     1   ar
    18    19    14   ar
    19     9    11    1
    20    10    12    1
@<TRIPOS>MOLECULE
*****
 19 20 0 0 0
SMALL
GASTEIGER

@<TRIPOS>ATOM
      1 C          -5.5926  -18.8990   21.2632 C.ar    1  UNL1        0.0831
      2 C          -6.0825  -19.5685   20.0135 C.ar    1  UNL1        0.0188
      3 C          -7.5538  -19.7596   19.7925 C.ar    1  UNL1       -0.0024
      4 C          -8.5351  -19.2812   20.8211 C.ar    1  UNL1       -0.0177
      5 C          -8.0451  -18.6117   22.0708 C.ar    1  UNL1       -0.0024
      6 C          -6.5739  -18.4206   22.2918 C.ar    1  UNL1        0.0188
      7 C          -3.1645  -18.8637   20.3396 C.2     1  UNL1        0.1958
      8 N          -4.1213  -18.7079   21.4842 N.2     1  UNL1       -0.2242
      9 O          -1.1395  -18.6610   21.9547 O.3     1  UNL1       -0.2879
     10 N          -1.6932  -18.6726   20.5606 N.3     1  UNL1       -0.2481
     11 H          -0.1793  -18.5280   21.9201 H       1  UNL1        0.2442
     12 H          -1.0910  -18.5548   19.7907 H       1  UNL1        0.1956
     13 C         -10.0064  -19.4723   20.6001 C.3     1  UNL1        0.0526
     14 C         -10.9934  -18.6301   21.3525 C.ar    1  UNL1       -0.0178
     15 C         -11.4800  -17.3389   20.7640 C.ar    1  UNL1       -0.0039
     16 C         -12.4671  -16.4966   21.5164 C.ar    1  UNL1       -0.0003
     17 C         -12.9677  -16.9454   22.8573 C.ar    1  UNL1       -0.0000
     18 C         -12.4811  -18.2365   23.4458 C.ar    1  UNL1       -0.0003
     19 C         -11.4940  -19.0788   22.6934 C.ar    1  UNL1       -0.0039
@<TRIPOS>BOND
     1     9    10    1
     2    10     7    1
     3     7     8    2
     4     8     1    1
     5     1     2   ar
     6     2     3   ar
     7     3     4   ar
     8     4    13    1
     9    13    14    1
    10    14    15   ar
    11    15    16   ar
    12    16    17   ar
    13    17    18   ar
    14    18    19   ar
    15     4     5   ar
    16     5     6   ar
    17     6     1   ar
    18    19    14   ar
    19     9    11    1
    20    10    12    1
@<TRIPOS>MOLECULE
*****
 19 20 0 0 0
SMALL
GASTEIGER

@<TRIPOS>ATOM
      1 C          -8.8777  -17.5224   21.8606 C.ar    1  UNL1        0.0831
      2 C          -8.4548  -18.7565   21.1203 C.ar    1  UNL1        0.0188
      3 C          -7.0699  -19.3032   21.3031 C.ar    1  UNL1       -0.0024
      4 C          -6.1080  -18.6157   22.2261 C.ar    1  UNL1       -0.0177
      5 C          -6.5309  -17.3816   22.9664 C.ar    1  UNL1       -0.0024
      6 C          -7.9157  -16.8350   22.7837 C.ar    1  UNL1        0.0188
      7 C         -10.8828  -16.9454   20.3125 C.2     1  UNL1        0.1958
      8 N         -10.2625  -16.9758   21.6779 N.2     1  UNL1       -0.2242
      9 O         -12.5622  -15.4674   18.9914 O.3     1  UNL1       -0.2879
     10 N         -12.2676  -16.3988   20.1298 N.3     1  UNL1       -0.2481
     11 H         -13.4969  -15.2097   19.0181 H       1  UNL1        0.2442
     12 H         -12.9832  -16.6513   20.7571 H       1  UNL1        0.1956
     13 C          -4.7231  -19.1623   22.4088 C.3     1  UNL1        0.0526
     14 C          -3.5707  -18.5471   21.6717 C.ar    1  UNL1       -0.0178
     15 C          -2.9380  -17.2879   22.1856 C.ar    1  UNL1       -0.0039
     16 C          -1.7855  -16.6727   21.4485 C.ar    1  UNL1       -0.0003
     17 C          -1.2658  -17.3167   20.1974 C.ar    1  UNL1       -0.0000
     18 C          -1.8984  -18.5758   19.6835 C.ar    1  UNL1       -0.0003
     19 C          -3.0509  -19.1911   20.4206 C.ar    1  UNL1       -0.0039
@<TRIPOS>BOND
     1     9    10    1
     2    10     7    1
     3     7     8    2
     4     8     1    1
     5     1     2   ar
     6     2     3   ar
     7     3     4   ar
     8     4    13    1
     9    13    14    1
    10    14    15   ar
    11    15    16   ar
    12    16    17   ar
    13    17    18   ar
    14    18    19   ar
    15     4     5   ar
    16     5     6   ar
    17     6     1   ar
    18    19    14   ar
    19     9    11    1
    20    10    12    1
@<TRIPOS>MOLECULE
*****
 19 20 0 0 0
SMALL
GASTEIGER

@<TRIPOS>ATOM
      1 C         -14.6160   -7.6936   18.5505 C.ar    1  UNL1        0.0831
      2 C         -14.6644   -6.5078   19.4678 C.ar    1  UNL1        0.0188
      3 C         -13.4440   -5.6568   19.6586 C.ar    1  UNL1       -0.0024
      4 C         -12.1752   -5.9916   18.9320 C.ar    1  UNL1       -0.0177
      5 C         -12.1268   -7.1774   18.0147 C.ar    1  UNL1       -0.0024
      6 C         -13.3472   -8.0284   17.8239 C.ar    1  UNL1        0.0188
      7 C         -16.4101   -9.3038   19.5191 C.2     1  UNL1        0.1958
      8 N         -15.8364   -8.5446   18.3597 N.2     1  UNL1       -0.2242
      9 O         -17.4902  -11.5732   18.8606 O.3     1  UNL1       -0.2879
     10 N         -17.6305  -10.1548   19.3284 N.3     1  UNL1       -0.2481
     11 H         -18.3685  -11.9788   18.7901 H       1  UNL1        0.2442
     12 H         -18.5236   -9.7825   19.5101 H       1  UNL1        0.1956
     13 C         -10.9548   -5.1406   19.1228 C.3     1  UNL1        0.0526
     14 C         -10.7932   -3.8739   18.3359 C.ar    1  UNL1       -0.0178
     15 C         -11.4449   -2.6085   18.8093 C.ar    1  UNL1       -0.0039
     16 C         -11.2833   -1.3418   18.0224 C.ar    1  UNL1       -0.0003
     17 C         -10.4701   -1.3404   16.7620 C.ar    1  UNL1       -0.0000
     18 C          -9.8184   -2.6057   16.2886 C.ar    1  UNL1       -0.0003
     19 C          -9.9799   -3.8725   17.0755 C.ar    1  UNL1       -0.0039
@<TRIPOS>BOND
     1     9    10    1
     2    10     7    1
     3     7     8    2
     4     8     1    1
     5     1     2   ar
     6     2     3   ar
     7     3     4   ar
     8     4    13    1
     9    13    14    1
    10    14    15   ar
    11    15    16   ar
    12    16    17   ar
    13    17    18   ar
    14    18    19   ar
    15     4     5   ar
    16     5     6   ar
    17     6     1   ar
    18    19    14   ar
    19     9    11    1
    20    10    12    1
@<TRIPOS>MOLECULE
*****
 19 20 0 0 0
SMALL
GASTEIGER

@<TRIPOS>ATOM
      1 C         -13.1472   -7.5504   18.0262 C.ar    1  UNL1        0.0831
      2 C         -11.9005   -7.3193   17.2248 C.ar    1  UNL1        0.0188
      3 C         -11.0428   -6.1201   17.5011 C.ar    1  UNL1       -0.0024
      4 C         -11.4319   -5.1520   18.5788 C.ar    1  UNL1       -0.0177
      5 C         -12.6786   -5.3831   19.3802 C.ar    1  UNL1       -0.0024
      6 C         -13.5362   -6.5823   19.1039 C.ar    1  UNL1        0.0188
      7 C         -15.0855   -9.1372   18.7152 C.2     1  UNL1        0.1958
      8 N         -14.0048   -8.7496   17.7499 N.2     1  UNL1       -0.2242
      9 O         -15.3062  -11.6599   18.1342 O.3     1  UNL1       -0.2879
     10 N         -15.9432  -10.3364   18.4389 N.3     1  UNL1       -0.2481
     11 H         -15.9969  -12.3236   17.9812 H       1  UNL1        0.2442
     12 H         -16.9241  -10.2549   18.4575 H       1  UNL1        0.1956
     13 C         -10.5742   -3.9528   18.8551 C.3     1  UNL1        0.0526
     14 C         -10.9172   -2.6279   18.2411 C.ar    1  UNL1       -0.0178
     15 C         -10.2994   -2.2239   16.9353 C.ar    1  UNL1       -0.0039
     16 C         -10.6425   -0.8990   16.3213 C.ar    1  UNL1       -0.0003
     17 C         -11.6033    0.0219   17.0132 C.ar    1  UNL1       -0.0000
     18 C         -12.2211   -0.3820   18.3190 C.ar    1  UNL1       -0.0003
     19 C         -11.8780   -1.7069   18.9330 C.ar    1  UNL1       -0.0039
@<TRIPOS>BOND
     1     9    10    1
     2    10     7    1
     3     7     8    2
     4     8     1    1
     5     1     2   ar
     6     2     3   ar
     7     3     4   ar
     8     4    13    1
     9    13    14    1
    10    14    15   ar
    11    15    16   ar
    12    16    17   ar
    13    17    18   ar
    14    18    19   ar
    15     4     5   ar
    16     5     6   ar
    17     6     1   ar
    18    19    14   ar
    19     9    11    1
    20    10    12    1
@<TRIPOS>MOLECULE
*****
 19 20 0 0 0
SMALL
GASTEIGER

@<TRIPOS>ATOM
      1 C         -15.6529   -8.1497   18.5134 C.ar    1  UNL1        0.0831
      2 C         -16.0195   -6.8490   19.1643 C.ar    1  UNL1        0.0188
      3 C         -14.9506   -5.8531   19.5045 C.ar    1  UNL1       -0.0024
      4 C         -13.5151   -6.1580   19.1939 C.ar    1  UNL1       -0.0177
      5 C         -13.1486   -7.4587   18.5431 C.ar    1  UNL1       -0.0024
      6 C         -14.2174   -8.4546   18.2029 C.ar    1  UNL1        0.0188
      7 C         -16.8012  -10.4447   18.9188 C.2     1  UNL1        0.1958
      8 N         -16.7217   -9.1456   18.1732 N.2     1  UNL1       -0.2242
      9 O         -19.2278  -10.9670   18.1512 O.3     1  UNL1       -0.2879
     10 N         -17.8701  -11.4406   18.5785 N.3     1  UNL1       -0.2481
     11 H         -19.7950  -11.7327   17.9700 H       1  UNL1        0.2442
     12 H         -17.6805  -12.4050   18.6357 H       1  UNL1        0.1956
     13 C         -12.4463   -5.1621   19.5342 C.3     1  UNL1        0.0526
     14 C         -11.4859   -4.7023   18.4777 C.ar    1  UNL1       -0.0178
     15 C         -10.1573   -5.3817   18.3248 C.ar    1  UNL1       -0.0039
     16 C          -9.1969   -4.9219   17.2684 C.ar    1  UNL1       -0.0003
     17 C          -9.5651   -3.7826   16.3647 C.ar    1  UNL1       -0.0000
     18 C         -10.8936   -3.1032   16.5176 C.ar    1  UNL1       -0.0003
     19 C         -11.8540   -3.5630   17.5741 C.ar    1  UNL1       -0.0039
@<TRIPOS>BOND
     1     9    10    1
     2    10     7    1
     3     7     8    2
     4     8     1    1
     5     1     2   ar
     6     2     3   ar
     7     3     4   ar
     8     4    13    1
     9    13    14    1
    10    14    15   ar
    11    15    16   ar
    12    16    17   ar
    13    17    18   ar
    14    18    19   ar
    15     4     5   ar
    16     5     6   ar
    17     6     1   ar
    18    19    14   ar
    19     9    11    1
    20    10    12    1
