@<TRIPOS>MOLECULE
*****
 22 24 0 0 0
SMALL
GASTEIGER

@<TRIPOS>ATOM
      1 C          -7.6494  -18.4606   22.1711 C.3     1  UNL1        0.1753
      2 O          -8.3202  -19.7151   21.6953 O.3     1  UNL1       -0.3460
      3 C          -9.8096  -19.7493   21.5210 C.3     1  UNL1        0.1685
      4 C         -10.6283  -18.5290   21.8223 C.ar    1  UNL1        0.0067
      5 C         -12.1177  -18.5633   21.6479 C.ar    1  UNL1       -0.0021
      6 C         -12.9363  -17.3430   21.9493 C.ar    1  UNL1       -0.0003
      7 C         -12.2655  -16.0885   22.4250 C.ar    1  UNL1       -0.0002
      8 C         -10.7761  -16.0543   22.5994 C.ar    1  UNL1       -0.0010
      9 C          -9.9575  -17.2746   22.2980 C.ar    1  UNL1        0.0181
     10 C          -8.4680  -17.2404   22.4724 C.3     1  UNL1        0.2161
     11 C          -6.1599  -18.4265   22.3454 C.3     1  UNL1        0.1027
     12 C          -4.9759  -19.8832   20.5494 C.3     1  UNL1        0.0859
     13 N          -5.2620  -18.5384   21.1492 N.3     1  UNL1       -0.2942
     14 H          -5.6806  -17.9705   20.4126 H       1  UNL1        0.1234
     15 O          -7.7972  -15.9859   22.9481 O.3     1  UNL1       -0.4725
     16 C          -7.4771  -15.8121   24.4032 C.ar    1  UNL1        0.1349
     17 C          -8.5594  -15.9570   25.4317 C.ar    1  UNL1        0.0366
     18 C          -8.2393  -15.7831   26.8868 C.ar    1  UNL1        0.0031
     19 C          -6.8371  -15.4643   27.3134 C.ar    1  UNL1       -0.0001
     20 C          -5.7548  -15.3194   26.2850 C.ar    1  UNL1       -0.0013
     21 C          -6.0749  -15.4933   24.8298 C.ar    1  UNL1        0.0121
     22 C          -4.9926  -15.3483   23.8014 C.3     1  UNL1        0.0342
@<TRIPOS>BOND
     1    12    13    1
     2    13    11    1
     3     1    11    1
     4     1     2    1
     5     2     3    1
     6     3     4    1
     7     4     5   ar
     8     5     6   ar
     9     6     7   ar
    10     7     8   ar
    11     8     9   ar
    12     9    10    1
    13    10    15    1
    14    15    16    1
    15    16    17   ar
    16    17    18   ar
    17    18    19   ar
    18    19    20   ar
    19    20    21   ar
    20    21    22    1
    21    10     1    1
    22    21    16   ar
    23     9     4   ar
    24    13    14    1
@<TRIPOS>MOLECULE
*****
 22 24 0 0 0
SMALL
GASTEIGER

@<TRIPOS>ATOM
      1 C          -6.8540  -16.4868   23.0800 C.3     1  UNL1        0.1753
      2 O          -5.4640  -16.9434   23.4106 O.3     1  UNL1       -0.3460
      3 C          -4.9016  -18.1698   22.7553 C.3     1  UNL1        0.1685
      4 C          -5.7293  -18.9398   21.7692 C.ar    1  UNL1        0.0067
      5 C          -5.1669  -20.1662   21.1139 C.ar    1  UNL1       -0.0021
      6 C          -5.9946  -20.9360   20.1279 C.ar    1  UNL1       -0.0003
      7 C          -7.3846  -20.4795   19.7972 C.ar    1  UNL1       -0.0002
      8 C          -7.9470  -19.2530   20.4526 C.ar    1  UNL1       -0.0010
      9 C          -7.1193  -18.4832   21.4386 C.ar    1  UNL1        0.0181
     10 C          -7.6817  -17.2567   22.0940 C.3     1  UNL1        0.2161
     11 C          -7.4164  -15.2603   23.7354 C.3     1  UNL1        0.1027
     12 C          -6.4315  -15.1577   26.1373 C.3     1  UNL1        0.0859
     13 N          -6.6224  -14.5394   24.7841 N.3     1  UNL1       -0.2942
     14 H          -5.6915  -14.3873   24.3959 H       1  UNL1        0.1234
     15 O          -9.0717  -16.8001   21.7634 O.3     1  UNL1       -0.4725
     16 C         -10.2414  -17.3417   22.5304 C.ar    1  UNL1        0.1349
     17 C         -10.0144  -18.1358   23.7826 C.ar    1  UNL1        0.0366
     18 C         -11.1841  -18.6774   24.5496 C.ar    1  UNL1        0.0031
     19 C         -12.5809  -18.4250   24.0646 C.ar    1  UNL1       -0.0001
     20 C         -12.8079  -17.6309   22.8125 C.ar    1  UNL1       -0.0013
     21 C         -11.6382  -17.0893   22.0453 C.ar    1  UNL1        0.0121
     22 C         -11.8653  -16.2952   20.7932 C.3     1  UNL1        0.0342
@<TRIPOS>BOND
     1    12    13    1
     2    13    11    1
     3     1    11    1
     4     1     2    1
     5     2     3    1
     6     3     4    1
     7     4     5   ar
     8     5     6   ar
     9     6     7   ar
    10     7     8   ar
    11     8     9   ar
    12     9    10    1
    13    10    15    1
    14    15    16    1
    15    16    17   ar
    16    17    18   ar
    17    18    19   ar
    18    19    20   ar
    19    20    21   ar
    20    21    22    1
    21    10     1    1
    22    21    16   ar
    23     9     4   ar
    24    13    14    1
@<TRIPOS>MOLECULE
*****
 22 24 0 0 0
SMALL
GASTEIGER

@<TRIPOS>ATOM
      1 C          -7.1647  -18.8001   21.2366 C.3     1  UNL1        0.1753
      2 O          -5.7492  -19.1876   21.5469 O.3     1  UNL1       -0.3460
      3 C          -4.9643  -18.4108   22.5620 C.3     1  UNL1        0.1685
      4 C          -5.5949  -17.2465   23.2669 C.ar    1  UNL1        0.0067
      5 C          -4.8100  -16.4697   24.2821 C.ar    1  UNL1       -0.0021
      6 C          -5.4407  -15.3055   24.9869 C.ar    1  UNL1       -0.0003
      7 C          -6.8561  -14.9181   24.6767 C.ar    1  UNL1       -0.0002
      8 C          -7.6410  -15.6948   23.6615 C.ar    1  UNL1       -0.0010
      9 C          -7.0104  -16.8590   22.9567 C.ar    1  UNL1        0.0181
     10 C          -7.7953  -17.6359   21.9415 C.3     1  UNL1        0.2161
     11 C          -7.9496  -19.5770   20.2214 C.3     1  UNL1        0.1027
     12 C         -10.3707  -19.4324   19.2902 C.3     1  UNL1        0.0859
     13 N          -8.9775  -18.8835   19.3773 N.3     1  UNL1       -0.2942
     14 H          -9.0579  -17.9314   19.7342 H       1  UNL1        0.1234
     15 O          -9.2108  -17.2484   21.6312 O.3     1  UNL1       -0.4725
     16 C         -10.3255  -17.6992   22.5280 C.ar    1  UNL1        0.1349
     17 C         -10.0330  -18.5921   23.6973 C.ar    1  UNL1        0.0366
     18 C         -11.1478  -19.0428   24.5941 C.ar    1  UNL1        0.0031
     19 C         -12.5550  -18.6006   24.3216 C.ar    1  UNL1       -0.0001
     20 C         -12.8475  -17.7077   23.1524 C.ar    1  UNL1       -0.0013
     21 C         -11.7327  -17.2570   22.2555 C.ar    1  UNL1        0.0121
     22 C         -12.0252  -16.3641   21.0863 C.3     1  UNL1        0.0342
@<TRIPOS>BOND
     1    12    13    1
     2    13    11    1
     3     1    11    1
     4     1     2    1
     5     2     3    1
     6     3     4    1
     7     4     5   ar
     8     5     6   ar
     9     6     7   ar
    10     7     8   ar
    11     8     9   ar
    12     9    10    1
    13    10    15    1
    14    15    16    1
    15    16    17   ar
    16    17    18   ar
    17    18    19   ar
    18    19    20   ar
    19    20    21   ar
    20    21    22    1
    21    10     1    1
    22    21    16   ar
    23     9     4   ar
    24    13    14    1
@<TRIPOS>MOLECULE
*****
 22 24 0 0 0
SMALL
GASTEIGER

@<TRIPOS>ATOM
      1 C          -6.0171  -16.6451   23.4824 C.3     1  UNL1        0.1753
      2 O          -4.6215  -16.7708   24.0176 O.3     1  UNL1       -0.3460
      3 C          -3.6782  -17.7745   23.4239 C.3     1  UNL1        0.1685
      4 C          -4.1304  -18.6526   22.2949 C.ar    1  UNL1        0.0067
      5 C          -3.1871  -19.6564   21.7012 C.ar    1  UNL1       -0.0021
      6 C          -3.6394  -20.5344   20.5723 C.ar    1  UNL1       -0.0003
      7 C          -5.0350  -20.4087   20.0371 C.ar    1  UNL1       -0.0002
      8 C          -5.9783  -19.4049   20.6308 C.ar    1  UNL1       -0.0010
      9 C          -5.5261  -18.5269   21.7597 C.ar    1  UNL1        0.0181
     10 C          -6.4694  -17.5231   22.3535 C.3     1  UNL1        0.2161
     11 C          -6.9605  -15.6412   24.0761 C.3     1  UNL1        0.1027
     12 C          -6.4036  -15.3350   26.5952 C.3     1  UNL1        0.0859
     13 N          -6.5108  -14.7688   25.2104 N.3     1  UNL1       -0.2942
     14 H          -5.5854  -14.4182   24.9632 H       1  UNL1        0.1234
     15 O          -7.8651  -17.3974   21.8183 O.3     1  UNL1       -0.4725
     16 C          -8.9520  -18.2889   22.3413 C.ar    1  UNL1        0.1349
     17 C          -9.2251  -18.3533   23.8149 C.ar    1  UNL1        0.0366
     18 C         -10.3121  -19.2448   24.3380 C.ar    1  UNL1        0.0031
     19 C         -11.1260  -20.0719   23.3875 C.ar    1  UNL1       -0.0001
     20 C         -10.8530  -20.0076   21.9140 C.ar    1  UNL1       -0.0013
     21 C          -9.7660  -19.1160   21.3909 C.ar    1  UNL1        0.0121
     22 C          -9.4929  -19.0516   19.9174 C.3     1  UNL1        0.0342
@<TRIPOS>BOND
     1    12    13    1
     2    13    11    1
     3     1    11    1
     4     1     2    1
     5     2     3    1
     6     3     4    1
     7     4     5   ar
     8     5     6   ar
     9     6     7   ar
    10     7     8   ar
    11     8     9   ar
    12     9    10    1
    13    10    15    1
    14    15    16    1
    15    16    17   ar
    16    17    18   ar
    17    18    19   ar
    18    19    20   ar
    19    20    21   ar
    20    21    22    1
    21    10     1    1
    22    21    16   ar
    23     9     4   ar
    24    13    14    1
@<TRIPOS>MOLECULE
*****
 22 24 0 0 0
SMALL
GASTEIGER

@<TRIPOS>ATOM
      1 C          -6.4498  -16.7737   23.5029 C.3     1  UNL1        0.1753
      2 O          -4.9718  -16.5556   23.3689 O.3     1  UNL1       -0.3460
      3 C          -4.1502  -17.4841   22.5245 C.3     1  UNL1        0.1685
      4 C          -4.8066  -18.6306   21.8142 C.ar    1  UNL1        0.0067
      5 C          -3.9851  -19.5591   20.9698 C.ar    1  UNL1       -0.0021
      6 C          -4.6415  -20.7056   20.2595 C.ar    1  UNL1       -0.0003
      7 C          -6.1195  -20.9236   20.3935 C.ar    1  UNL1       -0.0002
      8 C          -6.9411  -19.9952   21.2379 C.ar    1  UNL1       -0.0010
      9 C          -6.2846  -18.8487   21.9482 C.ar    1  UNL1        0.0181
     10 C          -7.1062  -17.9202   22.7926 C.3     1  UNL1        0.2161
     11 C          -7.2714  -15.8452   24.3473 C.3     1  UNL1        0.1027
     12 C          -5.9606  -15.2092   26.4984 C.3     1  UNL1        0.0859
     13 N          -6.5967  -14.8115   25.1995 N.3     1  UNL1       -0.2942
     14 H          -5.8627  -14.3924   24.6284 H       1  UNL1        0.1234
     15 O          -8.5842  -18.1382   22.9266 O.3     1  UNL1       -0.4725
     16 C          -9.5235  -17.5534   21.9139 C.ar    1  UNL1        0.1349
     17 C          -9.4743  -16.0864   21.6045 C.ar    1  UNL1        0.0366
     18 C         -10.4136  -15.5016   20.5918 C.ar    1  UNL1        0.0031
     19 C         -11.4021  -16.3837   19.8884 C.ar    1  UNL1       -0.0001
     20 C         -11.4513  -17.8506   20.1977 C.ar    1  UNL1       -0.0013
     21 C         -10.5120  -18.4355   21.2105 C.ar    1  UNL1        0.0121
     22 C         -10.5612  -19.9024   21.5198 C.3     1  UNL1        0.0342
@<TRIPOS>BOND
     1    12    13    1
     2    13    11    1
     3     1    11    1
     4     1     2    1
     5     2     3    1
     6     3     4    1
     7     4     5   ar
     8     5     6   ar
     9     6     7   ar
    10     7     8   ar
    11     8     9   ar
    12     9    10    1
    13    10    15    1
    14    15    16    1
    15    16    17   ar
    16    17    18   ar
    17    18    19   ar
    18    19    20   ar
    19    20    21   ar
    20    21    22    1
    21    10     1    1
    22    21    16   ar
    23     9     4   ar
    24    13    14    1
@<TRIPOS>MOLECULE
*****
 22 24 0 0 0
SMALL
GASTEIGER

@<TRIPOS>ATOM
      1 C          -6.6267  -16.8768   22.7742 C.3     1  UNL1        0.1753
      2 O          -5.4160  -16.4445   23.5470 O.3     1  UNL1       -0.3460
      3 C          -4.1014  -17.1327   23.3282 C.3     1  UNL1        0.1685
      4 C          -3.9974  -18.2534   22.3365 C.ar    1  UNL1        0.0067
      5 C          -2.6827  -18.9416   22.1176 C.ar    1  UNL1       -0.0021
      6 C          -2.5788  -20.0622   21.1260 C.ar    1  UNL1       -0.0003
      7 C          -3.7895  -20.4945   20.3531 C.ar    1  UNL1       -0.0002
      8 C          -5.1042  -19.8063   20.5720 C.ar    1  UNL1       -0.0010
      9 C          -5.2081  -18.6857   21.5637 C.ar    1  UNL1        0.0181
     10 C          -6.5228  -17.9974   21.7825 C.3     1  UNL1        0.2161
     11 C          -7.9415  -16.1885   22.9931 C.3     1  UNL1        0.1027
     12 C         -10.0944  -15.8074   21.5898 C.3     1  UNL1        0.0859
     13 N          -8.6427  -15.5278   21.8435 N.3     1  UNL1       -0.2942
     14 H          -8.5571  -14.5214   21.9854 H       1  UNL1        0.1234
     15 O          -7.7335  -18.4297   21.0097 O.3     1  UNL1       -0.4725
     16 C          -8.8388  -19.1719   21.7007 C.ar    1  UNL1        0.1349
     17 C          -8.6469  -19.6676   23.1034 C.ar    1  UNL1        0.0366
     18 C          -9.7521  -20.4097   23.7944 C.ar    1  UNL1        0.0031
     19 C         -11.0493  -20.6563   23.0828 C.ar    1  UNL1       -0.0001
     20 C         -11.2413  -20.1607   21.6801 C.ar    1  UNL1       -0.0013
     21 C         -10.1360  -19.4184   20.9891 C.ar    1  UNL1        0.0121
     22 C         -10.3280  -18.9228   19.5864 C.3     1  UNL1        0.0342
@<TRIPOS>BOND
     1    12    13    1
     2    13    11    1
     3     1    11    1
     4     1     2    1
     5     2     3    1
     6     3     4    1
     7     4     5   ar
     8     5     6   ar
     9     6     7   ar
    10     7     8   ar
    11     8     9   ar
    12     9    10    1
    13    10    15    1
    14    15    16    1
    15    16    17   ar
    16    17    18   ar
    17    18    19   ar
    18    19    20   ar
    19    20    21   ar
    20    21    22    1
    21    10     1    1
    22    21    16   ar
    23     9     4   ar
    24    13    14    1
@<TRIPOS>MOLECULE
*****
 22 24 0 0 0
SMALL
GASTEIGER

@<TRIPOS>ATOM
      1 C          -6.7222  -16.6970   23.3551 C.3     1  UNL1        0.1753
      2 O          -5.5410  -17.5187   22.9315 O.3     1  UNL1       -0.3460
      3 C          -5.6904  -18.5428   21.8457 C.3     1  UNL1        0.1685
      4 C          -7.0211  -18.7451   21.1834 C.ar    1  UNL1        0.0067
      5 C          -7.1704  -19.7691   20.0976 C.ar    1  UNL1       -0.0021
      6 C          -8.5010  -19.9713   19.4354 C.ar    1  UNL1       -0.0003
      7 C          -9.6822  -19.1495   19.8590 C.ar    1  UNL1       -0.0002
      8 C          -9.5329  -18.1255   20.9448 C.ar    1  UNL1       -0.0010
      9 C          -8.2023  -17.9233   21.6070 C.ar    1  UNL1        0.0181
     10 C          -8.0528  -16.8992   22.6929 C.3     1  UNL1        0.2161
     11 C          -6.5728  -15.6729   24.4410 C.3     1  UNL1        0.1027
     12 C          -7.6093  -15.6289   26.8228 C.3     1  UNL1        0.0859
     13 N          -7.7267  -15.3698   25.3501 N.3     1  UNL1       -0.2942
     14 H          -7.9345  -14.3772   25.2413 H       1  UNL1        0.1234
     15 O          -9.2340  -16.0774   23.1165 O.3     1  UNL1       -0.4725
     16 C         -10.5817  -16.7199   23.2606 C.ar    1  UNL1        0.1349
     17 C         -11.7450  -16.2099   22.4626 C.ar    1  UNL1        0.0366
     18 C         -13.0927  -16.8524   22.6067 C.ar    1  UNL1        0.0031
     19 C         -13.2772  -18.0049   23.5490 C.ar    1  UNL1       -0.0001
     20 C         -12.1141  -18.5149   24.3470 C.ar    1  UNL1       -0.0013
     21 C         -10.7663  -17.8724   24.2028 C.ar    1  UNL1        0.0121
     22 C          -9.6031  -18.3824   25.0009 C.3     1  UNL1        0.0342
@<TRIPOS>BOND
     1    12    13    1
     2    13    11    1
     3     1    11    1
     4     1     2    1
     5     2     3    1
     6     3     4    1
     7     4     5   ar
     8     5     6   ar
     9     6     7   ar
    10     7     8   ar
    11     8     9   ar
    12     9    10    1
    13    10    15    1
    14    15    16    1
    15    16    17   ar
    16    17    18   ar
    17    18    19   ar
    18    19    20   ar
    19    20    21   ar
    20    21    22    1
    21    10     1    1
    22    21    16   ar
    23     9     4   ar
    24    13    14    1
@<TRIPOS>MOLECULE
*****
 22 24 0 0 0
SMALL
GASTEIGER

@<TRIPOS>ATOM
      1 C          -7.0901  -16.7277   23.3467 C.3     1  UNL1        0.1753
      2 O          -6.1814  -15.5437   23.4967 O.3     1  UNL1       -0.3460
      3 C          -4.7128  -15.6864   23.2270 C.3     1  UNL1        0.1685
      4 C          -4.1528  -17.0132   22.8073 C.ar    1  UNL1        0.0067
      5 C          -2.6842  -17.1559   22.5376 C.ar    1  UNL1       -0.0021
      6 C          -2.1242  -18.4826   22.1178 C.ar    1  UNL1       -0.0003
      7 C          -3.0329  -19.6666   21.9678 C.ar    1  UNL1       -0.0002
      8 C          -4.5015  -19.5239   22.2375 C.ar    1  UNL1       -0.0010
      9 C          -5.0614  -18.1972   22.6572 C.ar    1  UNL1        0.0181
     10 C          -6.5301  -18.0544   22.9270 C.3     1  UNL1        0.2161
     11 C          -8.5588  -16.5849   23.6164 C.3     1  UNL1        0.1027
     12 C         -10.9366  -16.2111   22.6389 C.3     1  UNL1        0.0859
     13 N          -9.4562  -15.9775   22.5793 N.3     1  UNL1       -0.2942
     14 H          -9.3154  -14.9682   22.6228 H       1  UNL1        0.1234
     15 O          -7.4388  -19.2384   22.7769 O.3     1  UNL1       -0.4725
     16 C          -8.2874  -19.3817   21.5484 C.ar    1  UNL1        0.1349
     17 C          -7.6600  -19.2919   20.1888 C.ar    1  UNL1        0.0366
     18 C          -8.5086  -19.4352   18.9603 C.ar    1  UNL1        0.0031
     19 C          -9.9846  -19.6682   19.0913 C.ar    1  UNL1       -0.0001
     20 C         -10.6119  -19.7580   20.4508 C.ar    1  UNL1       -0.0013
     21 C          -9.7633  -19.6147   21.6794 C.ar    1  UNL1        0.0121
     22 C         -10.3907  -19.7045   23.0389 C.3     1  UNL1        0.0342
@<TRIPOS>BOND
     1    12    13    1
     2    13    11    1
     3     1    11    1
     4     1     2    1
     5     2     3    1
     6     3     4    1
     7     4     5   ar
     8     5     6   ar
     9     6     7   ar
    10     7     8   ar
    11     8     9   ar
    12     9    10    1
    13    10    15    1
    14    15    16    1
    15    16    17   ar
    16    17    18   ar
    17    18    19   ar
    18    19    20   ar
    19    20    21   ar
    20    21    22    1
    21    10     1    1
    22    21    16   ar
    23     9     4   ar
    24    13    14    1
@<TRIPOS>MOLECULE
*****
 22 24 0 0 0
SMALL
GASTEIGER

@<TRIPOS>ATOM
      1 C          -6.0161  -18.5386   21.6083 C.3     1  UNL1        0.1753
      2 O          -4.6224  -18.3732   22.1377 O.3     1  UNL1       -0.3460
      3 C          -4.3596  -17.4340   23.2773 C.3     1  UNL1        0.1685
      4 C          -5.4905  -16.6602   23.8876 C.ar    1  UNL1        0.0067
      5 C          -5.2277  -15.7211   25.0273 C.ar    1  UNL1       -0.0021
      6 C          -6.3586  -14.9474   25.6375 C.ar    1  UNL1       -0.0003
      7 C          -7.7523  -15.1128   25.1081 C.ar    1  UNL1       -0.0002
      8 C          -8.0151  -16.0520   23.9684 C.ar    1  UNL1       -0.0010
      9 C          -6.8842  -16.8257   23.3582 C.ar    1  UNL1        0.0181
     10 C          -7.1470  -17.7649   22.2185 C.3     1  UNL1        0.2161
     11 C          -6.2788  -19.4778   20.4685 C.3     1  UNL1        0.1027
     12 C          -4.0565  -20.6802   19.8643 C.3     1  UNL1        0.0859
     13 N          -5.4788  -20.7398   20.3369 N.3     1  UNL1       -0.2942
     14 H          -5.4648  -21.1770   21.2584 H       1  UNL1        0.1234
     15 O          -8.5406  -17.9304   21.6891 O.3     1  UNL1       -0.4725
     16 C          -9.6522  -18.3280   22.6144 C.ar    1  UNL1        0.1349
     17 C          -9.4688  -19.4827   23.5542 C.ar    1  UNL1        0.0366
     18 C         -10.5804  -19.8803   24.4796 C.ar    1  UNL1        0.0031
     19 C         -11.8753  -19.1234   24.4652 C.ar    1  UNL1       -0.0001
     20 C         -12.0587  -17.9688   23.5254 C.ar    1  UNL1       -0.0013
     21 C         -10.9471  -17.5711   22.6000 C.ar    1  UNL1        0.0121
     22 C         -11.1305  -16.4165   21.6602 C.3     1  UNL1        0.0342
@<TRIPOS>BOND
     1    12    13    1
     2    13    11    1
     3     1    11    1
     4     1     2    1
     5     2     3    1
     6     3     4    1
     7     4     5   ar
     8     5     6   ar
     9     6     7   ar
    10     7     8   ar
    11     8     9   ar
    12     9    10    1
    13    10    15    1
    14    15    16    1
    15    16    17   ar
    16    17    18   ar
    17    18    19   ar
    18    19    20   ar
    19    20    21   ar
    20    21    22    1
    21    10     1    1
    22    21    16   ar
    23     9     4   ar
    24    13    14    1
