@<TRIPOS>MOLECULE
*****
 30 34 0 0 0
SMALL
GASTEIGER

@<TRIPOS>ATOM
      1 C           4.1113    0.3175   33.9727 C.2     1  UNL1        0.0875
      2 C           4.2935    0.7159   35.4073 C.2     1  UNL1        0.0944
      3 BR          5.3279    0.0308   36.2503 Br      1  UNL1       -0.0439
      4 C           3.4414    1.7993   35.9988 C.2     1  UNL1        0.2434
      5 N           2.4070    2.4845   35.1558 N.2     1  UNL1       -0.0304
      6 C           2.2248    2.0861   33.7212 C.2     1  UNL1        0.4031
      7 N           1.2934    2.5784   32.6534 N.2     1  UNL1        0.0326
      8 C           1.5699    1.7991   31.4019 C.cat   1  UNL1        0.4596
      9 N           2.6722    0.8253   31.6962 N.2     1  UNL1       -0.0725
     10 C           3.0769    1.0026   33.1296 C.3     1  UNL1        0.3273
     11 N           0.8675    1.9647   30.0869 N.pl3   1  UNL1       -0.1832
     12 C           0.9067    3.2853   29.3767 C.3     1  UNL1        0.1857
     13 C           0.2042    3.4507   28.0616 C.3     1  UNL1        0.1133
     14 N          -0.5374    2.2956   27.4569 N.3     1  UNL1       -0.2660
     15 C          -1.2398    2.4612   26.1418 C.3     1  UNL1        0.0898
     16 C          -0.5765    0.9750   28.1671 C.3     1  UNL1        0.1133
     17 C           0.1259    0.8096   29.4821 C.3     1  UNL1        0.1857
     18 N           6.6677   -2.9330   32.1980 N.3     1  UNL1       -0.2646
     19 C           5.3652   -3.2787   32.8570 C.3     1  UNL1        0.0941
     20 C           4.5131   -2.1953   33.4485 C.3     1  UNL1        0.1080
     21 N           4.9634   -0.7659   33.3811 N.pl3   1  UNL1       -0.3043
     22 C           6.2658   -0.4202   32.7222 C.3     1  UNL1        0.1080
     23 C           7.1179   -1.5038   32.1306 C.3     1  UNL1        0.0941
     24 C           7.5197   -4.0164   31.6065 C.3     1  UNL1        0.1222
     25 C           7.5330   -6.9272   27.2010 C.3     1  UNL1        0.0754
     26 C           7.2870   -5.8115   28.1729 C.ar    1  UNL1        0.1546
     27 C           7.7451   -5.7689   29.6007 C.ar    1  UNL1        0.0550
     28 C           7.2809   -4.4736   30.1979 C.ar    1  UNL1        0.1165
     29 N           6.5360   -3.7156   29.1393 N.ar    1  UNL1       -0.0803
     30 O           6.5398   -4.5425   27.8878 O.2     1  UNL1       -0.3580
@<TRIPOS>BOND
     1    25    26    1
     2    26    27   ar
     3    27    28   ar
     4    28    24    1
     5    24    18    1
     6    18    19    1
     7    19    20    1
     8    20    21    1
     9    21     1    1
    10     1     2    2
    11     2     3    1
    12     2     4    1
    13     4     5    2
    14     5     6    1
    15     6     7    2
    16     7     8    1
    17     8    11    1
    18    11    12    1
    19    12    13    1
    20    13    14    1
    21    14    15    1
    22    14    16    1
    23    16    17    1
    24     8     9    2
    25     9    10    1
    26    21    22    1
    27    22    23    1
    28    28    29   ar
    29    29    30   ar
    30    30    26   ar
    31    23    18    1
    32    10     1    1
    33    10     6    1
    34    17    11    1
@<TRIPOS>MOLECULE
*****
 30 34 0 0 0
SMALL
GASTEIGER

@<TRIPOS>ATOM
      1 C           3.2419   -0.3867   19.9404 C.2     1  UNL1        0.0875
      2 C           2.7873   -0.1284   18.5345 C.2     1  UNL1        0.0944
      3 BR          3.5883   -0.6517   17.3792 Br      1  UNL1       -0.0439
      4 C           1.5318    0.6530   18.2838 C.2     1  UNL1        0.2434
      5 N           0.7308    1.1763   19.4391 N.2     1  UNL1       -0.0304
      6 C           1.1854    0.9181   20.8450 C.2     1  UNL1        0.4031
      7 N           0.6072    1.3051   22.1738 N.2     1  UNL1        0.0326
      8 C           1.5054    0.7628   23.2458 C.cat   1  UNL1        0.4596
      9 N           2.6387    0.0406   22.5794 N.2     1  UNL1       -0.0725
     10 C           2.4409    0.1366   21.0956 C.3     1  UNL1        0.3273
     11 N           1.3055    0.9158   24.7245 N.pl3   1  UNL1       -0.1832
     12 C           2.4493    0.6760   25.6648 C.3     1  UNL1        0.1857
     13 C           2.2492    0.8290   27.1435 C.3     1  UNL1        0.1133
     14 N           0.9054    1.2218   27.6820 N.3     1  UNL1       -0.2660
     15 C           0.7055    1.3748   29.1607 C.3     1  UNL1        0.0898
     16 C          -0.2384    1.4616   26.7417 C.3     1  UNL1        0.1133
     17 C          -0.0383    1.3086   25.2629 C.3     1  UNL1        0.1857
     18 N           7.0087   -2.7311   20.6923 N.3     1  UNL1       -0.2646
     19 C           7.0672   -1.2374   20.5678 C.3     1  UNL1        0.0941
     20 C           5.8117   -0.4559   20.3171 C.3     1  UNL1        0.1080
     21 N           4.4975   -1.1682   20.1910 N.pl3   1  UNL1       -0.3043
     22 C           4.4389   -2.6618   20.3155 C.3     1  UNL1        0.1080
     23 C           5.6946   -3.4433   20.5662 C.3     1  UNL1        0.0941
     24 C           8.2642   -3.5125   20.9429 C.3     1  UNL1        0.1222
     25 C           7.7957   -6.4449   25.3091 C.3     1  UNL1        0.0754
     26 C           8.0286   -6.0324   23.8858 C.ar    1  UNL1        0.1546
     27 C           7.9339   -4.6361   23.3458 C.ar    1  UNL1        0.0550
     28 C           8.2440   -4.6845   21.8790 C.ar    1  UNL1        0.1165
     29 N           8.5303   -6.1106   21.5125 N.ar    1  UNL1       -0.0803
     30 O           8.3972   -6.9436   22.7528 O.2     1  UNL1       -0.3580
@<TRIPOS>BOND
     1    25    26    1
     2    26    27   ar
     3    27    28   ar
     4    28    24    1
     5    24    18    1
     6    18    19    1
     7    19    20    1
     8    20    21    1
     9    21     1    1
    10     1     2    2
    11     2     3    1
    12     2     4    1
    13     4     5    2
    14     5     6    1
    15     6     7    2
    16     7     8    1
    17     8    11    1
    18    11    12    1
    19    12    13    1
    20    13    14    1
    21    14    15    1
    22    14    16    1
    23    16    17    1
    24     8     9    2
    25     9    10    1
    26    21    22    1
    27    22    23    1
    28    28    29   ar
    29    29    30   ar
    30    30    26   ar
    31    23    18    1
    32    10     1    1
    33    10     6    1
    34    17    11    1
@<TRIPOS>MOLECULE
*****
 30 34 0 0 0
SMALL
GASTEIGER

@<TRIPOS>ATOM
      1 C           5.9076   -1.6727   31.2658 C.2     1  UNL1        0.0875
      2 C           7.0366   -2.6164   30.9748 C.2     1  UNL1        0.0944
      3 BR          7.9903   -3.0039   32.0659 Br      1  UNL1       -0.0439
      4 C           7.2120   -3.1725   29.5929 C.2     1  UNL1        0.2434
      5 N           6.2583   -2.7850   28.5018 N.2     1  UNL1       -0.0304
      6 C           5.1292   -1.8413   28.7928 C.2     1  UNL1        0.4031
      7 N           4.0398   -1.2822   27.9264 N.2     1  UNL1        0.0326
      8 C           3.1912   -0.3805   28.7730 C.cat   1  UNL1        0.4596
      9 N           3.7561   -0.3823   30.1626 N.2     1  UNL1       -0.0725
     10 C           4.9539   -1.2851   30.1748 C.3     1  UNL1        0.3273
     11 N           1.9887    0.3881   28.3111 N.pl3   1  UNL1       -0.1832
     12 C           0.6211   -0.0003   28.7895 C.3     1  UNL1        0.1857
     13 C          -0.5813    0.7684   28.3275 C.3     1  UNL1        0.1133
     14 N          -0.4162    1.9254   27.3873 N.3     1  UNL1       -0.2660
     15 C          -1.6186    2.6940   26.9254 C.3     1  UNL1        0.0898
     16 C           0.9514    2.3138   26.9090 C.3     1  UNL1        0.1133
     17 C           2.1539    1.5452   27.3709 C.3     1  UNL1        0.1857
     18 N           5.3816   -0.0041   35.4119 N.3     1  UNL1       -0.2646
     19 C           6.3319    0.6518   34.4544 C.3     1  UNL1        0.0941
     20 C           6.5073    0.0956   33.0724 C.3     1  UNL1        0.1080
     21 N           5.7322   -1.1165   32.6478 N.pl3   1  UNL1       -0.3043
     22 C           4.7819   -1.7724   33.6052 C.3     1  UNL1        0.1080
     23 C           4.6066   -1.2162   34.9873 C.3     1  UNL1        0.0941
     24 C           5.2063    0.5520   36.7938 C.3     1  UNL1        0.1222
     25 C           0.9100    1.8471   39.5770 C.3     1  UNL1        0.0754
     26 C           1.9229    1.7614   38.4740 C.ar    1  UNL1        0.1546
     27 C           3.1914    0.9612   38.5021 C.ar    1  UNL1        0.0550
     28 C           3.8977    1.1661   37.1948 C.ar    1  UNL1        0.1165
     29 N           3.0658    2.0929   36.3587 N.ar    1  UNL1       -0.0803
     30 O           1.8453    2.4608   37.1493 O.2     1  UNL1       -0.3580
@<TRIPOS>BOND
     1    25    26    1
     2    26    27   ar
     3    27    28   ar
     4    28    24    1
     5    24    18    1
     6    18    19    1
     7    19    20    1
     8    20    21    1
     9    21     1    1
    10     1     2    2
    11     2     3    1
    12     2     4    1
    13     4     5    2
    14     5     6    1
    15     6     7    2
    16     7     8    1
    17     8    11    1
    18    11    12    1
    19    12    13    1
    20    13    14    1
    21    14    15    1
    22    14    16    1
    23    16    17    1
    24     8     9    2
    25     9    10    1
    26    21    22    1
    27    22    23    1
    28    28    29   ar
    29    29    30   ar
    30    30    26   ar
    31    23    18    1
    32    10     1    1
    33    10     6    1
    34    17    11    1
@<TRIPOS>MOLECULE
*****
 30 34 0 0 0
SMALL
GASTEIGER

@<TRIPOS>ATOM
      1 C           7.9443   -5.6217   25.2858 C.2     1  UNL1        0.0875
      2 C           8.4513   -6.9722   24.8743 C.2     1  UNL1        0.0944
      3 BR          8.7623   -7.2494   23.4333 Br      1  UNL1       -0.0439
      4 C           8.6472   -8.0453   25.9038 C.2     1  UNL1        0.2434
      5 N           8.3362   -7.7681   27.3448 N.2     1  UNL1       -0.0304
      6 C           7.8293   -6.4177   27.7563 C.2     1  UNL1        0.4031
      7 N           7.4407   -5.8556   29.0916 N.2     1  UNL1        0.0326
      8 C           7.0046   -4.4350   28.8873 C.cat   1  UNL1        0.4596
      9 N           7.1237   -4.1191   27.4258 N.2     1  UNL1       -0.0725
     10 C           7.6333   -5.3445   26.7267 C.3     1  UNL1        0.3273
     11 N           6.5324   -3.4952   29.9568 N.pl3   1  UNL1       -0.1832
     12 C           6.0599   -2.1194   29.5911 C.3     1  UNL1        0.1857
     13 C           5.5876   -1.1796   30.6607 C.3     1  UNL1        0.1133
     14 N           5.5879   -1.6157   32.0959 N.3     1  UNL1       -0.2660
     15 C           5.1157   -0.6759   33.1654 C.3     1  UNL1        0.0898
     16 C           6.0604   -2.9916   32.4616 C.3     1  UNL1        0.1133
     17 C           6.5327   -3.9313   31.3920 C.3     1  UNL1        0.1857
     18 N           7.3566   -2.4021   22.1972 N.3     1  UNL1       -0.2646
     19 C           8.7175   -2.6424   22.7806 C.3     1  UNL1        0.0941
     20 C           8.9134   -3.7155   23.8101 C.3     1  UNL1        0.1080
     21 N           7.7484   -4.5486   24.2563 N.pl3   1  UNL1       -0.3043
     22 C           6.3875   -4.3083   23.6729 C.3     1  UNL1        0.1080
     23 C           6.1917   -3.2351   22.6434 C.3     1  UNL1        0.0941
     24 C           7.1607   -1.3290   21.1678 C.3     1  UNL1        0.1222
     25 C           3.9357   -0.9761   17.0017 C.3     1  UNL1        0.0754
     26 C           4.9643   -1.4785   17.9710 C.ar    1  UNL1        0.1546
     27 C           5.4063   -0.7853   19.2257 C.ar    1  UNL1        0.0550
     28 C           6.4467   -1.6407   19.8859 C.ar    1  UNL1        0.1165
     29 N           6.6478   -2.8625   19.0392 N.ar    1  UNL1       -0.0803
     30 O           5.7316   -2.7622   17.8558 O.2     1  UNL1       -0.3580
@<TRIPOS>BOND
     1    25    26    1
     2    26    27   ar
     3    27    28   ar
     4    28    24    1
     5    24    18    1
     6    18    19    1
     7    19    20    1
     8    20    21    1
     9    21     1    1
    10     1     2    2
    11     2     3    1
    12     2     4    1
    13     4     5    2
    14     5     6    1
    15     6     7    2
    16     7     8    1
    17     8    11    1
    18    11    12    1
    19    12    13    1
    20    13    14    1
    21    14    15    1
    22    14    16    1
    23    16    17    1
    24     8     9    2
    25     9    10    1
    26    21    22    1
    27    22    23    1
    28    28    29   ar
    29    29    30   ar
    30    30    26   ar
    31    23    18    1
    32    10     1    1
    33    10     6    1
    34    17    11    1
@<TRIPOS>MOLECULE
*****
 30 34 0 0 0
SMALL
GASTEIGER

@<TRIPOS>ATOM
      1 C           7.9079   -4.8413   28.4929 C.2     1  UNL1        0.0875
      2 C           8.7071   -6.0976   28.6743 C.2     1  UNL1        0.0944
      3 BR          9.3633   -6.7464   27.4917 Br      1  UNL1       -0.0439
      4 C           8.8500   -6.7051   30.0383 C.2     1  UNL1        0.2434
      5 N           8.1938   -6.0563   31.2209 N.2     1  UNL1       -0.0304
      6 C           7.3946   -4.8000   31.0394 C.2     1  UNL1        0.4031
      7 N           6.6397   -3.9416   32.0106 N.2     1  UNL1        0.0326
      8 C           6.0301   -2.8036   31.2468 C.cat   1  UNL1        0.4596
      9 N           6.4084   -2.9586   29.8036 N.2     1  UNL1       -0.0725
     10 C           7.2517   -4.1925   29.6754 C.3     1  UNL1        0.3273
     11 N           5.1899   -1.7036   31.8248 N.pl3   1  UNL1       -0.1832
     12 C           5.2831   -1.3773   33.2859 C.3     1  UNL1        0.1857
     13 C           4.4428   -0.2773   33.8638 C.3     1  UNL1        0.1133
     14 N           3.5093    0.4963   32.9807 N.3     1  UNL1       -0.2660
     15 C           2.6690    1.5963   33.5586 C.3     1  UNL1        0.0898
     16 C           3.4160    0.1700   31.5196 C.3     1  UNL1        0.1133
     17 C           4.2563   -0.9300   30.9417 C.3     1  UNL1        0.1857
     18 N           7.4792   -3.0186   24.4008 N.3     1  UNL1       -0.2646
     19 C           8.5337   -2.5132   25.3404 C.3     1  UNL1        0.0941
     20 C           8.6766   -3.1207   26.7043 C.3     1  UNL1        0.1080
     21 N           7.7650   -4.2338   27.1289 N.pl3   1  UNL1       -0.3043
     22 C           6.7105   -4.7393   26.1894 C.3     1  UNL1        0.1080
     23 C           6.5677   -4.1317   24.8254 C.3     1  UNL1        0.0941
     24 C           7.3363   -2.4111   23.0369 C.3     1  UNL1        0.1222
     25 C           3.6748   -3.8505   19.5151 C.3     1  UNL1        0.0754
     26 C           4.9293   -3.8189   20.3368 C.ar    1  UNL1        0.1546
     27 C           5.2662   -2.8085   21.3931 C.ar    1  UNL1        0.0550
     28 C           6.6123   -3.1573   21.9556 C.ar    1  UNL1        0.1165
     29 N           7.1074   -4.3831   21.2469 N.ar    1  UNL1       -0.0803
     30 O           6.0672   -4.7920   20.2465 O.2     1  UNL1       -0.3580
@<TRIPOS>BOND
     1    25    26    1
     2    26    27   ar
     3    27    28   ar
     4    28    24    1
     5    24    18    1
     6    18    19    1
     7    19    20    1
     8    20    21    1
     9    21     1    1
    10     1     2    2
    11     2     3    1
    12     2     4    1
    13     4     5    2
    14     5     6    1
    15     6     7    2
    16     7     8    1
    17     8    11    1
    18    11    12    1
    19    12    13    1
    20    13    14    1
    21    14    15    1
    22    14    16    1
    23    16    17    1
    24     8     9    2
    25     9    10    1
    26    21    22    1
    27    22    23    1
    28    28    29   ar
    29    29    30   ar
    30    30    26   ar
    31    23    18    1
    32    10     1    1
    33    10     6    1
    34    17    11    1
@<TRIPOS>MOLECULE
*****
 30 34 0 0 0
SMALL
GASTEIGER

@<TRIPOS>ATOM
      1 C           2.5801    0.4105   27.5125 C.2     1  UNL1        0.0875
      2 C           3.0871    0.0815   28.8853 C.2     1  UNL1        0.0944
      3 BR          2.4830    0.7456   30.0870 Br      1  UNL1       -0.0439
      4 C           4.1982   -0.9115   29.0564 C.2     1  UNL1        0.2434
      5 N           4.8024   -1.5755   27.8547 N.2     1  UNL1       -0.0304
      6 C           4.2954   -1.2465   26.4819 C.2     1  UNL1        0.4031
      7 N           4.6921   -1.7373   25.1211 N.2     1  UNL1        0.0326
      8 C           3.8261   -1.0476   24.1090 C.cat   1  UNL1        0.4596
      9 N           2.8942   -0.1305   24.8442 N.2     1  UNL1       -0.0725
     10 C           3.1842   -0.2534   26.3108 C.3     1  UNL1        0.3273
     11 N           3.8822   -1.2410   22.6225 N.pl3   1  UNL1       -0.1832
     12 C           5.1144   -1.8128   21.9866 C.3     1  UNL1        0.1857
     13 C           5.1704   -2.0062   20.5001 C.3     1  UNL1        0.1133
     14 N           3.9942   -1.6277   19.6496 N.3     1  UNL1       -0.2660
     15 C           4.0503   -1.8211   18.1632 C.3     1  UNL1        0.0898
     16 C           2.7620   -1.0558   20.2856 C.3     1  UNL1        0.1133
     17 C           2.7060   -0.8625   21.7721 C.3     1  UNL1        0.1857
     18 N          -0.7532    3.3897   26.9992 N.3     1  UNL1       -0.2646
     19 C           0.6747    3.8343   26.8826 C.3     1  UNL1        0.0941
     20 C           1.7857    2.8413   27.0537 C.3     1  UNL1        0.1080
     21 N           1.4690    1.4036   27.3414 N.pl3   1  UNL1       -0.3043
     22 C           0.0412    0.9589   27.4579 C.3     1  UNL1        0.1080
     23 C          -1.0699    1.9521   27.2868 C.3     1  UNL1        0.0941
     24 C          -1.8643    4.3827   26.8281 C.3     1  UNL1        0.1222
     25 C          -5.0186    3.0587   22.8057 C.3     1  UNL1        0.0754
     26 C          -4.5299    3.4091   24.1799 C.ar    1  UNL1        0.1546
     27 C          -3.1134    3.7273   24.5575 C.ar    1  UNL1        0.0550
     28 C          -3.0800    4.0177   26.0287 C.ar    1  UNL1        0.1165
     29 N          -4.4758    3.8791   26.5604 N.ar    1  UNL1       -0.0803
     30 O          -5.3718    3.5030   25.4178 O.2     1  UNL1       -0.3580
@<TRIPOS>BOND
     1    25    26    1
     2    26    27   ar
     3    27    28   ar
     4    28    24    1
     5    24    18    1
     6    18    19    1
     7    19    20    1
     8    20    21    1
     9    21     1    1
    10     1     2    2
    11     2     3    1
    12     2     4    1
    13     4     5    2
    14     5     6    1
    15     6     7    2
    16     7     8    1
    17     8    11    1
    18    11    12    1
    19    12    13    1
    20    13    14    1
    21    14    15    1
    22    14    16    1
    23    16    17    1
    24     8     9    2
    25     9    10    1
    26    21    22    1
    27    22    23    1
    28    28    29   ar
    29    29    30   ar
    30    30    26   ar
    31    23    18    1
    32    10     1    1
    33    10     6    1
    34    17    11    1
@<TRIPOS>MOLECULE
*****
 30 34 0 0 0
SMALL
GASTEIGER

@<TRIPOS>ATOM
      1 C           8.2977   -6.0069   26.8171 C.2     1  UNL1        0.0875
      2 C           9.0487   -7.3048   26.8560 C.2     1  UNL1        0.0944
      3 BR          9.5360   -7.8503   28.1657 Br      1  UNL1       -0.0439
      4 C           9.3124   -8.0571   25.5855 C.2     1  UNL1        0.2434
      5 N           8.8251   -7.5116   24.2758 N.2     1  UNL1       -0.0304
      6 C           8.0741   -6.2138   24.2369 C.2     1  UNL1        0.4031
      7 N           7.4756   -5.4342   23.1038 N.2     1  UNL1        0.0326
      8 C           6.8420   -4.1999   23.6741 C.cat   1  UNL1        0.4596
      9 N           7.0489   -4.2168   25.1596 N.2     1  UNL1       -0.0725
     10 C           7.8104   -5.4614   25.5075 C.3     1  UNL1        0.3273
     11 N           6.1271   -3.1357   22.8955 N.pl3   1  UNL1       -0.1832
     12 C           6.9062   -2.0316   22.2442 C.3     1  UNL1        0.1857
     13 C           6.1911   -0.9674   21.4657 C.3     1  UNL1        0.1133
     14 N           4.6971   -1.0071   21.3383 N.3     1  UNL1       -0.2660
     15 C           3.9821    0.0571   20.5598 C.3     1  UNL1        0.0898
     16 C           3.9180   -2.1112   21.9896 C.3     1  UNL1        0.1133
     17 C           4.6330   -3.1754   22.7682 C.3     1  UNL1        0.1857
     18 N           7.5064   -3.7499   30.6289 N.3     1  UNL1       -0.2646
     19 C           6.5821   -4.8525   30.2044 C.3     1  UNL1        0.0941
     20 C           6.8458   -5.6048   28.9338 C.3     1  UNL1        0.1080
     21 N           8.0339   -5.2546   28.0877 N.pl3   1  UNL1       -0.3043
     22 C           8.9582   -4.1521   28.5121 C.3     1  UNL1        0.1080
     23 C           8.6944   -3.3998   29.7828 C.3     1  UNL1        0.0941
     24 C           7.2426   -2.9977   31.8994 C.3     1  UNL1        0.1222
     25 C           2.9312    0.0096   31.3992 C.3     1  UNL1        0.0754
     26 C           3.9140   -1.0012   31.9118 C.ar    1  UNL1        0.1546
     27 C           5.2512   -1.3152   31.3089 C.ar    1  UNL1        0.0550
     28 C           5.8957   -2.3834   32.1416 C.ar    1  UNL1        0.1165
     29 N           4.9569   -2.7296   33.2591 N.ar    1  UNL1       -0.0803
     30 O           3.7322   -1.8753   33.1171 O.2     1  UNL1       -0.3580
@<TRIPOS>BOND
     1    25    26    1
     2    26    27   ar
     3    27    28   ar
     4    28    24    1
     5    24    18    1
     6    18    19    1
     7    19    20    1
     8    20    21    1
     9    21     1    1
    10     1     2    2
    11     2     3    1
    12     2     4    1
    13     4     5    2
    14     5     6    1
    15     6     7    2
    16     7     8    1
    17     8    11    1
    18    11    12    1
    19    12    13    1
    20    13    14    1
    21    14    15    1
    22    14    16    1
    23    16    17    1
    24     8     9    2
    25     9    10    1
    26    21    22    1
    27    22    23    1
    28    28    29   ar
    29    29    30   ar
    30    30    26   ar
    31    23    18    1
    32    10     1    1
    33    10     6    1
    34    17    11    1
@<TRIPOS>MOLECULE
*****
 30 34 0 0 0
SMALL
GASTEIGER

@<TRIPOS>ATOM
      1 C           4.0342   -1.1317   19.9140 C.2     1  UNL1        0.0875
      2 C           4.3624   -1.3054   18.4607 C.2     1  UNL1        0.0944
      3 BR          3.5759   -0.5641   17.4204 Br      1  UNL1       -0.0439
      4 C           5.4770   -2.2202   18.0476 C.2     1  UNL1        0.2434
      5 N           6.2635   -2.9614   19.0879 N.2     1  UNL1       -0.0304
      6 C           5.9353   -2.7878   20.5412 C.2     1  UNL1        0.4031
      7 N           6.5314   -3.3821   21.7827 N.2     1  UNL1        0.0326
      8 C           5.7851   -2.8346   22.9631 C.cat   1  UNL1        0.4596
      9 N           4.7278   -1.9019   22.4511 N.2     1  UNL1       -0.0725
     10 C           4.8206   -1.8729   20.9542 C.3     1  UNL1        0.3273
     11 N           6.0497   -3.1623   24.4028 N.pl3   1  UNL1       -0.1832
     12 C           6.6863   -4.4700   24.7696 C.3     1  UNL1        0.1857
     13 C           6.9508   -4.7976   26.2093 C.3     1  UNL1        0.1133
     14 N           6.5787   -3.8176   27.2822 N.3     1  UNL1       -0.2660
     15 C           6.8433   -4.1452   28.7218 C.3     1  UNL1        0.0898
     16 C           5.9421   -2.5098   26.9153 C.3     1  UNL1        0.1133
     17 C           5.6776   -2.1822   25.4756 C.3     1  UNL1        0.1857
     18 N           0.6902    1.6128   21.1531 N.3     1  UNL1       -0.2646
     19 C           0.3829    0.2249   20.6741 C.3     1  UNL1        0.0941
     20 C           1.4975   -0.6899   20.2610 C.3     1  UNL1        0.1080
     21 N           2.9196   -0.2169   20.3270 N.pl3   1  UNL1       -0.3043
     22 C           3.2268    1.1710   20.8061 C.3     1  UNL1        0.1080
     23 C           2.1121    2.0858   21.2191 C.3     1  UNL1        0.0941
     24 C          -0.4244    2.5276   21.5662 C.3     1  UNL1        0.1222
     25 C          -2.4586    4.7872   17.2490 C.3     1  UNL1        0.0754
     26 C          -2.3359    4.0679   18.5595 C.ar    1  UNL1        0.1546
     27 C          -1.0564    3.7556   19.2775 C.ar    1  UNL1        0.0550
     28 C          -1.4009    3.0293   20.5439 C.ar    1  UNL1        0.1165
     29 N          -2.8932    2.8926   20.6086 N.ar    1  UNL1       -0.0803
     30 O          -3.4711    3.5345   19.3822 O.2     1  UNL1       -0.3580
@<TRIPOS>BOND
     1    25    26    1
     2    26    27   ar
     3    27    28   ar
     4    28    24    1
     5    24    18    1
     6    18    19    1
     7    19    20    1
     8    20    21    1
     9    21     1    1
    10     1     2    2
    11     2     3    1
    12     2     4    1
    13     4     5    2
    14     5     6    1
    15     6     7    2
    16     7     8    1
    17     8    11    1
    18    11    12    1
    19    12    13    1
    20    13    14    1
    21    14    15    1
    22    14    16    1
    23    16    17    1
    24     8     9    2
    25     9    10    1
    26    21    22    1
    27    22    23    1
    28    28    29   ar
    29    29    30   ar
    30    30    26   ar
    31    23    18    1
    32    10     1    1
    33    10     6    1
    34    17    11    1
@<TRIPOS>MOLECULE
*****
 30 34 0 0 0
SMALL
GASTEIGER

@<TRIPOS>ATOM
      1 C          -0.2866    3.0064   20.9857 C.2     1  UNL1        0.0875
      2 C          -1.2727    3.9011   20.2950 C.2     1  UNL1        0.0944
      3 BR         -1.1817    4.1146   18.8130 Br      1  UNL1       -0.0439
      4 C          -2.3496    4.5823   21.0862 C.2     1  UNL1        0.2434
      5 N          -2.4405    4.3688   22.5682 N.2     1  UNL1       -0.0304
      6 C          -1.4545    3.4740   23.2588 C.2     1  UNL1        0.4031
      7 N          -1.2958    3.0760   24.6963 N.2     1  UNL1        0.0326
      8 C          -0.1207    2.1488   24.7935 C.cat   1  UNL1        0.4596
      9 N           0.4469    1.9738   23.4161 N.2     1  UNL1       -0.0725
     10 C          -0.3775    2.7928   22.4676 C.3     1  UNL1        0.3273
     11 N           0.3961    1.5089   26.0479 N.pl3   1  UNL1       -0.1832
     12 C           1.8464    1.1427   26.1604 C.3     1  UNL1        0.1857
     13 C           2.3632    0.5028   27.4148 C.3     1  UNL1        0.1133
     14 N           1.4298    0.2292   28.5567 N.3     1  UNL1       -0.2660
     15 C           1.9466   -0.4107   29.8110 C.3     1  UNL1        0.0898
     16 C          -0.0205    0.5954   28.4442 C.3     1  UNL1        0.1133
     17 C          -0.5373    1.2353   27.1897 C.3     1  UNL1        0.1857
     18 N           2.9445    0.9628   18.6119 N.3     1  UNL1       -0.2646
     19 C           3.2499    2.2248   19.3631 C.3     1  UNL1        0.0941
     20 C           2.1729    2.9059   20.1543 C.3     1  UNL1        0.1080
     21 N           0.7904    2.3251   20.1944 N.pl3   1  UNL1       -0.3043
     22 C           0.4850    1.0632   19.4433 C.3     1  UNL1        0.1080
     23 C           1.5620    0.3821   18.6520 C.3     1  UNL1        0.0941
     24 C           4.0214    0.2816   17.8207 C.3     1  UNL1        0.1222
     25 C           3.8561   -4.6380   19.7317 C.3     1  UNL1        0.0754
     26 C           4.2740   -3.4192   18.9636 C.ar    1  UNL1        0.1546
     27 C           3.6020   -2.0786   19.0034 C.ar    1  UNL1        0.0550
     28 C           4.3499   -1.1579   18.0852 C.ar    1  UNL1        0.1165
     29 N           5.4840   -1.9294   17.4780 N.ar    1  UNL1       -0.0803
     30 O           5.4370   -3.3269   18.0208 O.2     1  UNL1       -0.3580
@<TRIPOS>BOND
     1    25    26    1
     2    26    27   ar
     3    27    28   ar
     4    28    24    1
     5    24    18    1
     6    18    19    1
     7    19    20    1
     8    20    21    1
     9    21     1    1
    10     1     2    2
    11     2     3    1
    12     2     4    1
    13     4     5    2
    14     5     6    1
    15     6     7    2
    16     7     8    1
    17     8    11    1
    18    11    12    1
    19    12    13    1
    20    13    14    1
    21    14    15    1
    22    14    16    1
    23    16    17    1
    24     8     9    2
    25     9    10    1
    26    21    22    1
    27    22    23    1
    28    28    29   ar
    29    29    30   ar
    30    30    26   ar
    31    23    18    1
    32    10     1    1
    33    10     6    1
    34    17    11    1
