@<TRIPOS>MOLECULE
*****
 21 24 0 0 0
SMALL
GASTEIGER

@<TRIPOS>ATOM
      1 C          -5.7864  -17.8158   22.7170 C.3     1  UNL1        0.1152
      2 N          -7.2118  -17.3679   22.8497 N.am    1  UNL1       -0.2722
      3 C          -8.3234  -18.2493   22.3622 C.2     1  UNL1        0.2250
      4 O          -8.0095  -19.5785   21.7420 O.2     1  UNL1       -0.2749
      5 C          -9.7488  -17.8014   22.4949 C.3     1  UNL1        0.0691
      6 C         -10.6403  -18.4317   23.5235 C.3     1  UNL1        0.0086
      7 C         -12.0657  -17.9838   23.6562 C.3     1  UNL1        0.0005
      8 C         -12.5996  -16.9057   22.7603 C.3     1  UNL1        0.0000
      9 C         -11.7081  -16.2754   21.7318 C.3     1  UNL1        0.0005
     10 C          -9.8999  -18.5235   23.3083 C.3     1  UNL1        0.0000
     11 C         -10.1064  -19.5099   24.4193 C.3     1  UNL1        0.0005
     12 C         -11.5318  -19.0620   24.5520 C.3     1  UNL1        0.0000
     13 C          -9.2149  -18.8796   23.3908 C.3     1  UNL1        0.0086
     14 C         -10.2827  -16.7232   21.5991 C.3     1  UNL1        0.0086
     15 C          -7.5257  -16.0387   23.4699 C.3     1  UNL1        0.1373
     16 C          -7.5492  -15.8945   24.9628 C.ar    1  UNL1        0.0574
     17 C          -8.7506  -16.0588   25.8457 C.ar    1  UNL1        0.0160
     18 C          -8.3193  -15.8265   27.2634 C.ar    1  UNL1        0.0199
     19 C          -6.8512  -15.5186   27.2568 C.ar    1  UNL1        0.0758
     20 N          -6.3752  -15.5607   25.8348 N.ar    1  UNL1       -0.3260
     21 C          -4.9718  -15.3124   25.3672 C.3     1  UNL1        0.1302
@<TRIPOS>BOND
     1     1     2    1
     2     2    15    1
     3    15    16    1
     4    16    17   ar
     5    17    18   ar
     6    18    19   ar
     7    19    20   ar
     8    20    21    1
     9     2     3   am
    10     3     4    2
    11     3     5    1
    12     5     6    1
    13     6     7    1
    14     7     8    1
    15     8     9    1
    16     9    10    1
    17    10    11    1
    18    11    12    1
    19    11    13    1
    20     9    14    1
    21    20    16   ar
    22    13     5    1
    23    14     5    1
    24    12     7    1
@<TRIPOS>MOLECULE
*****
 21 24 0 0 0
SMALL
GASTEIGER

@<TRIPOS>ATOM
      1 C          -6.5634  -17.9678   22.4069 C.3     1  UNL1        0.1152
      2 N          -7.9936  -17.7029   22.7735 N.am    1  UNL1       -0.2722
      3 C          -9.0488  -18.7226   22.4626 C.2     1  UNL1        0.2250
      4 O          -8.6738  -20.0073   21.7852 O.2     1  UNL1       -0.2749
      5 C         -10.4790  -18.4577   22.8292 C.3     1  UNL1        0.0691
      6 C         -11.4132  -17.8583   21.8203 C.3     1  UNL1        0.0086
      7 C         -12.8433  -17.5934   22.1869 C.3     1  UNL1        0.0005
      8 C         -13.3393  -17.9280   23.5624 C.3     1  UNL1        0.0000
      9 C         -12.4052  -18.5274   24.5713 C.3     1  UNL1        0.0005
     10 C         -10.6642  -18.0630   21.8214 C.3     1  UNL1        0.0000
     11 C         -10.9172  -17.5237   20.4448 C.3     1  UNL1        0.0005
     12 C         -12.3474  -17.2588   20.8114 C.3     1  UNL1        0.0000
     13 C          -9.9830  -18.1231   21.4537 C.3     1  UNL1        0.0086
     14 C         -10.9750  -18.7923   24.2047 C.3     1  UNL1        0.0086
     15 C          -8.3686  -16.4181   23.4509 C.3     1  UNL1        0.1373
     16 C          -7.9102  -16.1482   24.8534 C.ar    1  UNL1        0.0574
     17 C          -8.7117  -16.3719   26.1014 C.ar    1  UNL1        0.0160
     18 C          -7.8666  -15.9691   27.2734 C.ar    1  UNL1        0.0199
     19 C          -6.5428  -15.4964   26.7498 C.ar    1  UNL1        0.0758
     20 N          -6.5698  -15.6071   25.2540 N.ar    1  UNL1       -0.3260
     21 C          -5.4525  -15.2409   24.3226 C.3     1  UNL1        0.1302
@<TRIPOS>BOND
     1     1     2    1
     2     2    15    1
     3    15    16    1
     4    16    17   ar
     5    17    18   ar
     6    18    19   ar
     7    19    20   ar
     8    20    21    1
     9     2     3   am
    10     3     4    2
    11     3     5    1
    12     5     6    1
    13     6     7    1
    14     7     8    1
    15     8     9    1
    16     9    10    1
    17    10    11    1
    18    11    12    1
    19    11    13    1
    20     9    14    1
    21    20    16   ar
    22    13     5    1
    23    14     5    1
    24    12     7    1
@<TRIPOS>MOLECULE
*****
 21 24 0 0 0
SMALL
GASTEIGER

@<TRIPOS>ATOM
      1 C          -7.0422  -19.6519   20.0900 C.3     1  UNL1        0.1152
      2 N          -8.1100  -19.2797   21.0757 N.am    1  UNL1       -0.2722
      3 C          -9.5441  -19.2187   20.6404 C.2     1  UNL1        0.2250
      4 O          -9.9106  -19.5300   19.2196 O.2     1  UNL1       -0.2749
      5 C         -10.6119  -18.8465   21.6261 C.3     1  UNL1        0.0691
      6 C         -11.5467  -17.7124   21.3265 C.3     1  UNL1        0.0086
      7 C         -12.6144  -17.3402   22.3121 C.3     1  UNL1        0.0005
      8 C         -12.7473  -18.1022   23.5973 C.3     1  UNL1        0.0000
      9 C         -11.8125  -19.2364   23.8968 C.3     1  UNL1        0.0005
     10 C         -10.9508  -18.0451   20.9562 C.3     1  UNL1        0.0000
     11 C         -11.4138  -16.9503   20.0413 C.3     1  UNL1        0.0005
     12 C         -12.4814  -16.5782   21.0269 C.3     1  UNL1        0.0000
     13 C         -10.4790  -18.0845   20.3409 C.3     1  UNL1        0.0086
     14 C         -10.7448  -19.6085   22.9112 C.3     1  UNL1        0.0086
     15 C          -7.7435  -18.9685   22.4965 C.3     1  UNL1        0.1373
     16 C          -7.4177  -17.5597   22.8957 C.ar    1  UNL1        0.0574
     17 C          -8.4048  -16.4465   23.0860 C.ar    1  UNL1        0.0160
     18 C          -7.6447  -15.2156   23.4825 C.ar    1  UNL1        0.0199
     19 C          -6.1877  -15.5681   23.5372 C.ar    1  UNL1        0.0758
     20 N          -6.0474  -17.0169   23.1745 N.ar    1  UNL1       -0.3260
     21 C          -4.7624  -17.7875   23.1031 C.3     1  UNL1        0.1302
@<TRIPOS>BOND
     1     1     2    1
     2     2    15    1
     3    15    16    1
     4    16    17   ar
     5    17    18   ar
     6    18    19   ar
     7    19    20   ar
     8    20    21    1
     9     2     3   am
    10     3     4    2
    11     3     5    1
    12     5     6    1
    13     6     7    1
    14     7     8    1
    15     8     9    1
    16     9    10    1
    17    10    11    1
    18    11    12    1
    19    11    13    1
    20     9    14    1
    21    20    16   ar
    22    13     5    1
    23    14     5    1
    24    12     7    1
@<TRIPOS>MOLECULE
*****
 21 24 0 0 0
SMALL
GASTEIGER

@<TRIPOS>ATOM
      1 C          -8.8075  -16.9480   25.7630 C.3     1  UNL1        0.1152
      2 N          -9.0487  -17.1819   24.3010 N.am    1  UNL1       -0.2722
      3 C         -10.2302  -17.9918   23.8560 C.2     1  UNL1        0.2250
      4 O         -11.1704  -18.5680   24.8729 O.2     1  UNL1       -0.2749
      5 C         -10.4714  -18.2257   22.3941 C.3     1  UNL1        0.0691
      6 C         -11.3782  -17.3091   21.6276 C.3     1  UNL1        0.0086
      7 C         -11.6194  -17.5429   20.1657 C.3     1  UNL1        0.0005
      8 C         -10.9539  -18.6934   19.4704 C.3     1  UNL1        0.0000
      9 C         -10.0472  -19.6101   20.2369 C.3     1  UNL1        0.0005
     10 C         -11.1359  -17.3520   22.3640 C.3     1  UNL1        0.0000
     11 C         -12.0436  -16.1586   22.3229 C.3     1  UNL1        0.0005
     12 C         -12.2849  -16.3924   20.8610 C.3     1  UNL1        0.0000
     13 C         -11.1369  -17.0752   23.0894 C.3     1  UNL1        0.0086
     14 C          -9.8059  -19.3762   21.6988 C.3     1  UNL1        0.0086
     15 C          -8.1085  -16.6057   23.2842 C.3     1  UNL1        0.1373
     16 C          -6.7527  -17.2161   23.0856 C.ar    1  UNL1        0.0574
     17 C          -6.4512  -18.4572   22.2988 C.ar    1  UNL1        0.0160
     18 C          -4.9727  -18.7007   22.3659 C.ar    1  UNL1        0.0199
     19 C          -4.3603  -17.6102   23.1941 C.ar    1  UNL1        0.0758
     20 N          -5.4605  -16.6926   23.6389 N.ar    1  UNL1       -0.3260
     21 C          -5.2971  -15.4669   24.4879 C.3     1  UNL1        0.1302
@<TRIPOS>BOND
     1     1     2    1
     2     2    15    1
     3    15    16    1
     4    16    17   ar
     5    17    18   ar
     6    18    19   ar
     7    19    20   ar
     8    20    21    1
     9     2     3   am
    10     3     4    2
    11     3     5    1
    12     5     6    1
    13     6     7    1
    14     7     8    1
    15     8     9    1
    16     9    10    1
    17    10    11    1
    18    11    12    1
    19    11    13    1
    20     9    14    1
    21    20    16   ar
    22    13     5    1
    23    14     5    1
    24    12     7    1
@<TRIPOS>MOLECULE
*****
 21 24 0 0 0
SMALL
GASTEIGER

@<TRIPOS>ATOM
      1 C          -7.2997  -19.5678   19.3734 C.3     1  UNL1        0.1152
      2 N          -7.5925  -19.4078   20.8359 N.am    1  UNL1       -0.2722
      3 C          -8.8660  -18.7501   21.2782 C.2     1  UNL1        0.2250
      4 O          -9.8467  -18.2524   20.2581 O.2     1  UNL1       -0.2749
      5 C          -9.1589  -18.5901   22.7406 C.3     1  UNL1        0.0691
      6 C          -8.8690  -17.2875   23.4254 C.3     1  UNL1        0.0086
      7 C          -9.1619  -17.1276   24.8878 C.3     1  UNL1        0.0005
      8 C          -9.7447  -18.2703   25.6654 C.3     1  UNL1        0.0000
      9 C         -10.0345  -19.5730   24.9806 C.3     1  UNL1        0.0005
     10 C          -8.7901  -17.5566   22.7014 C.3     1  UNL1        0.0000
     11 C          -8.2863  -16.1448   22.6479 C.3     1  UNL1        0.0005
     12 C          -8.5792  -15.9848   24.1103 C.3     1  UNL1        0.0000
     13 C          -8.5762  -17.4474   21.9631 C.3     1  UNL1        0.0086
     14 C          -9.7416  -19.7329   23.5182 C.3     1  UNL1        0.0086
     15 C          -6.6119  -19.9055   21.8559 C.3     1  UNL1        0.1373
     16 C          -5.2897  -19.2171   22.0237 C.ar    1  UNL1        0.0574
     17 C          -4.9793  -18.1331   23.0129 C.ar    1  UNL1        0.0160
     18 C          -3.5437  -17.7379   22.8322 C.ar    1  UNL1        0.0199
     19 C          -2.9668  -18.5776   21.7312 C.ar    1  UNL1        0.0758
     20 N          -4.0460  -19.4918   21.2315 N.ar    1  UNL1       -0.3260
     21 C          -3.9059  -20.5031   20.1326 C.3     1  UNL1        0.1302
@<TRIPOS>BOND
     1     1     2    1
     2     2    15    1
     3    15    16    1
     4    16    17   ar
     5    17    18   ar
     6    18    19   ar
     7    19    20   ar
     8    20    21    1
     9     2     3   am
    10     3     4    2
    11     3     5    1
    12     5     6    1
    13     6     7    1
    14     7     8    1
    15     8     9    1
    16     9    10    1
    17    10    11    1
    18    11    12    1
    19    11    13    1
    20     9    14    1
    21    20    16   ar
    22    13     5    1
    23    14     5    1
    24    12     7    1
@<TRIPOS>MOLECULE
*****
 21 24 0 0 0
SMALL
GASTEIGER

@<TRIPOS>ATOM
      1 C          -9.3364  -17.7188   26.1658 C.3     1  UNL1        0.1152
      2 N          -9.7010  -17.3520   24.7577 N.am    1  UNL1       -0.2722
      3 C         -10.7689  -18.1188   24.0355 C.2     1  UNL1        0.2250
      4 O         -11.4722  -19.2523   24.7213 O.2     1  UNL1       -0.2749
      5 C         -11.1335  -17.7520   22.6274 C.3     1  UNL1        0.0691
      6 C         -10.8426  -18.7038   21.5052 C.3     1  UNL1        0.0086
      7 C         -11.2072  -18.3370   20.0972 C.3     1  UNL1        0.0005
      8 C         -11.8627  -17.0184   19.8115 C.3     1  UNL1        0.0000
      9 C         -12.1536  -16.0666   20.9337 C.3     1  UNL1        0.0005
     10 C         -10.7335  -18.7116   22.2739 C.3     1  UNL1        0.0000
     11 C         -10.1871  -20.0223   21.7910 C.3     1  UNL1        0.0005
     12 C         -10.5516  -19.6555   20.3830 C.3     1  UNL1        0.0000
     13 C         -10.4780  -19.0706   22.9132 C.3     1  UNL1        0.0086
     14 C         -11.7890  -16.4334   22.3417 C.3     1  UNL1        0.0086
     15 C          -8.9977  -16.2184   24.0719 C.3     1  UNL1        0.1373
     16 C          -7.4997  -16.1426   24.0931 C.ar    1  UNL1        0.0574
     17 C          -6.6760  -15.2035   24.9234 C.ar    1  UNL1        0.0160
     18 C          -5.2297  -15.4731   24.6311 C.ar    1  UNL1        0.0199
     19 C          -5.1595  -16.5790   23.6201 C.ar    1  UNL1        0.0758
     20 N          -6.5625  -16.9928   23.2876 N.ar    1  UNL1       -0.3260
     21 C          -6.9586  -18.0680   22.3195 C.3     1  UNL1        0.1302
@<TRIPOS>BOND
     1     1     2    1
     2     2    15    1
     3    15    16    1
     4    16    17   ar
     5    17    18   ar
     6    18    19   ar
     7    19    20   ar
     8    20    21    1
     9     2     3   am
    10     3     4    2
    11     3     5    1
    12     5     6    1
    13     6     7    1
    14     7     8    1
    15     8     9    1
    16     9    10    1
    17    10    11    1
    18    11    12    1
    19    11    13    1
    20     9    14    1
    21    20    16   ar
    22    13     5    1
    23    14     5    1
    24    12     7    1
@<TRIPOS>MOLECULE
*****
 21 24 0 0 0
SMALL
GASTEIGER

@<TRIPOS>ATOM
      1 C          -9.4141  -17.8463   26.5354 C.3     1  UNL1        0.1152
      2 N          -9.5519  -17.7179   25.0472 N.am    1  UNL1       -0.2722
      3 C         -10.2032  -18.8139   24.2570 C.2     1  UNL1        0.2250
      4 O         -10.7168  -20.0383   24.9548 O.2     1  UNL1       -0.2749
      5 C         -10.3409  -18.6855   22.7688 C.3     1  UNL1        0.0691
      6 C         -11.6185  -18.1700   22.1756 C.3     1  UNL1        0.0086
      7 C         -11.7562  -18.0416   20.6875 C.3     1  UNL1        0.0005
      8 C         -10.6163  -18.4287   19.7926 C.3     1  UNL1        0.0000
      9 C          -9.3388  -18.9442   20.3858 C.3     1  UNL1        0.0005
     10 C         -11.3627  -18.3040   22.8963 C.3     1  UNL1        0.0000
     11 C         -12.7584  -17.7828   23.0704 C.3     1  UNL1        0.0005
     12 C         -12.8961  -17.6545   21.5823 C.3     1  UNL1        0.0000
     13 C         -11.4808  -18.2984   23.6637 C.3     1  UNL1        0.0086
     14 C          -9.2011  -19.0726   21.8739 C.3     1  UNL1        0.0086
     15 C          -9.0383  -16.4935   24.3494 C.3     1  UNL1        0.1373
     16 C          -7.6069  -16.0781   24.5195 C.ar    1  UNL1        0.0574
     17 C          -6.5265  -16.1937   23.4856 C.ar    1  UNL1        0.0160
     18 C          -5.2566  -15.6612   24.0806 C.ar    1  UNL1        0.0199
     19 C          -5.5523  -15.2165   25.4823 C.ar    1  UNL1        0.0758
     20 N          -7.0050  -15.4742   25.7536 N.ar    1  UNL1       -0.3260
     21 C          -7.7285  -15.1797   27.0342 C.3     1  UNL1        0.1302
@<TRIPOS>BOND
     1     1     2    1
     2     2    15    1
     3    15    16    1
     4    16    17   ar
     5    17    18   ar
     6    18    19   ar
     7    19    20   ar
     8    20    21    1
     9     2     3   am
    10     3     4    2
    11     3     5    1
    12     5     6    1
    13     6     7    1
    14     7     8    1
    15     8     9    1
    16     9    10    1
    17    10    11    1
    18    11    12    1
    19    11    13    1
    20     9    14    1
    21    20    16   ar
    22    13     5    1
    23    14     5    1
    24    12     7    1
@<TRIPOS>MOLECULE
*****
 21 24 0 0 0
SMALL
GASTEIGER

@<TRIPOS>ATOM
      1 C          -7.8277  -14.6065   21.6260 C.3     1  UNL1        0.1152
      2 N          -8.1653  -15.8810   22.3414 N.am    1  UNL1       -0.2722
      3 C          -9.4092  -16.6372   21.9799 C.2     1  UNL1        0.2250
      4 O         -10.3156  -16.1190   20.9029 O.2     1  UNL1       -0.2749
      5 C          -9.7467  -17.9118   22.6953 C.3     1  UNL1        0.0691
      6 C         -11.1082  -18.0961   23.2971 C.3     1  UNL1        0.0086
      7 C         -11.4457  -19.3705   24.0125 C.3     1  UNL1        0.0005
      8 C         -10.4217  -20.4607   24.1260 C.3     1  UNL1        0.0000
      9 C          -9.0602  -20.2764   23.5241 C.3     1  UNL1        0.0005
     10 C         -10.7550  -17.5288   22.9017 C.3     1  UNL1        0.0000
     11 C         -12.1323  -17.0059   23.1837 C.3     1  UNL1        0.0005
     12 C         -12.4698  -18.2803   23.8990 C.3     1  UNL1        0.0000
     13 C         -10.7708  -16.8216   22.5818 C.3     1  UNL1        0.0086
     14 C          -8.7227  -19.0020   22.8088 C.3     1  UNL1        0.0086
     15 C          -7.2588  -16.3993   23.4184 C.3     1  UNL1        0.1373
     16 C          -7.4513  -15.9558   24.8384 C.ar    1  UNL1        0.0574
     17 C          -8.7623  -15.8529   25.5600 C.ar    1  UNL1        0.0160
     18 C          -8.4877  -15.3709   26.9536 C.ar    1  UNL1        0.0199
     19 C          -7.0070  -15.1759   27.0934 C.ar    1  UNL1        0.0758
     20 N          -6.3664  -15.5374   25.7860 N.ar    1  UNL1       -0.3260
     21 C          -4.8987  -15.4890   25.4801 C.3     1  UNL1        0.1302
@<TRIPOS>BOND
     1     1     2    1
     2     2    15    1
     3    15    16    1
     4    16    17   ar
     5    17    18   ar
     6    18    19   ar
     7    19    20   ar
     8    20    21    1
     9     2     3   am
    10     3     4    2
    11     3     5    1
    12     5     6    1
    13     6     7    1
    14     7     8    1
    15     8     9    1
    16     9    10    1
    17    10    11    1
    18    11    12    1
    19    11    13    1
    20     9    14    1
    21    20    16   ar
    22    13     5    1
    23    14     5    1
    24    12     7    1
@<TRIPOS>MOLECULE
*****
 21 24 0 0 0
SMALL
GASTEIGER

@<TRIPOS>ATOM
      1 C          -7.3345  -19.6917   19.6934 C.3     1  UNL1        0.1152
      2 N          -7.4188  -19.1519   21.0904 N.am    1  UNL1       -0.2722
      3 C          -8.5682  -18.2735   21.4870 C.2     1  UNL1        0.2250
      4 O          -9.6332  -17.9347   20.4865 O.2     1  UNL1       -0.2749
      5 C          -8.6525  -17.7337   22.8840 C.3     1  UNL1        0.0691
      6 C          -9.4557  -18.4605   23.9216 C.3     1  UNL1        0.0086
      7 C          -9.5400  -17.9207   25.3185 C.3     1  UNL1        0.0005
      8 C          -8.8210  -16.6543   25.6779 C.3     1  UNL1        0.0000
      9 C          -8.0178  -15.9275   24.6403 C.3     1  UNL1        0.0005
     10 C          -9.2958  -18.5762   23.1706 C.3     1  UNL1        0.0000
     11 C         -10.1747  -19.7269   23.5622 C.3     1  UNL1        0.0005
     12 C         -10.2590  -19.1872   24.9592 C.3     1  UNL1        0.0000
     13 C          -9.3714  -19.0002   22.5246 C.3     1  UNL1        0.0086
     14 C          -7.9335  -16.4673   23.2434 C.3     1  UNL1        0.0086
     15 C          -6.3538  -19.4907   22.0908 C.3     1  UNL1        0.1373
     16 C          -4.9074  -19.3097   21.7368 C.ar    1  UNL1        0.0574
     17 C          -4.1501  -20.0840   20.6991 C.ar    1  UNL1        0.0160
     18 C          -2.7391  -19.5755   20.6793 C.ar    1  UNL1        0.0199
     19 C          -2.6243  -18.4868   21.7049 C.ar    1  UNL1        0.0758
     20 N          -3.9645  -18.3226   22.3585 N.ar    1  UNL1       -0.3260
     21 C          -4.3023  -17.3432   23.4432 C.3     1  UNL1        0.1302
@<TRIPOS>BOND
     1     1     2    1
     2     2    15    1
     3    15    16    1
     4    16    17   ar
     5    17    18   ar
     6    18    19   ar
     7    19    20   ar
     8    20    21    1
     9     2     3   am
    10     3     4    2
    11     3     5    1
    12     5     6    1
    13     6     7    1
    14     7     8    1
    15     8     9    1
    16     9    10    1
    17    10    11    1
    18    11    12    1
    19    11    13    1
    20     9    14    1
    21    20    16   ar
    22    13     5    1
    23    14     5    1
    24    12     7    1
