@<TRIPOS>MOLECULE
*****
 42 43 0 0 0
SMALL
GASTEIGER

@<TRIPOS>ATOM
      1 O          -5.2784  -18.8696   19.7038 O.3     1  UNL1       -0.2925
      2 P          -5.7912  -19.7014   20.8418 P.3     1  UNL1        0.3697
      3 O          -4.3904  -20.1371   21.1545 O.2     1  UNL1       -0.2553
      4 O          -6.3040  -20.5332   21.9798 O.3     1  UNL1       -0.3218
      5 H          -5.5605  -20.9782   22.4158 H       1  UNL1        0.2198
      6 C          -7.1920  -19.2657   20.5291 C.3     1  UNL1        0.2579
      7 O          -7.6576  -19.2026   19.1046 O.3     1  UNL1       -0.3426
      8 C          -8.9396  -19.8706   18.7042 C.3     1  UNL1        0.1387
      9 C          -8.9072  -21.1177   17.8713 C.3     1  UNL1        0.0342
     10 C         -10.2540  -19.2914   19.1367 C.3     1  UNL1        0.1384
     11 N         -10.6979  -19.4218   20.5635 N.ar    1  UNL1       -0.2918
     12 C         -10.4706  -20.6082   21.4527 C.ar    1  UNL1        0.1798
     13 N         -11.0792  -20.3082   22.7905 N.ar    1  UNL1       -0.2195
     14 C         -11.6826  -18.9364   22.7281 C.ar    1  UNL1        0.1481
     15 C         -12.4162  -18.1153   23.7467 C.ar    1  UNL1        0.1480
     16 N         -12.6519  -18.6631   25.1230 N.pl3   1  UNL1       -0.3413
     17 N         -12.9141  -16.7463   23.3890 N.ar    1  UNL1       -0.2078
     18 C         -12.6785  -16.1985   22.0126 C.ar    1  UNL1        0.2015
     19 N         -11.9449  -17.0195   20.9940 N.ar    1  UNL1       -0.2048
     20 C         -11.4469  -18.3885   21.3517 C.ar    1  UNL1        0.1674
     21 H         -12.3251  -19.5616   25.3578 H       1  UNL1        0.1438
     22 H         -13.1334  -18.1242   25.7916 H       1  UNL1        0.1438
     23 C          -3.8119  -18.8512   19.3894 C.3     1  UNL1        0.1540
     24 C          -3.2128  -17.6768   18.6739 C.3     1  UNL1        0.0646
     25 C          -1.7568  -17.6812   18.3135 C.3     1  UNL1        0.1448
     26 O          -0.7575  -18.3123   19.2371 O.3     1  UNL1       -0.3537
     27 C          -0.4166  -17.6498   20.5390 C.3     1  UNL1        0.1422
     28 C          -1.1219  -16.3905   20.9470 C.3     1  UNL1        0.0321
     29 C          -2.2083  -16.4403   21.9802 C.3     1  UNL1        0.0026
     30 C          -2.4906  -17.7197   22.7107 C.3     1  UNL1        0.0001
     31 C          -3.6343  -17.7943   23.6783 C.3     1  UNL1        0.0000
     32 C          -4.8780  -16.9925   23.4328 C.3     1  UNL1        0.0000
     33 C          -4.9626  -15.5739   23.9127 C.3     1  UNL1        0.0000
     34 C          -5.9827  -15.1905   24.9435 C.3     1  UNL1        0.0000
     35 C          -5.7896  -15.5925   26.3756 C.3     1  UNL1        0.0000
     36 C          -6.7527  -15.1197   27.4238 C.3     1  UNL1        0.0000
     37 C          -8.2071  -15.4714   27.3193 C.3     1  UNL1        0.0000
     38 C          -8.6188  -16.8902   27.0597 C.3     1  UNL1        0.0010
     39 C          -9.0123  -17.3158   25.6762 C.3     1  UNL1        0.0140
     40 C          -9.5256  -16.3021   24.6971 C.3     1  UNL1        0.0770
     41 C          -8.3807  -16.1783   21.9269 C.1     1  UNL1       -0.0141
     42 C          -8.9531  -16.2402   23.3119 C.1     1  UNL1       -0.0779
@<TRIPOS>BOND
     1    41    42    3
     2    42    40    1
     3    40    39    1
     4    39    38    1
     5    38    37    1
     6    37    36    1
     7    36    35    1
     8    35    34    1
     9    34    33    1
    10    33    32    1
    11    32    31    1
    12    31    30    1
    13    30    29    1
    14    29    28    1
    15    28    27    1
    16    27    26    1
    17    26    25    1
    18    25    24    1
    19    24    23    1
    20    23     1    1
    21     1     2    1
    22     2     3    2
    23     2     4    1
    24     2     6    1
    25     6     7    1
    26     7     8    1
    27     8     9    1
    28     8    10    1
    29    10    11    1
    30    11    12   ar
    31    12    13   ar
    32    13    14   ar
    33    14    15   ar
    34    15    16    1
    35    15    17   ar
    36    17    18   ar
    37    18    19   ar
    38    19    20   ar
    39    20    11   ar
    40    20    14   ar
    41     4     5    1
    42    16    21    1
    43    16    22    1
@<TRIPOS>MOLECULE
*****
 42 43 0 0 0
SMALL
GASTEIGER

@<TRIPOS>ATOM
      1 O          -6.8462  -16.3756   25.4073 O.3     1  UNL1       -0.2925
      2 P          -7.7718  -15.9172   26.4950 P.3     1  UNL1        0.3697
      3 O          -6.6211  -15.2590   27.1969 O.2     1  UNL1       -0.2553
      4 O          -8.6975  -15.4588   27.5826 O.3     1  UNL1       -0.3218
      5 H          -8.1955  -14.9587   28.2450 H       1  UNL1        0.2198
      6 C          -8.9225  -16.5754   25.7930 C.3     1  UNL1        0.2579
      7 O          -9.1993  -18.0334   26.0110 O.3     1  UNL1       -0.3426
      8 C         -10.0123  -18.8003   25.0106 C.3     1  UNL1        0.1387
      9 C          -9.3806  -19.9099   24.2234 C.3     1  UNL1        0.0342
     10 C         -11.4570  -18.4575   24.7973 C.3     1  UNL1        0.1384
     11 N         -11.9199  -17.9579   23.4608 N.ar    1  UNL1       -0.2918
     12 C         -13.2320  -18.2757   22.8070 C.ar    1  UNL1        0.1798
     13 N         -13.2749  -17.5671   21.4856 N.ar    1  UNL1       -0.2195
     14 C         -11.9895  -16.8113   21.3229 C.ar    1  UNL1        0.1481
     15 C         -11.4734  -15.9344   20.2208 C.ar    1  UNL1        0.1480
     16 N         -12.3108  -15.6928   19.0000 N.pl3   1  UNL1       -0.3413
     17 N         -10.1198  -15.2990   20.3395 N.ar    1  UNL1       -0.2078
     18 C          -9.2824  -15.5406   21.5603 C.ar    1  UNL1        0.2015
     19 N          -9.7985  -16.4175   22.6624 N.ar    1  UNL1       -0.2048
     20 C         -11.1520  -17.0529   22.5437 C.ar    1  UNL1        0.1674
     21 H         -13.1992  -16.1098   18.9221 H       1  UNL1        0.1438
     22 H         -11.9721  -15.1172   18.2767 H       1  UNL1        0.1438
     23 C          -6.5632  -15.4812   24.2368 C.3     1  UNL1        0.1540
     24 C          -5.1471  -15.1402   23.8786 C.3     1  UNL1        0.0646
     25 C          -4.1767  -16.2314   23.5355 C.3     1  UNL1        0.1448
     26 O          -3.6042  -16.3180   22.1517 O.3     1  UNL1       -0.3537
     27 C          -2.1551  -16.0085   21.9189 C.3     1  UNL1        0.1422
     28 C          -1.2165  -17.0949   21.4843 C.3     1  UNL1        0.0321
     29 C          -0.7596  -17.1649   20.0572 C.3     1  UNL1        0.0026
     30 C          -1.4600  -18.0716   19.0891 C.3     1  UNL1        0.0001
     31 C          -2.9537  -18.0226   18.9618 C.3     1  UNL1        0.0000
     32 C          -3.7825  -19.1949   19.3964 C.3     1  UNL1        0.0000
     33 C          -3.2727  -20.1200   20.4615 C.3     1  UNL1        0.0000
     34 C          -3.5199  -19.8074   21.9076 C.3     1  UNL1        0.0000
     35 C          -4.8783  -19.3561   22.3558 C.3     1  UNL1        0.0000
     36 C          -6.0812  -20.2082   22.0783 C.3     1  UNL1        0.0000
     37 C          -6.9231  -19.9447   20.8652 C.3     1  UNL1        0.0000
     38 C          -8.1115  -19.0344   20.9603 C.3     1  UNL1        0.0010
     39 C          -9.4608  -19.5133   20.5131 C.3     1  UNL1        0.0140
     40 C          -9.8322  -19.4599   19.0608 C.3     1  UNL1        0.0770
     41 C          -9.0084  -21.6805   17.2193 C.1     1  UNL1       -0.0141
     42 C          -9.4203  -20.5703   18.1400 C.1     1  UNL1       -0.0779
@<TRIPOS>BOND
     1    41    42    3
     2    42    40    1
     3    40    39    1
     4    39    38    1
     5    38    37    1
     6    37    36    1
     7    36    35    1
     8    35    34    1
     9    34    33    1
    10    33    32    1
    11    32    31    1
    12    31    30    1
    13    30    29    1
    14    29    28    1
    15    28    27    1
    16    27    26    1
    17    26    25    1
    18    25    24    1
    19    24    23    1
    20    23     1    1
    21     1     2    1
    22     2     3    2
    23     2     4    1
    24     2     6    1
    25     6     7    1
    26     7     8    1
    27     8     9    1
    28     8    10    1
    29    10    11    1
    30    11    12   ar
    31    12    13   ar
    32    13    14   ar
    33    14    15   ar
    34    15    16    1
    35    15    17   ar
    36    17    18   ar
    37    18    19   ar
    38    19    20   ar
    39    20    11   ar
    40    20    14   ar
    41     4     5    1
    42    16    21    1
    43    16    22    1
@<TRIPOS>MOLECULE
*****
 42 43 0 0 0
SMALL
GASTEIGER

@<TRIPOS>ATOM
      1 O          -6.5096  -20.3962   21.4763 O.3     1  UNL1       -0.2925
      2 P          -7.2032  -19.0967   21.1929 P.3     1  UNL1        0.3697
      3 O          -7.4969  -18.9345   22.6548 O.2     1  UNL1       -0.2553
      4 O          -7.8967  -17.7972   20.9094 O.3     1  UNL1       -0.3218
      5 H          -8.2252  -17.4182   21.7396 H       1  UNL1        0.2198
      6 C          -6.9095  -19.2589   19.7309 C.3     1  UNL1        0.2579
      7 O          -8.0256  -19.2000   18.7306 O.3     1  UNL1       -0.3426
      8 C          -8.9686  -20.3581   18.5899 C.3     1  UNL1        0.1387
      9 C          -8.6900  -21.4340   17.5824 C.3     1  UNL1        0.0342
     10 C         -10.1901  -20.4403   19.4566 C.3     1  UNL1        0.1384
     11 N         -10.8010  -19.1881   20.0124 N.ar    1  UNL1       -0.2918
     12 C         -11.1555  -17.9579   19.2308 C.ar    1  UNL1        0.1798
     13 N         -11.7382  -16.9559   20.1828 N.ar    1  UNL1       -0.2195
     14 C         -11.7438  -17.5667   21.5528 C.ar    1  UNL1        0.1481
     15 C         -12.2015  -17.0449   22.8825 C.ar    1  UNL1        0.1480
     16 N         -12.7808  -15.6653   22.9878 N.pl3   1  UNL1       -0.3413
     17 N         -12.0800  -17.9027   24.1069 N.ar    1  UNL1       -0.2078
     18 C         -11.5007  -19.2824   24.0016 C.ar    1  UNL1        0.2015
     19 N         -11.0430  -19.8042   22.6719 N.ar    1  UNL1       -0.2048
     20 C         -11.1646  -18.9463   21.4475 C.ar    1  UNL1        0.1674
     21 H         -12.8605  -15.1022   22.1841 H       1  UNL1        0.1438
     22 H         -13.0812  -15.3228   23.8605 H       1  UNL1        0.1438
     23 C          -5.5050  -20.9380   20.5032 C.3     1  UNL1        0.1540
     24 C          -4.0789  -20.4766   20.5624 C.3     1  UNL1        0.0646
     25 C          -3.4719  -19.7644   19.3901 C.3     1  UNL1        0.1448
     26 O          -3.7294  -18.3008   19.1862 O.3     1  UNL1       -0.3537
     27 C          -2.6344  -17.4102   18.6787 C.3     1  UNL1        0.1422
     28 C          -1.2147  -17.6540   19.0972 C.3     1  UNL1        0.0321
     29 C          -0.7951  -17.3938   20.5137 C.3     1  UNL1        0.0026
     30 C          -1.2952  -16.1760   21.2324 C.3     1  UNL1        0.0001
     31 C          -2.4708  -16.2812   22.1580 C.3     1  UNL1        0.0000
     32 C          -2.8596  -17.6130   22.7283 C.3     1  UNL1        0.0000
     33 C          -4.1934  -17.7837   23.3930 C.3     1  UNL1        0.0000
     34 C          -4.9365  -16.5844   23.9024 C.3     1  UNL1        0.0000
     35 C          -4.9532  -16.2806   25.3712 C.3     1  UNL1        0.0000
     36 C          -5.7044  -15.0868   25.8816 C.3     1  UNL1        0.0000
     37 C          -6.3917  -15.1464   27.2136 C.3     1  UNL1        0.0000
     38 C          -7.8751  -15.3576   27.2832 C.3     1  UNL1        0.0010
     39 C          -8.4416  -16.7422   27.1736 C.3     1  UNL1        0.0140
     40 C          -9.1049  -17.1827   25.9024 C.3     1  UNL1        0.0770
     41 C          -8.5656  -15.7148   23.3422 C.1     1  UNL1       -0.0141
     42 C          -8.8353  -16.4487   24.6223 C.1     1  UNL1       -0.0779
@<TRIPOS>BOND
     1    41    42    3
     2    42    40    1
     3    40    39    1
     4    39    38    1
     5    38    37    1
     6    37    36    1
     7    36    35    1
     8    35    34    1
     9    34    33    1
    10    33    32    1
    11    32    31    1
    12    31    30    1
    13    30    29    1
    14    29    28    1
    15    28    27    1
    16    27    26    1
    17    26    25    1
    18    25    24    1
    19    24    23    1
    20    23     1    1
    21     1     2    1
    22     2     3    2
    23     2     4    1
    24     2     6    1
    25     6     7    1
    26     7     8    1
    27     8     9    1
    28     8    10    1
    29    10    11    1
    30    11    12   ar
    31    12    13   ar
    32    13    14   ar
    33    14    15   ar
    34    15    16    1
    35    15    17   ar
    36    17    18   ar
    37    18    19   ar
    38    19    20   ar
    39    20    11   ar
    40    20    14   ar
    41     4     5    1
    42    16    21    1
    43    16    22    1
@<TRIPOS>MOLECULE
*****
 42 43 0 0 0
SMALL
GASTEIGER

@<TRIPOS>ATOM
      1 O          -5.1411  -16.7028   24.2489 O.3     1  UNL1       -0.2925
      2 P          -5.1912  -15.5915   25.2551 P.3     1  UNL1        0.3697
      3 O          -4.2752  -16.3658   26.1558 O.2     1  UNL1       -0.2553
      4 O          -5.2412  -14.4801   26.2613 O.3     1  UNL1       -0.3218
      5 H          -4.6935  -14.7127   27.0273 H       1  UNL1        0.2198
      6 C          -6.1071  -14.8171   24.3543 C.3     1  UNL1        0.2579
      7 O          -7.5106  -14.5170   24.7904 O.3     1  UNL1       -0.3426
      8 C          -8.3514  -15.5955   25.4066 C.3     1  UNL1        0.1387
      9 C          -8.6297  -15.5796   26.8805 C.3     1  UNL1        0.0342
     10 C          -8.9141  -16.6901   24.5488 C.3     1  UNL1        0.1384
     11 N          -9.4625  -16.3709   23.1897 N.ar    1  UNL1       -0.2918
     12 C          -8.7365  -15.6495   22.0931 C.ar    1  UNL1        0.1798
     13 N          -9.6586  -15.5499   20.9142 N.ar    1  UNL1       -0.2195
     14 C         -10.9545  -16.2097   21.2822 C.ar    1  UNL1        0.1481
     15 C         -12.2291  -16.4140   20.5184 C.ar    1  UNL1        0.1480
     16 N         -12.3503  -15.9066   19.1120 N.pl3   1  UNL1       -0.3413
     17 N         -13.3826  -17.1257   21.1609 N.ar    1  UNL1       -0.2078
     18 C         -13.2614  -17.6332   22.5673 C.ar    1  UNL1        0.2015
     19 N         -11.9867  -17.4288   23.3311 N.ar    1  UNL1       -0.2048
     20 C         -10.8333  -16.7171   22.6885 C.ar    1  UNL1        0.1674
     21 H         -11.5933  -15.4394   18.6903 H       1  UNL1        0.1438
     22 H         -13.1870  -16.0407   18.6107 H       1  UNL1        0.1438
     23 C          -3.9927  -17.6677   24.2536 C.3     1  UNL1        0.1540
     24 C          -3.4289  -18.1689   22.9571 C.3     1  UNL1        0.0646
     25 C          -2.0679  -17.7246   22.5095 C.3     1  UNL1        0.1448
     26 O          -1.9249  -16.5217   21.6249 O.3     1  UNL1       -0.3537
     27 C          -0.9204  -16.5250   20.5110 C.3     1  UNL1        0.1422
     28 C          -0.6087  -17.8005   19.7858 C.3     1  UNL1        0.0321
     29 C          -1.5578  -18.3253   18.7495 C.3     1  UNL1        0.0026
     30 C          -2.7851  -19.0786   19.1694 C.3     1  UNL1        0.0001
     31 C          -4.0900  -18.3565   19.3301 C.3     1  UNL1        0.0000
     32 C          -5.2318  -19.0202   20.0412 C.3     1  UNL1        0.0000
     33 C          -5.2872  -20.5160   20.1381 C.3     1  UNL1        0.0000
     34 C          -6.6116  -21.2121   20.2460 C.3     1  UNL1        0.0000
     35 C          -7.6307  -21.0583   19.1562 C.3     1  UNL1        0.0000
     36 C          -8.1126  -19.6922   18.7672 C.3     1  UNL1        0.0000
     37 C          -9.1695  -19.0091   19.5836 C.3     1  UNL1        0.0000
     38 C         -10.4476  -19.7250   19.9059 C.3     1  UNL1        0.0010
     39 C         -10.7809  -20.0606   21.3293 C.3     1  UNL1        0.0140
     40 C          -9.6811  -20.2831   22.3248 C.3     1  UNL1        0.0770
     41 C         -10.2332  -19.9952   25.2595 C.1     1  UNL1       -0.0141
     42 C          -9.9571  -20.1391   23.7922 C.1     1  UNL1       -0.0779
@<TRIPOS>BOND
     1    41    42    3
     2    42    40    1
     3    40    39    1
     4    39    38    1
     5    38    37    1
     6    37    36    1
     7    36    35    1
     8    35    34    1
     9    34    33    1
    10    33    32    1
    11    32    31    1
    12    31    30    1
    13    30    29    1
    14    29    28    1
    15    28    27    1
    16    27    26    1
    17    26    25    1
    18    25    24    1
    19    24    23    1
    20    23     1    1
    21     1     2    1
    22     2     3    2
    23     2     4    1
    24     2     6    1
    25     6     7    1
    26     7     8    1
    27     8     9    1
    28     8    10    1
    29    10    11    1
    30    11    12   ar
    31    12    13   ar
    32    13    14   ar
    33    14    15   ar
    34    15    16    1
    35    15    17   ar
    36    17    18   ar
    37    18    19   ar
    38    19    20   ar
    39    20    11   ar
    40    20    14   ar
    41     4     5    1
    42    16    21    1
    43    16    22    1
@<TRIPOS>MOLECULE
*****
 42 43 0 0 0
SMALL
GASTEIGER

@<TRIPOS>ATOM
      1 O          -6.2265  -20.3696   21.3260 O.3     1  UNL1       -0.2925
      2 P          -6.9551  -19.0667   21.1786 P.3     1  UNL1        0.3697
      3 O          -6.9085  -18.8724   22.6652 O.2     1  UNL1       -0.2553
      4 O          -7.6836  -17.7638   21.0312 O.3     1  UNL1       -0.3218
      5 H          -7.8123  -17.3646   21.9058 H       1  UNL1        0.2198
      6 C          -7.0017  -19.2610   19.6919 C.3     1  UNL1        0.2579
      7 O          -8.3046  -19.1351   18.9596 O.3     1  UNL1       -0.3426
      8 C          -9.1879  -20.3353   18.7886 C.3     1  UNL1        0.1387
      9 C          -8.9731  -21.2660   17.6319 C.3     1  UNL1        0.0342
     10 C         -10.2860  -20.6050   19.7743 C.3     1  UNL1        0.1384
     11 N         -10.6422  -19.5716   20.8016 N.ar    1  UNL1       -0.2918
     12 C         -10.5678  -19.7455   22.2896 C.ar    1  UNL1        0.1798
     13 N         -11.0149  -18.4643   22.9288 N.ar    1  UNL1       -0.2195
     14 C         -11.3655  -17.4986   21.8359 C.ar    1  UNL1        0.1481
     15 C         -11.8647  -16.0845   21.8680 C.ar    1  UNL1        0.1480
     16 N         -12.0951  -15.4001   23.1827 N.pl3   1  UNL1       -0.3413
     17 N         -12.1336  -15.3548   20.5854 N.ar    1  UNL1       -0.2078
     18 C         -11.9033  -16.0392   19.2706 C.ar    1  UNL1        0.2015
     19 N         -11.4041  -17.4533   19.2385 N.ar    1  UNL1       -0.2048
     20 C         -11.1351  -18.1830   20.5212 C.ar    1  UNL1        0.1674
     21 H         -11.9186  -15.8790   24.0246 H       1  UNL1        0.1438
     22 H         -12.4228  -14.4720   23.2038 H       1  UNL1        0.1438
     23 C          -5.5619  -20.9961   20.1362 C.3     1  UNL1        0.1540
     24 C          -4.0715  -20.9219   19.9841 C.3     1  UNL1        0.0646
     25 C          -3.3585  -19.6214   20.2088 C.3     1  UNL1        0.1448
     26 O          -3.7143  -18.4190   19.3856 O.3     1  UNL1       -0.3537
     27 C          -2.6346  -17.6248   18.7123 C.3     1  UNL1        0.1422
     28 C          -1.1935  -17.9138   19.0114 C.3     1  UNL1        0.0321
     29 C          -0.5872  -17.4477   20.3019 C.3     1  UNL1        0.0026
     30 C          -1.1020  -16.2057   20.9670 C.3     1  UNL1        0.0001
     31 C          -2.2203  -16.2965   21.9626 C.3     1  UNL1        0.0000
     32 C          -2.4373  -17.5650   22.7332 C.3     1  UNL1        0.0000
     33 C          -3.7384  -17.7986   23.4420 C.3     1  UNL1        0.0000
     34 C          -4.0114  -17.1201   24.7516 C.3     1  UNL1        0.0000
     35 C          -5.1774  -16.1858   24.8836 C.3     1  UNL1        0.0000
     36 C          -5.6664  -15.4230   23.6882 C.3     1  UNL1        0.0000
     37 C          -7.0980  -14.9815   23.6144 C.3     1  UNL1        0.0000
     38 C          -8.2008  -15.9942   23.7056 C.3     1  UNL1        0.0010
     39 C          -9.1696  -15.9473   24.8497 C.3     1  UNL1        0.0140
     40 C          -8.7691  -16.4785   26.1940 C.3     1  UNL1        0.0770
     41 C          -6.8822  -14.9139   27.9238 C.1     1  UNL1       -0.0141
     42 C          -7.8256  -15.6962   27.0589 C.1     1  UNL1       -0.0779
@<TRIPOS>BOND
     1    41    42    3
     2    42    40    1
     3    40    39    1
     4    39    38    1
     5    38    37    1
     6    37    36    1
     7    36    35    1
     8    35    34    1
     9    34    33    1
    10    33    32    1
    11    32    31    1
    12    31    30    1
    13    30    29    1
    14    29    28    1
    15    28    27    1
    16    27    26    1
    17    26    25    1
    18    25    24    1
    19    24    23    1
    20    23     1    1
    21     1     2    1
    22     2     3    2
    23     2     4    1
    24     2     6    1
    25     6     7    1
    26     7     8    1
    27     8     9    1
    28     8    10    1
    29    10    11    1
    30    11    12   ar
    31    12    13   ar
    32    13    14   ar
    33    14    15   ar
    34    15    16    1
    35    15    17   ar
    36    17    18   ar
    37    18    19   ar
    38    19    20   ar
    39    20    11   ar
    40    20    14   ar
    41     4     5    1
    42    16    21    1
    43    16    22    1
@<TRIPOS>MOLECULE
*****
 42 43 0 0 0
SMALL
GASTEIGER

@<TRIPOS>ATOM
      1 O           7.3496   -4.3299   29.7084 O.3     1  UNL1       -0.2925
      2 P           6.9411   -4.7682   31.0835 P.3     1  UNL1        0.3697
      3 O           6.9630   -6.1991   30.6340 O.2     1  UNL1       -0.2553
      4 O           6.5325   -5.2064   32.4586 O.3     1  UNL1       -0.3218
      5 H           6.4578   -6.1733   32.4810 H       1  UNL1        0.2198
      6 C           6.9191   -3.3373   31.5330 C.3     1  UNL1        0.2579
      7 O           5.6586   -2.5329   31.4139 O.3     1  UNL1       -0.3426
      8 C           5.0771   -1.8661   32.6252 C.3     1  UNL1        0.1387
      9 C           4.2749   -2.6654   33.6088 C.3     1  UNL1        0.0342
     10 C           5.2978   -0.3999   32.8528 C.3     1  UNL1        0.1384
     11 N           4.1237    0.5275   32.9602 N.ar    1  UNL1       -0.2918
     12 C           3.8540    1.4816   34.0858 C.ar    1  UNL1        0.1798
     13 N           2.5768    2.2073   33.7822 N.ar    1  UNL1       -0.2195
     14 C           2.0573    1.7017   32.4690 C.ar    1  UNL1        0.1481
     15 C           0.8371    2.0525   31.6702 C.ar    1  UNL1        0.1480
     16 N          -0.1189    3.0908   32.1781 N.pl3   1  UNL1       -0.3413
     17 N           0.5731    1.3652   30.3634 N.ar    1  UNL1       -0.2078
     18 C           1.5291    0.3270   29.8554 C.ar    1  UNL1        0.2015
     19 N           2.7493   -0.0239   30.6542 N.ar    1  UNL1       -0.2048
     20 C           3.0133    0.6635   31.9610 C.ar    1  UNL1        0.1674
     21 H           0.0544    3.5419   33.0359 H       1  UNL1        0.1438
     22 H          -0.9198    3.3210   31.6538 H       1  UNL1        0.1438
     23 C           6.5285   -4.7302   28.5187 C.3     1  UNL1        0.1540
     24 C           7.1768   -4.8732   27.1736 C.3     1  UNL1        0.0646
     25 C           6.9234   -3.8501   26.1063 C.3     1  UNL1        0.1448
     26 O           6.2413   -4.2494   24.8315 O.3     1  UNL1       -0.3537
     27 C           5.7264   -3.1970   23.8949 C.3     1  UNL1        0.1422
     28 C           5.6597   -3.4717   22.4217 C.3     1  UNL1        0.0321
     29 C           4.3565   -3.8623   21.7899 C.3     1  UNL1        0.0026
     30 C           4.3118   -4.2508   20.3417 C.3     1  UNL1        0.0001
     31 C           3.8507   -3.2608   19.3135 C.3     1  UNL1        0.0000
     32 C           4.8259   -2.7018   18.3203 C.3     1  UNL1        0.0000
     33 C           6.1135   -2.0949   18.7934 C.3     1  UNL1        0.0000
     34 C           6.2488   -0.6042   18.8908 C.3     1  UNL1        0.0000
     35 C           5.4034    0.2837   18.0266 C.3     1  UNL1        0.0000
     36 C           4.5847    1.3762   18.6481 C.3     1  UNL1        0.0000
     37 C           3.1307    1.5113   18.3052 C.3     1  UNL1        0.0000
     38 C           2.2497    0.2975   18.2818 C.3     1  UNL1        0.0010
     39 C           1.2255    0.0932   19.3585 C.3     1  UNL1        0.0140
     40 C           1.5556   -0.7436   20.5588 C.3     1  UNL1        0.0770
     41 C           4.0215   -0.1572   22.1638 C.1     1  UNL1       -0.0141
     42 C           2.7886   -0.4504   21.3613 C.1     1  UNL1       -0.0779
@<TRIPOS>BOND
     1    41    42    3
     2    42    40    1
     3    40    39    1
     4    39    38    1
     5    38    37    1
     6    37    36    1
     7    36    35    1
     8    35    34    1
     9    34    33    1
    10    33    32    1
    11    32    31    1
    12    31    30    1
    13    30    29    1
    14    29    28    1
    15    28    27    1
    16    27    26    1
    17    26    25    1
    18    25    24    1
    19    24    23    1
    20    23     1    1
    21     1     2    1
    22     2     3    2
    23     2     4    1
    24     2     6    1
    25     6     7    1
    26     7     8    1
    27     8     9    1
    28     8    10    1
    29    10    11    1
    30    11    12   ar
    31    12    13   ar
    32    13    14   ar
    33    14    15   ar
    34    15    16    1
    35    15    17   ar
    36    17    18   ar
    37    18    19   ar
    38    19    20   ar
    39    20    11   ar
    40    20    14   ar
    41     4     5    1
    42    16    21    1
    43    16    22    1
@<TRIPOS>MOLECULE
*****
 42 43 0 0 0
SMALL
GASTEIGER

@<TRIPOS>ATOM
      1 O           7.8178   -4.6848   29.5826 O.3     1  UNL1       -0.2925
      2 P           7.2549   -5.1308   30.8994 P.3     1  UNL1        0.3697
      3 O           7.9231   -6.4635   30.7337 O.2     1  UNL1       -0.2553
      4 O           6.6920   -5.5769   32.2163 O.3     1  UNL1       -0.3218
      5 H           6.9780   -6.4855   32.3991 H       1  UNL1        0.2198
      6 C           6.5867   -3.7982   31.0651 C.3     1  UNL1        0.2579
      7 O           6.5870   -3.1202   32.4031 O.3     1  UNL1       -0.3426
      8 C           5.4827   -2.1711   32.7633 C.3     1  UNL1        0.1387
      9 C           4.2880   -2.6647   33.5243 C.3     1  UNL1        0.0342
     10 C           5.5731   -0.7284   32.3625 C.3     1  UNL1        0.1384
     11 N           4.3234    0.0499   32.0753 N.ar    1  UNL1       -0.2918
     12 C           3.5805    0.0755   30.7724 C.ar    1  UNL1        0.1798
     13 N           2.3952    0.9806   30.9324 N.ar    1  UNL1       -0.2195
     14 C           2.4054    1.5145   32.3341 C.ar    1  UNL1        0.1481
     15 C           1.4836    2.4501   33.0586 C.ar    1  UNL1        0.1480
     16 N           0.2919    3.0254   32.3523 N.pl3   1  UNL1       -0.3413
     17 N           1.7536    2.8105   34.4894 N.ar    1  UNL1       -0.2078
     18 C           2.9453    2.2353   35.1957 C.ar    1  UNL1        0.2015
     19 N           3.8671    1.2997   34.4713 N.ar    1  UNL1       -0.2048
     20 C           3.5972    0.9393   33.0405 C.ar    1  UNL1        0.1674
     21 H           0.1148    2.7888   31.4132 H       1  UNL1        0.1438
     22 H          -0.3131    3.6394   32.8278 H       1  UNL1        0.1438
     23 C           7.8607   -5.6368   28.4241 C.3     1  UNL1        0.1540
     24 C           6.7630   -5.6241   27.4019 C.3     1  UNL1        0.0646
     25 C           7.0974   -5.6992   25.9415 C.3     1  UNL1        0.1448
     26 O           7.0534   -4.4601   25.0974 O.3     1  UNL1       -0.3537
     27 C           7.4297   -4.5269   23.6469 C.3     1  UNL1        0.1422
     28 C           6.5905   -3.8243   22.6212 C.3     1  UNL1        0.0321
     29 C           5.0957   -3.8253   22.7465 C.3     1  UNL1        0.0026
     30 C           4.3641   -2.5423   23.0081 C.3     1  UNL1        0.0001
     31 C           3.5509   -1.9071   21.9195 C.3     1  UNL1        0.0000
     32 C           3.3281   -0.4238   21.9179 C.3     1  UNL1        0.0000
     33 C           2.0250    0.1384   21.4321 C.3     1  UNL1        0.0000
     34 C           1.3306   -0.4850   20.2577 C.3     1  UNL1        0.0000
     35 C           1.4160    0.1605   18.9065 C.3     1  UNL1        0.0000
     36 C           2.6856    0.8332   18.4755 C.3     1  UNL1        0.0000
     37 C           3.5684    0.1835   17.4516 C.3     1  UNL1        0.0000
     38 C           3.9144   -1.2709   17.5741 C.3     1  UNL1        0.0010
     39 C           5.0219   -1.7040   18.4882 C.3     1  UNL1        0.0140
     40 C           5.4137   -3.1502   18.5591 C.3     1  UNL1        0.0770
     41 C           3.4817   -5.1767   19.6365 C.1     1  UNL1       -0.0141
     42 C           4.4477   -4.1635   19.0978 C.1     1  UNL1       -0.0779
@<TRIPOS>BOND
     1    41    42    3
     2    42    40    1
     3    40    39    1
     4    39    38    1
     5    38    37    1
     6    37    36    1
     7    36    35    1
     8    35    34    1
     9    34    33    1
    10    33    32    1
    11    32    31    1
    12    31    30    1
    13    30    29    1
    14    29    28    1
    15    28    27    1
    16    27    26    1
    17    26    25    1
    18    25    24    1
    19    24    23    1
    20    23     1    1
    21     1     2    1
    22     2     3    2
    23     2     4    1
    24     2     6    1
    25     6     7    1
    26     7     8    1
    27     8     9    1
    28     8    10    1
    29    10    11    1
    30    11    12   ar
    31    12    13   ar
    32    13    14   ar
    33    14    15   ar
    34    15    16    1
    35    15    17   ar
    36    17    18   ar
    37    18    19   ar
    38    19    20   ar
    39    20    11   ar
    40    20    14   ar
    41     4     5    1
    42    16    21    1
    43    16    22    1
@<TRIPOS>MOLECULE
*****
 42 43 0 0 0
SMALL
GASTEIGER

@<TRIPOS>ATOM
      1 O           7.9930   -4.2727   30.1734 O.3     1  UNL1       -0.2925
      2 P           7.2153   -4.8434   31.3221 P.3     1  UNL1        0.3697
      3 O           7.1345   -6.1623   30.6121 O.2     1  UNL1       -0.2553
      4 O           6.4377   -5.4141   32.4707 O.3     1  UNL1       -0.3218
      5 H           6.2208   -6.3412   32.2855 H       1  UNL1        0.2198
      6 C           7.2961   -3.5245   32.0320 C.3     1  UNL1        0.2579
      7 O           6.0763   -2.9509   32.6900 O.3     1  UNL1       -0.3426
      8 C           5.9028   -1.4639   32.7818 C.3     1  UNL1        0.1387
      9 C           6.8035   -0.5540   32.0002 C.3     1  UNL1        0.0342
     10 C           4.8285   -0.8866   33.6553 C.3     1  UNL1        0.1384
     11 N           3.7547   -0.0280   33.0553 N.ar    1  UNL1       -0.2918
     12 C           3.0797   -0.2545   31.7351 C.ar    1  UNL1        0.1798
     13 N           2.0753    0.8414   31.5341 N.ar    1  UNL1       -0.2195
     14 C           2.1297    1.7451   32.7301 C.ar    1  UNL1        0.1481
     15 C           1.3681    2.9878   33.0845 C.ar    1  UNL1        0.1480
     16 N           0.3301    3.5251   32.1443 N.pl3   1  UNL1       -0.3413
     17 N           1.6445    3.6932   34.3791 N.ar    1  UNL1       -0.2078
     18 C           2.6825    3.1559   35.3192 C.ar    1  UNL1        0.2015
     19 N           3.4441    1.9132   34.9648 N.ar    1  UNL1       -0.2048
     20 C           3.1676    1.2078   33.6703 C.ar    1  UNL1        0.1674
     21 H           0.1487    3.0621   31.2947 H       1  UNL1        0.1438
     22 H          -0.1697    4.3408   32.3770 H       1  UNL1        0.1438
     23 C           7.3912   -3.1939   29.3225 C.3     1  UNL1        0.1540
     24 C           6.2503   -3.5131   28.4025 C.3     1  UNL1        0.0646
     25 C           5.9396   -2.6048   27.2499 C.3     1  UNL1        0.1448
     26 O           6.3082   -3.0117   25.8540 O.3     1  UNL1       -0.3537
     27 C           5.6021   -2.3965   24.6823 C.3     1  UNL1        0.1422
     28 C           5.3184   -3.2197   23.4608 C.3     1  UNL1        0.0321
     29 C           6.3029   -3.2469   22.3294 C.3     1  UNL1        0.0026
     30 C           5.8952   -3.7939   20.9935 C.3     1  UNL1        0.0001
     31 C           4.4484   -4.0625   20.7028 C.3     1  UNL1        0.0000
     32 C           3.9053   -3.8331   19.3236 C.3     1  UNL1        0.0000
     33 C           4.7603   -3.1768   18.2804 C.3     1  UNL1        0.0000
     34 C           4.8582   -1.6811   18.2232 C.3     1  UNL1        0.0000
     35 C           3.9408   -0.9031   17.3271 C.3     1  UNL1        0.0000
     36 C           3.3746    0.4070   17.7887 C.3     1  UNL1        0.0000
     37 C           1.9641    0.4779   18.2943 C.3     1  UNL1        0.0000
     38 C           1.6984    0.5438   19.7691 C.3     1  UNL1        0.0010
     39 C           1.6414   -0.7181   20.5780 C.3     1  UNL1        0.0140
     40 C           2.7505   -1.0480   21.5324 C.3     1  UNL1        0.0770
     41 C           5.3762    0.3898   21.3355 C.1     1  UNL1       -0.0141
     42 C           4.0634   -0.3291   21.4339 C.1     1  UNL1       -0.0779
@<TRIPOS>BOND
     1    41    42    3
     2    42    40    1
     3    40    39    1
     4    39    38    1
     5    38    37    1
     6    37    36    1
     7    36    35    1
     8    35    34    1
     9    34    33    1
    10    33    32    1
    11    32    31    1
    12    31    30    1
    13    30    29    1
    14    29    28    1
    15    28    27    1
    16    27    26    1
    17    26    25    1
    18    25    24    1
    19    24    23    1
    20    23     1    1
    21     1     2    1
    22     2     3    2
    23     2     4    1
    24     2     6    1
    25     6     7    1
    26     7     8    1
    27     8     9    1
    28     8    10    1
    29    10    11    1
    30    11    12   ar
    31    12    13   ar
    32    13    14   ar
    33    14    15   ar
    34    15    16    1
    35    15    17   ar
    36    17    18   ar
    37    18    19   ar
    38    19    20   ar
    39    20    11   ar
    40    20    14   ar
    41     4     5    1
    42    16    21    1
    43    16    22    1
@<TRIPOS>MOLECULE
*****
 42 43 0 0 0
SMALL
GASTEIGER

@<TRIPOS>ATOM
      1 O           7.5282   -4.0621   30.0649 O.3     1  UNL1       -0.2925
      2 P           7.0159   -4.7726   31.2825 P.3     1  UNL1        0.3697
      3 O           6.8491   -6.0285   30.4795 O.2     1  UNL1       -0.2553
      4 O           6.5037   -5.4831   32.5002 O.3     1  UNL1       -0.3218
      5 H           6.2915   -6.4019   32.2731 H       1  UNL1        0.2198
      6 C           7.1828   -3.5167   32.0855 C.3     1  UNL1        0.2579
      7 O           6.6734   -2.2112   31.5506 O.3     1  UNL1       -0.3426
      8 C           5.4152   -1.6127   32.1062 C.3     1  UNL1        0.1387
      9 C           4.7093   -2.2786   33.2500 C.3     1  UNL1        0.0342
     10 C           4.8627   -0.3482   31.5178 C.3     1  UNL1        0.1384
     11 N           3.8285   -0.4148   30.4334 N.ar    1  UNL1       -0.2918
     12 C           3.9451   -1.1821   29.1498 C.ar    1  UNL1        0.1798
     13 N           2.6847   -0.9673   28.3654 N.ar    1  UNL1       -0.2195
     14 C           1.7892   -0.0673   29.1641 C.ar    1  UNL1        0.1481
     15 C           0.4214    0.4854   28.8928 C.ar    1  UNL1        0.1480
     16 N          -0.2854    0.1439   27.6146 N.pl3   1  UNL1       -0.3413
     17 N          -0.2394    1.3796   29.8996 N.ar    1  UNL1       -0.2078
     18 C           0.4675    1.7210   31.1777 C.ar    1  UNL1        0.2015
     19 N           1.8352    1.1683   31.4491 N.ar    1  UNL1       -0.2048
     20 C           2.4961    0.2742   30.4423 C.ar    1  UNL1        0.1674
     21 H           0.1483   -0.4430   26.9538 H       1  UNL1        0.1438
     22 H          -1.1832    0.5067   27.4365 H       1  UNL1        0.1438
     23 C           7.0750   -4.4901   28.7005 C.3     1  UNL1        0.1540
     24 C           8.0282   -4.4394   27.5434 C.3     1  UNL1        0.0646
     25 C           7.7251   -5.2025   26.2881 C.3     1  UNL1        0.1448
     26 O           7.7771   -4.5100   24.9585 O.3     1  UNL1       -0.3537
     27 C           6.5152   -3.9984   24.3294 C.3     1  UNL1        0.1422
     28 C           6.3986   -3.9235   22.8358 C.3     1  UNL1        0.0321
     29 C           5.6025   -2.8226   22.1999 C.3     1  UNL1        0.0026
     30 C           4.2738   -3.1239   21.5724 C.3     1  UNL1        0.0001
     31 C           4.1492   -4.2422   20.5805 C.3     1  UNL1        0.0000
     32 C           3.8727   -3.9379   19.1380 C.3     1  UNL1        0.0000
     33 C           4.9706   -3.4196   18.2571 C.3     1  UNL1        0.0000
     34 C           5.3001   -1.9562   18.2518 C.3     1  UNL1        0.0000
     35 C           4.5148   -1.0137   17.3889 C.3     1  UNL1        0.0000
     36 C           3.6599    0.0452   18.0198 C.3     1  UNL1        0.0000
     37 C           3.1991   -0.1098   19.4388 C.3     1  UNL1        0.0000
     38 C           1.9155   -0.8265   19.7365 C.3     1  UNL1        0.0010
     39 C           0.8370   -0.1391   20.5202 C.3     1  UNL1        0.0140
     40 C           1.1939    0.6989   21.7120 C.3     1  UNL1        0.0770
     41 C           2.9976   -0.4084   23.8382 C.1     1  UNL1       -0.0141
     42 C           2.0958    0.1452   22.7751 C.1     1  UNL1       -0.0779
@<TRIPOS>BOND
     1    41    42    3
     2    42    40    1
     3    40    39    1
     4    39    38    1
     5    38    37    1
     6    37    36    1
     7    36    35    1
     8    35    34    1
     9    34    33    1
    10    33    32    1
    11    32    31    1
    12    31    30    1
    13    30    29    1
    14    29    28    1
    15    28    27    1
    16    27    26    1
    17    26    25    1
    18    25    24    1
    19    24    23    1
    20    23     1    1
    21     1     2    1
    22     2     3    2
    23     2     4    1
    24     2     6    1
    25     6     7    1
    26     7     8    1
    27     8     9    1
    28     8    10    1
    29    10    11    1
    30    11    12   ar
    31    12    13   ar
    32    13    14   ar
    33    14    15   ar
    34    15    16    1
    35    15    17   ar
    36    17    18   ar
    37    18    19   ar
    38    19    20   ar
    39    20    11   ar
    40    20    14   ar
    41     4     5    1
    42    16    21    1
    43    16    22    1
