@<TRIPOS>MOLECULE
*****
 25 27 0 0 0
SMALL
GASTEIGER

@<TRIPOS>ATOM
      1 C         -10.6055  -19.5764   21.5228 C.ar    1  UNL1        0.1450
      2 C          -9.7947  -19.8316   22.7587 C.ar    1  UNL1        0.0561
      3 C          -8.2978  -19.8806   22.6767 C.ar    1  UNL1        0.0860
      4 N          -7.6117  -19.6745   21.3588 N.ar    1  UNL1       -0.2729
      5 C          -8.4225  -19.4193   20.1229 C.ar    1  UNL1        0.2679
      6 O          -7.7364  -19.2132   18.8051 O.2     1  UNL1       -0.2665
      7 C          -9.9194  -19.3703   20.2050 C.ar    1  UNL1        0.0980
      8 C          -6.1147  -19.7235   21.2768 C.ar    1  UNL1        0.0670
      9 C          -5.2847  -18.9008   22.2171 C.ar    1  UNL1        0.0199
     10 C          -3.7877  -18.9499   22.1352 C.ar    1  UNL1        0.0311
     11 C          -3.1207  -19.8217   21.1128 C.ar    1  UNL1        0.1402
     12 F          -1.6238  -19.8707   21.0308 F       1  UNL1       -0.2042
     13 C          -3.9508  -20.6444   20.1725 C.ar    1  UNL1        0.0311
     14 C          -5.4477  -20.5953   20.2545 C.ar    1  UNL1        0.0199
     15 O         -12.1025  -19.5274   21.6048 O.3     1  UNL1       -0.4714
     16 C         -12.8108  -18.2052   21.6032 C.3     1  UNL1        0.2485
     17 C         -13.6705  -17.7737   24.0167 C.3     1  UNL1        0.0513
     18 C         -12.8298  -17.3629   22.8443 C.3     1  UNL1        0.2094
     19 O         -12.0080  -16.1100   22.9131 O.3     1  UNL1       -0.4753
     20 C         -10.5178  -16.1975   23.0598 C.ar    1  UNL1        0.1386
     21 C          -9.9103  -16.4451   24.4088 C.ar    1  UNL1        0.0369
     22 C          -8.4201  -16.5327   24.5556 C.ar    1  UNL1        0.0031
     23 C          -7.5373  -16.3727   23.3534 C.ar    1  UNL1        0.0002
     24 C          -8.1449  -16.1250   22.0045 C.ar    1  UNL1        0.0031
     25 C          -9.6351  -16.0375   21.8577 C.ar    1  UNL1        0.0369
@<TRIPOS>BOND
     1    18    17    1
     2    18    16    1
     3    16    15    1
     4    15     1    1
     5     1     2   ar
     6     2     3   ar
     7     3     4   ar
     8     4     8    1
     9     8     9   ar
    10     9    10   ar
    11    10    11   ar
    12    11    12    1
    13    11    13   ar
    14    13    14   ar
    15     4     5   ar
    16     5     6    2
    17     5     7   ar
    18    18    19    1
    19    19    20    1
    20    20    21   ar
    21    21    22   ar
    22    22    23   ar
    23    23    24   ar
    24    24    25   ar
    25     7     1   ar
    26    25    20   ar
    27    14     8   ar
@<TRIPOS>MOLECULE
*****
 25 27 0 0 0
SMALL
GASTEIGER

@<TRIPOS>ATOM
      1 C          -6.4790  -16.0126   23.3960 C.ar    1  UNL1        0.1450
      2 C          -7.2968  -15.6665   24.6048 C.ar    1  UNL1        0.0561
      3 C          -8.7337  -16.0894   24.6844 C.ar    1  UNL1        0.0860
      4 N          -9.3528  -16.8583   23.5550 N.ar    1  UNL1       -0.2729
      5 C          -8.5350  -17.2044   22.3462 C.ar    1  UNL1        0.2679
      6 O          -9.1542  -17.9733   21.2168 O.2     1  UNL1       -0.2665
      7 C          -7.0981  -16.7815   22.2666 C.ar    1  UNL1        0.0980
      8 C         -10.7898  -17.2812   23.6346 C.ar    1  UNL1        0.0670
      9 C         -11.8234  -16.5870   22.7981 C.ar    1  UNL1        0.0199
     10 C         -13.2604  -17.0098   22.8777 C.ar    1  UNL1        0.0311
     11 C         -13.6638  -18.1270   23.7938 C.ar    1  UNL1        0.1402
     12 F         -15.1007  -18.5498   23.8734 F       1  UNL1       -0.2042
     13 C         -12.6302  -18.8212   24.6304 C.ar    1  UNL1        0.0311
     14 C         -11.1932  -18.3983   24.5508 C.ar    1  UNL1        0.0199
     15 O          -5.0420  -15.5897   23.3164 O.3     1  UNL1       -0.4714
     16 C          -3.9575  -16.5340   23.7432 C.3     1  UNL1        0.2485
     17 C          -2.2303  -16.1467   21.8414 C.3     1  UNL1        0.0513
     18 C          -2.9976  -17.0815   22.7288 C.3     1  UNL1        0.2094
     19 O          -2.8051  -18.5636   22.6018 O.3     1  UNL1       -0.4753
     20 C          -3.7851  -19.3825   21.8151 C.ar    1  UNL1        0.1386
     21 C          -3.3624  -20.0251   20.5274 C.ar    1  UNL1        0.0369
     22 C          -4.3424  -20.8441   19.7407 C.ar    1  UNL1        0.0031
     23 C          -5.7452  -21.0204   20.2418 C.ar    1  UNL1        0.0002
     24 C          -6.1680  -20.3778   21.5296 C.ar    1  UNL1        0.0031
     25 C          -5.1879  -19.5589   22.3162 C.ar    1  UNL1        0.0369
@<TRIPOS>BOND
     1    18    17    1
     2    18    16    1
     3    16    15    1
     4    15     1    1
     5     1     2   ar
     6     2     3   ar
     7     3     4   ar
     8     4     8    1
     9     8     9   ar
    10     9    10   ar
    11    10    11   ar
    12    11    12    1
    13    11    13   ar
    14    13    14   ar
    15     4     5   ar
    16     5     6    2
    17     5     7   ar
    18    18    19    1
    19    19    20    1
    20    20    21   ar
    21    21    22   ar
    22    22    23   ar
    23    23    24   ar
    24    24    25   ar
    25     7     1   ar
    26    25    20   ar
    27    14     8   ar
@<TRIPOS>MOLECULE
*****
 25 27 0 0 0
SMALL
GASTEIGER

@<TRIPOS>ATOM
      1 C          -8.8877  -19.3211   20.6200 C.ar    1  UNL1        0.1450
      2 C          -8.1754  -19.9090   19.4381 C.ar    1  UNL1        0.0561
      3 C          -6.6833  -19.7986   19.3307 C.ar    1  UNL1        0.0860
      4 N          -5.9037  -19.1002   20.4051 N.ar    1  UNL1       -0.2729
      5 C          -6.6160  -18.5123   21.5870 C.ar    1  UNL1        0.2679
      6 O          -5.8364  -17.8139   22.6614 O.2     1  UNL1       -0.2665
      7 C          -8.1081  -18.6227   21.6944 C.ar    1  UNL1        0.0980
      8 C          -4.4115  -18.9898   20.2976 C.ar    1  UNL1        0.0670
      9 C          -3.5347  -19.6653   21.3099 C.ar    1  UNL1        0.0199
     10 C          -2.0425  -19.5549   21.2024 C.ar    1  UNL1        0.0311
     11 C          -1.4274  -18.7689   20.0827 C.ar    1  UNL1        0.1402
     12 F           0.0646  -18.6584   19.9752 F       1  UNL1       -0.2042
     13 C          -2.3044  -18.0933   19.0704 C.ar    1  UNL1        0.0311
     14 C          -3.7964  -18.2038   19.1779 C.ar    1  UNL1        0.0199
     15 O         -10.3798  -19.4315   20.7274 O.3     1  UNL1       -0.4714
     16 C         -11.2591  -18.5165   19.9278 C.3     1  UNL1        0.2485
     17 C         -11.5751  -15.9496   19.6797 C.3     1  UNL1        0.0513
     18 C         -11.6896  -17.1991   20.5016 C.3     1  UNL1        0.2094
     19 O         -12.2345  -17.1312   21.8975 O.3     1  UNL1       -0.4753
     20 C         -11.3486  -17.4513   23.0648 C.ar    1  UNL1        0.1386
     21 C         -10.2692  -16.4927   23.4722 C.ar    1  UNL1        0.0369
     22 C          -9.3832  -16.8128   24.6396 C.ar    1  UNL1        0.0031
     23 C          -9.5767  -18.0915   25.3996 C.ar    1  UNL1        0.0002
     24 C         -10.6562  -19.0501   24.9922 C.ar    1  UNL1        0.0031
     25 C         -11.5421  -18.7300   23.8248 C.ar    1  UNL1        0.0369
@<TRIPOS>BOND
     1    18    17    1
     2    18    16    1
     3    16    15    1
     4    15     1    1
     5     1     2   ar
     6     2     3   ar
     7     3     4   ar
     8     4     8    1
     9     8     9   ar
    10     9    10   ar
    11    10    11   ar
    12    11    12    1
    13    11    13   ar
    14    13    14   ar
    15     4     5   ar
    16     5     6    2
    17     5     7   ar
    18    18    19    1
    19    19    20    1
    20    20    21   ar
    21    21    22   ar
    22    22    23   ar
    23    23    24   ar
    24    24    25   ar
    25     7     1   ar
    26    25    20   ar
    27    14     8   ar
@<TRIPOS>MOLECULE
*****
 25 27 0 0 0
SMALL
GASTEIGER

@<TRIPOS>ATOM
      1 C          -8.4996  -19.3678   21.1792 C.ar    1  UNL1        0.1450
      2 C          -7.8658  -19.9686   19.9597 C.ar    1  UNL1        0.0561
      3 C          -6.3918  -19.8154   19.7278 C.ar    1  UNL1        0.0860
      4 N          -5.5516  -19.0614   20.7156 N.ar    1  UNL1       -0.2729
      5 C          -6.1854  -18.4607   21.9351 C.ar    1  UNL1        0.2679
      6 O          -5.3452  -17.7067   22.9228 O.2     1  UNL1       -0.2665
      7 C          -7.6594  -18.6139   22.1669 C.ar    1  UNL1        0.0980
      8 C          -4.0775  -18.9083   20.4837 C.ar    1  UNL1        0.0670
      9 C          -3.5792  -18.2712   19.2204 C.ar    1  UNL1        0.0199
     10 C          -2.1052  -18.1180   18.9886 C.ar    1  UNL1        0.0311
     11 C          -1.1294  -18.6019   20.0200 C.ar    1  UNL1        0.1402
     12 F           0.3446  -18.4488   19.7881 F       1  UNL1       -0.2042
     13 C          -1.6278  -19.2390   21.2833 C.ar    1  UNL1        0.0311
     14 C          -3.1018  -19.3922   21.5151 C.ar    1  UNL1        0.0199
     15 O          -9.9737  -19.5210   21.4111 O.3     1  UNL1       -0.4714
     16 C         -10.7977  -18.3326   21.8094 C.3     1  UNL1        0.2485
     17 C         -12.7262  -17.7479   23.4493 C.3     1  UNL1        0.0513
     18 C         -11.3225  -18.2193   23.2101 C.3     1  UNL1        0.2094
     19 O         -10.4434  -18.5773   24.3716 O.3     1  UNL1       -0.4753
     20 C          -9.6486  -17.5121   25.0670 C.ar    1  UNL1        0.1386
     21 C          -9.2411  -17.6948   26.4989 C.ar    1  UNL1        0.0369
     22 C          -8.4463  -16.6296   27.1944 C.ar    1  UNL1        0.0031
     23 C          -8.0590  -15.3816   26.4578 C.ar    1  UNL1        0.0002
     24 C          -8.4665  -15.1989   25.0258 C.ar    1  UNL1        0.0031
     25 C          -9.2612  -16.2641   24.3304 C.ar    1  UNL1        0.0369
@<TRIPOS>BOND
     1    18    17    1
     2    18    16    1
     3    16    15    1
     4    15     1    1
     5     1     2   ar
     6     2     3   ar
     7     3     4   ar
     8     4     8    1
     9     8     9   ar
    10     9    10   ar
    11    10    11   ar
    12    11    12    1
    13    11    13   ar
    14    13    14   ar
    15     4     5   ar
    16     5     6    2
    17     5     7   ar
    18    18    19    1
    19    19    20    1
    20    20    21   ar
    21    21    22   ar
    22    22    23   ar
    23    23    24   ar
    24    24    25   ar
    25     7     1   ar
    26    25    20   ar
    27    14     8   ar
@<TRIPOS>MOLECULE
*****
 25 27 0 0 0
SMALL
GASTEIGER

@<TRIPOS>ATOM
      1 C          -8.2659  -19.1458   21.5452 C.ar    1  UNL1        0.1450
      2 C          -7.7579  -19.6372   20.2222 C.ar    1  UNL1        0.0561
      3 C          -6.2987  -19.5289   19.8921 C.ar    1  UNL1        0.0860
      4 N          -5.3476  -18.9294   20.8850 N.ar    1  UNL1       -0.2729
      5 C          -5.8556  -18.4381   22.2080 C.ar    1  UNL1        0.2679
      6 O          -4.9044  -17.8386   23.2009 O.2     1  UNL1       -0.2665
      7 C          -7.3148  -18.5463   22.5381 C.ar    1  UNL1        0.0980
      8 C          -3.8883  -18.8212   20.5548 C.ar    1  UNL1        0.0670
      9 C          -3.4539  -18.1417   19.2901 C.ar    1  UNL1        0.0199
     10 C          -1.9946  -18.0335   18.9599 C.ar    1  UNL1        0.0311
     11 C          -0.9699  -18.6048   19.8944 C.ar    1  UNL1        0.1402
     12 F           0.4893  -18.4967   19.5643 F       1  UNL1       -0.2042
     13 C          -1.4044  -19.2844   21.1592 C.ar    1  UNL1        0.0311
     14 C          -2.8635  -19.3926   21.4893 C.ar    1  UNL1        0.0199
     15 O          -9.7252  -19.2540   21.8754 O.3     1  UNL1       -0.4714
     16 C         -10.4393  -18.0956   22.5063 C.3     1  UNL1        0.2485
     17 C         -10.1851  -18.7719   25.0020 C.3     1  UNL1        0.0513
     18 C         -10.1515  -17.7227   23.9305 C.3     1  UNL1        0.2094
     19 O          -9.8303  -16.3006   24.2832 O.3     1  UNL1       -0.4753
     20 C          -8.5652  -15.9785   25.0220 C.ar    1  UNL1        0.1386
     21 C          -7.3701  -15.4656   24.2747 C.ar    1  UNL1        0.0369
     22 C          -6.1050  -15.1435   25.0135 C.ar    1  UNL1        0.0031
     23 C          -6.0351  -15.3343   26.4997 C.ar    1  UNL1        0.0002
     24 C          -7.2303  -15.8473   27.2470 C.ar    1  UNL1        0.0031
     25 C          -8.4953  -16.1693   26.5082 C.ar    1  UNL1        0.0369
@<TRIPOS>BOND
     1    18    17    1
     2    18    16    1
     3    16    15    1
     4    15     1    1
     5     1     2   ar
     6     2     3   ar
     7     3     4   ar
     8     4     8    1
     9     8     9   ar
    10     9    10   ar
    11    10    11   ar
    12    11    12    1
    13    11    13   ar
    14    13    14   ar
    15     4     5   ar
    16     5     6    2
    17     5     7   ar
    18    18    19    1
    19    19    20    1
    20    20    21   ar
    21    21    22   ar
    22    22    23   ar
    23    23    24   ar
    24    24    25   ar
    25     7     1   ar
    26    25    20   ar
    27    14     8   ar
@<TRIPOS>MOLECULE
*****
 25 27 0 0 0
SMALL
GASTEIGER

@<TRIPOS>ATOM
      1 C          -7.8481  -19.6987   22.1594 C.ar    1  UNL1        0.1450
      2 C          -7.2062  -20.5470   21.1019 C.ar    1  UNL1        0.0561
      3 C          -5.8117  -20.2431   20.6408 C.ar    1  UNL1        0.0860
      4 N          -5.0589  -19.0908   21.2371 N.ar    1  UNL1       -0.2729
      5 C          -5.7008  -18.2425   22.2946 C.ar    1  UNL1        0.2679
      6 O          -4.9480  -17.0902   22.8909 O.2     1  UNL1       -0.2665
      7 C          -7.0953  -18.5464   22.7557 C.ar    1  UNL1        0.0980
      8 C          -3.6643  -18.7868   20.7759 C.ar    1  UNL1        0.0670
      9 C          -3.4222  -18.3355   19.3661 C.ar    1  UNL1        0.0199
     10 C          -2.0275  -18.0315   18.9049 C.ar    1  UNL1        0.0311
     11 C          -0.8750  -18.1790   19.8535 C.ar    1  UNL1        0.1402
     12 F           0.5196  -17.8751   19.3924 F       1  UNL1       -0.2042
     13 C          -1.1172  -18.6304   21.2634 C.ar    1  UNL1        0.0311
     14 C          -2.5118  -18.9343   21.7246 C.ar    1  UNL1        0.0199
     15 O          -9.2427  -20.0026   22.6206 O.3     1  UNL1       -0.4714
     16 C          -9.5692  -19.9848   24.0845 C.3     1  UNL1        0.2485
     17 C          -9.4940  -18.0866   25.8569 C.3     1  UNL1        0.0513
     18 C         -10.1756  -18.7600   24.7028 C.3     1  UNL1        0.2094
     19 O         -11.4636  -18.2087   24.1670 O.3     1  UNL1       -0.4753
     20 C         -11.4771  -17.4663   22.8637 C.ar    1  UNL1        0.1386
     21 C         -12.6591  -17.5813   21.9474 C.ar    1  UNL1        0.0369
     22 C         -12.6727  -16.8389   20.6440 C.ar    1  UNL1        0.0031
     23 C         -11.5042  -15.9816   20.2570 C.ar    1  UNL1        0.0002
     24 C         -10.3222  -15.8667   21.1734 C.ar    1  UNL1        0.0031
     25 C         -10.3087  -16.6091   22.4767 C.ar    1  UNL1        0.0369
@<TRIPOS>BOND
     1    18    17    1
     2    18    16    1
     3    16    15    1
     4    15     1    1
     5     1     2   ar
     6     2     3   ar
     7     3     4   ar
     8     4     8    1
     9     8     9   ar
    10     9    10   ar
    11    10    11   ar
    12    11    12    1
    13    11    13   ar
    14    13    14   ar
    15     4     5   ar
    16     5     6    2
    17     5     7   ar
    18    18    19    1
    19    19    20    1
    20    20    21   ar
    21    21    22   ar
    22    22    23   ar
    23    23    24   ar
    24    24    25   ar
    25     7     1   ar
    26    25    20   ar
    27    14     8   ar
@<TRIPOS>MOLECULE
*****
 25 27 0 0 0
SMALL
GASTEIGER

@<TRIPOS>ATOM
      1 C          -7.9890  -19.2018   22.5185 C.ar    1  UNL1        0.1450
      2 C          -7.1413  -18.0390   22.9418 C.ar    1  UNL1        0.0561
      3 C          -5.7394  -17.9056   22.4253 C.ar    1  UNL1        0.0860
      4 N          -5.1852  -18.9350   21.4855 N.ar    1  UNL1       -0.2729
      5 C          -6.0329  -20.0977   21.0621 C.ar    1  UNL1        0.2679
      6 O          -5.4787  -21.1271   20.1223 O.2     1  UNL1       -0.2665
      7 C          -7.4348  -20.2312   21.5786 C.ar    1  UNL1        0.0980
      8 C          -3.7832  -18.8015   20.9690 C.ar    1  UNL1        0.0670
      9 C          -3.5440  -18.4693   19.5260 C.ar    1  UNL1        0.0199
     10 C          -2.1420  -18.3359   19.0095 C.ar    1  UNL1        0.0311
     11 C          -0.9793  -18.5346   19.9361 C.ar    1  UNL1        0.1402
     12 F           0.4227  -18.4011   19.4197 F       1  UNL1       -0.2042
     13 C          -1.2185  -18.8667   21.3793 C.ar    1  UNL1        0.0311
     14 C          -2.6205  -19.0002   21.8957 C.ar    1  UNL1        0.0199
     15 O          -9.3910  -19.3353   23.0349 O.3     1  UNL1       -0.4714
     16 C          -9.9419  -18.3112   23.9824 C.3     1  UNL1        0.2485
     17 C         -10.6376  -16.6369   22.1215 C.3     1  UNL1        0.0513
     18 C         -10.1607  -16.9014   23.5188 C.3     1  UNL1        0.2094
     19 O          -9.9025  -15.7563   24.4527 O.3     1  UNL1       -0.4753
     20 C          -8.5667  -15.6203   25.1214 C.ar    1  UNL1        0.1386
     21 C          -8.4183  -15.9566   26.5756 C.ar    1  UNL1        0.0369
     22 C          -7.0825  -15.8207   27.2443 C.ar    1  UNL1        0.0031
     23 C          -5.8951  -15.3484   26.4588 C.ar    1  UNL1        0.0002
     24 C          -6.0436  -15.0121   25.0045 C.ar    1  UNL1        0.0031
     25 C          -7.3793  -15.1480   24.3358 C.ar    1  UNL1        0.0369
@<TRIPOS>BOND
     1    18    17    1
     2    18    16    1
     3    16    15    1
     4    15     1    1
     5     1     2   ar
     6     2     3   ar
     7     3     4   ar
     8     4     8    1
     9     8     9   ar
    10     9    10   ar
    11    10    11   ar
    12    11    12    1
    13    11    13   ar
    14    13    14   ar
    15     4     5   ar
    16     5     6    2
    17     5     7   ar
    18    18    19    1
    19    19    20    1
    20    20    21   ar
    21    21    22   ar
    22    22    23   ar
    23    23    24   ar
    24    24    25   ar
    25     7     1   ar
    26    25    20   ar
    27    14     8   ar
@<TRIPOS>MOLECULE
*****
 25 27 0 0 0
SMALL
GASTEIGER

@<TRIPOS>ATOM
      1 C          -6.1404  -19.3713   20.3826 C.ar    1  UNL1        0.1450
      2 C          -6.2158  -18.7957   21.7657 C.ar    1  UNL1        0.0561
      3 C          -7.5507  -18.5108   22.3877 C.ar    1  UNL1        0.0860
      4 N          -8.8101  -18.8014   21.6266 N.ar    1  UNL1       -0.2729
      5 C          -8.7348  -19.3769   20.2435 C.ar    1  UNL1        0.2679
      6 O          -9.9942  -19.6675   19.4824 O.2     1  UNL1       -0.2665
      7 C          -7.3999  -19.6619   19.6215 C.ar    1  UNL1        0.0980
      8 C         -10.1451  -18.5164   22.2487 C.ar    1  UNL1        0.0670
      9 C         -10.5567  -19.2314   23.5014 C.ar    1  UNL1        0.0199
     10 C         -11.8916  -18.9464   24.1235 C.ar    1  UNL1        0.0311
     11 C         -12.8148  -17.9465   23.4928 C.ar    1  UNL1        0.1402
     12 F         -14.1496  -17.6615   24.1148 F       1  UNL1       -0.2042
     13 C         -12.4031  -17.2315   22.2400 C.ar    1  UNL1        0.0311
     14 C         -11.0683  -17.5165   21.6180 C.ar    1  UNL1        0.0199
     15 O          -4.8055  -19.6562   19.7606 O.3     1  UNL1       -0.4714
     16 C          -3.6041  -19.8766   20.6311 C.3     1  UNL1        0.2485
     17 C          -1.8264  -18.4247   19.4138 C.3     1  UNL1        0.0513
     18 C          -2.5132  -18.8480   20.6783 C.3     1  UNL1        0.2094
     19 O          -2.1093  -18.2428   21.9900 O.3     1  UNL1       -0.4753
     20 C          -3.0609  -17.3487   22.7282 C.ar    1  UNL1        0.1386
     21 C          -3.3150  -15.9547   22.2360 C.ar    1  UNL1        0.0369
     22 C          -4.2666  -15.0604   22.9741 C.ar    1  UNL1        0.0031
     23 C          -4.9641  -15.5602   24.2045 C.ar    1  UNL1        0.0002
     24 C          -4.7099  -16.9542   24.6966 C.ar    1  UNL1        0.0031
     25 C          -3.7584  -17.8484   23.9585 C.ar    1  UNL1        0.0369
@<TRIPOS>BOND
     1    18    17    1
     2    18    16    1
     3    16    15    1
     4    15     1    1
     5     1     2   ar
     6     2     3   ar
     7     3     4   ar
     8     4     8    1
     9     8     9   ar
    10     9    10   ar
    11    10    11   ar
    12    11    12    1
    13    11    13   ar
    14    13    14   ar
    15     4     5   ar
    16     5     6    2
    17     5     7   ar
    18    18    19    1
    19    19    20    1
    20    20    21   ar
    21    21    22   ar
    22    22    23   ar
    23    23    24   ar
    24    24    25   ar
    25     7     1   ar
    26    25    20   ar
    27    14     8   ar
@<TRIPOS>MOLECULE
*****
 25 27 0 0 0
SMALL
GASTEIGER

@<TRIPOS>ATOM
      1 C          -9.3518  -18.6595   21.3033 C.ar    1  UNL1        0.1450
      2 C          -9.3427  -19.3003   22.6594 C.ar    1  UNL1        0.0561
      3 C          -8.8441  -18.5331   23.8480 C.ar    1  UNL1        0.0860
      4 N          -8.3548  -17.1251   23.6804 N.ar    1  UNL1       -0.2729
      5 C          -8.3640  -16.4843   22.3243 C.ar    1  UNL1        0.2679
      6 O          -7.8747  -15.0763   22.1567 O.2     1  UNL1       -0.2665
      7 C          -8.8625  -17.2515   21.1357 C.ar    1  UNL1        0.0980
      8 C          -7.8563  -16.3578   24.8691 C.ar    1  UNL1        0.0670
      9 C          -8.7741  -16.0834   26.0234 C.ar    1  UNL1        0.0199
     10 C          -8.2755  -15.3162   27.2121 C.ar    1  UNL1        0.0311
     11 C          -6.8592  -14.8234   27.2464 C.ar    1  UNL1        0.1402
     12 F          -6.3607  -14.0562   28.4350 F       1  UNL1       -0.2042
     13 C          -5.9414  -15.0978   26.0921 C.ar    1  UNL1        0.0311
     14 C          -6.4400  -15.8650   24.9035 C.ar    1  UNL1        0.0199
     15 O          -9.8504  -19.4268   20.1146 O.3     1  UNL1       -0.4714
     16 C          -8.8797  -19.9428   19.0941 C.3     1  UNL1        0.2485
     17 C          -6.8707  -21.4974   19.6395 C.3     1  UNL1        0.0513
     18 C          -7.4346  -20.1197   19.4556 C.3     1  UNL1        0.2094
     19 O          -6.5536  -18.9188   19.6332 O.3     1  UNL1       -0.4753
     20 C          -5.2725  -19.0360   20.4046 C.ar    1  UNL1        0.1386
     21 C          -3.9727  -19.2136   19.6773 C.ar    1  UNL1        0.0369
     22 C          -2.6916  -19.3308   20.4487 C.ar    1  UNL1        0.0031
     23 C          -2.7103  -19.2704   21.9474 C.ar    1  UNL1        0.0002
     24 C          -4.0102  -19.0927   22.6747 C.ar    1  UNL1        0.0031
     25 C          -5.2912  -18.9755   21.9033 C.ar    1  UNL1        0.0369
@<TRIPOS>BOND
     1    18    17    1
     2    18    16    1
     3    16    15    1
     4    15     1    1
     5     1     2   ar
     6     2     3   ar
     7     3     4   ar
     8     4     8    1
     9     8     9   ar
    10     9    10   ar
    11    10    11   ar
    12    11    12    1
    13    11    13   ar
    14    13    14   ar
    15     4     5   ar
    16     5     6    2
    17     5     7   ar
    18    18    19    1
    19    19    20    1
    20    20    21   ar
    21    21    22   ar
    22    22    23   ar
    23    23    24   ar
    24    24    25   ar
    25     7     1   ar
    26    25    20   ar
    27    14     8   ar
