@<TRIPOS>MOLECULE
*****
 22 26 0 0 0
SMALL
GASTEIGER

@<TRIPOS>ATOM
      1 O          -8.0914  -18.5794   19.9512 O.2     1  UNL1       -0.2699
      2 C          -8.8482  -18.8680   21.2139 C.2     1  UNL1        0.2505
      3 C         -10.2030  -18.2332   21.3202 C.ar    1  UNL1        0.0693
      4 C         -10.5633  -17.4081   20.1205 C.ar    1  UNL1        0.0060
      5 C         -11.8861  -16.7031   20.0649 C.ar    1  UNL1        0.0002
      6 C         -12.8487  -16.8233   21.2090 C.ar    1  UNL1        0.0015
      7 C         -12.4884  -17.6484   22.4087 C.ar    1  UNL1        0.0174
      8 C         -13.2279  -17.9497   23.6785 C.ar    1  UNL1        0.0201
      9 C         -12.3621  -18.8408   24.5189 C.ar    1  UNL1        0.0760
     10 N         -11.0875  -19.0904   23.7685 N.ar    1  UNL1       -0.3242
     11 C         -11.1656  -18.3534   22.4643 C.ar    1  UNL1        0.0643
     12 C          -9.9359  -19.9221   24.2247 C.3     1  UNL1        0.1275
     13 C          -8.6339  -20.2224   23.5431 C.3     1  UNL1        0.1181
     14 N          -8.1498  -19.7532   22.2031 N.am    1  UNL1       -0.2743
     15 C          -5.8168  -20.3083   21.0136 C.3     1  UNL1        0.0917
     16 C          -4.9199  -19.3654   21.3956 C.3     1  UNL1        0.0921
     17 N          -4.3410  -18.8163   21.5990 N.3     1  UNL1       -0.2713
     18 C          -3.9245  -19.9121   20.6631 C.3     1  UNL1        0.0722
     19 C          -4.9165  -20.9549   20.2406 C.3     1  UNL1        0.0191
     20 C          -6.3249  -20.9020   20.7539 C.3     1  UNL1        0.0224
     21 C          -6.7413  -19.8062   21.6898 C.3     1  UNL1        0.0191
     22 C          -5.7494  -18.7633   22.1123 C.3     1  UNL1        0.0722
@<TRIPOS>BOND
     1     1     2    2
     2     2     3    1
     3     3     4   ar
     4     4     5   ar
     5     5     6   ar
     6     6     7   ar
     7     7     8   ar
     8     8     9   ar
     9     9    10   ar
    10    10    11   ar
    11    10    12    1
    12    12    13    1
    13    13    14    1
    14    15    14    1
    15    15    16    1
    16    16    17    1
    17    17    18    1
    18    18    19    1
    19    19    20    1
    20    20    21    1
    21    21    22    1
    22    14     2   am
    23    20    15    1
    24    11     3   ar
    25    22    17    1
    26    11     7   ar
@<TRIPOS>MOLECULE
*****
 22 26 0 0 0
SMALL
GASTEIGER

@<TRIPOS>ATOM
      1 O          -9.4027  -19.1109   21.4172 O.2     1  UNL1       -0.2699
      2 C          -8.2589  -18.4037   22.0818 C.2     1  UNL1        0.2505
      3 C          -6.8904  -18.9105   21.7350 C.ar    1  UNL1        0.0693
      4 C          -6.9138  -20.0559   20.7668 C.ar    1  UNL1        0.0060
      5 C          -5.6279  -20.6819   20.3145 C.ar    1  UNL1        0.0002
      6 C          -4.3187  -20.1624   20.8304 C.ar    1  UNL1        0.0015
      7 C          -4.2953  -19.0170   21.7986 C.ar    1  UNL1        0.0174
      8 C          -3.1663  -18.2963   22.4737 C.ar    1  UNL1        0.0201
      9 C          -3.7544  -17.2248   23.3433 C.ar    1  UNL1        0.0760
     10 N          -5.2469  -17.2833   23.2056 N.ar    1  UNL1       -0.3242
     11 C          -5.5812  -18.3910   22.2509 C.ar    1  UNL1        0.0643
     12 C          -6.2377  -16.4027   23.8902 C.3     1  UNL1        0.1275
     13 C          -7.7355  -16.3926   23.8102 C.3     1  UNL1        0.1181
     14 N          -8.6351  -17.2831   23.0053 N.am    1  UNL1       -0.2743
     15 C         -11.3089  -17.2388   22.8845 C.3     1  UNL1        0.0917
     16 C         -11.7821  -18.1050   23.8148 C.3     1  UNL1        0.0921
     17 N         -12.1162  -18.6186   24.3650 N.3     1  UNL1       -0.2713
     18 C         -13.0717  -17.8494   23.5015 C.3     1  UNL1        0.0722
     19 C         -12.5483  -16.8915   22.4727 C.3     1  UNL1        0.0191
     20 C         -11.0694  -16.7027   22.3073 C.3     1  UNL1        0.0224
     21 C         -10.1140  -17.4719   23.1707 C.3     1  UNL1        0.0191
     22 C         -10.6374  -18.4298   24.1995 C.3     1  UNL1        0.0722
@<TRIPOS>BOND
     1     1     2    2
     2     2     3    1
     3     3     4   ar
     4     4     5   ar
     5     5     6   ar
     6     6     7   ar
     7     7     8   ar
     8     8     9   ar
     9     9    10   ar
    10    10    11   ar
    11    10    12    1
    12    12    13    1
    13    13    14    1
    14    15    14    1
    15    15    16    1
    16    16    17    1
    17    17    18    1
    18    18    19    1
    19    19    20    1
    20    20    21    1
    21    21    22    1
    22    14     2   am
    23    20    15    1
    24    11     3   ar
    25    22    17    1
    26    11     7   ar
@<TRIPOS>MOLECULE
*****
 22 26 0 0 0
SMALL
GASTEIGER

@<TRIPOS>ATOM
      1 O          -5.5500  -17.7473   22.7571 O.2     1  UNL1       -0.2699
      2 C          -6.6708  -18.2515   21.8971 C.2     1  UNL1        0.2505
      3 C          -8.0405  -17.7576   22.2574 C.ar    1  UNL1        0.0693
      4 C          -8.0416  -16.8302   23.4363 C.ar    1  UNL1        0.0060
      5 C          -9.3318  -16.2447   23.9287 C.ar    1  UNL1        0.0002
      6 C         -10.6209  -16.5865   23.2422 C.ar    1  UNL1        0.0015
      7 C         -10.6198  -17.5139   22.0633 C.ar    1  UNL1        0.0174
      8 C         -11.7258  -18.0299   21.1911 C.ar    1  UNL1        0.0201
      9 C         -11.1191  -18.9344   20.1597 C.ar    1  UNL1        0.0760
     10 N          -9.6382  -18.9774   20.3943 N.ar    1  UNL1       -0.3242
     11 C          -9.3297  -18.0995   21.5709 C.ar    1  UNL1        0.0643
     12 C          -8.6356  -19.7515   19.6060 C.3     1  UNL1        0.1275
     13 C          -7.1480  -19.8505   19.7707 C.3     1  UNL1        0.1181
     14 N          -6.2735  -19.1830   20.7904 N.am    1  UNL1       -0.2743
     15 C          -3.6174  -19.3809   21.0577 C.3     1  UNL1        0.0917
     16 C          -3.0462  -18.8356   19.9550 C.3     1  UNL1        0.0921
     17 N          -2.6543  -18.5156   19.3053 N.3     1  UNL1       -0.2713
     18 C          -1.7922  -19.0866   20.3920 C.3     1  UNL1        0.0722
     19 C          -2.4240  -19.6897   21.6115 C.3     1  UNL1        0.0191
     20 C          -3.9178  -19.7218   21.7443 C.3     1  UNL1        0.0224
     21 C          -4.7798  -19.1508   20.6576 C.3     1  UNL1        0.0191
     22 C          -4.1480  -18.5477   19.4381 C.3     1  UNL1        0.0722
@<TRIPOS>BOND
     1     1     2    2
     2     2     3    1
     3     3     4   ar
     4     4     5   ar
     5     5     6   ar
     6     6     7   ar
     7     7     8   ar
     8     8     9   ar
     9     9    10   ar
    10    10    11   ar
    11    10    12    1
    12    12    13    1
    13    13    14    1
    14    15    14    1
    15    15    16    1
    16    16    17    1
    17    17    18    1
    18    18    19    1
    19    19    20    1
    20    20    21    1
    21    21    22    1
    22    14     2   am
    23    20    15    1
    24    11     3   ar
    25    22    17    1
    26    11     7   ar
@<TRIPOS>MOLECULE
*****
 22 26 0 0 0
SMALL
GASTEIGER

@<TRIPOS>ATOM
      1 O          -8.5227  -16.6108   23.3185 O.2     1  UNL1       -0.2699
      2 C          -7.9095  -17.6204   22.3939 C.2     1  UNL1        0.2505
      3 C          -6.4263  -17.8040   22.5221 C.ar    1  UNL1        0.0693
      4 C          -5.8123  -16.9271   23.5728 C.ar    1  UNL1        0.0060
      5 C          -4.3357  -16.9861   23.8299 C.ar    1  UNL1        0.0002
      6 C          -3.4731  -17.9220   23.0362 C.ar    1  UNL1        0.0015
      7 C          -4.0871  -18.7990   21.9855 C.ar    1  UNL1        0.0174
      8 C          -3.4943  -19.8126   21.0522 C.ar    1  UNL1        0.0201
      9 C          -4.6045  -20.3801   20.2183 C.ar    1  UNL1        0.0760
     10 N          -5.8835  -19.7171   20.6362 N.ar    1  UNL1       -0.3242
     11 C          -5.5637  -18.7399   21.7284 C.ar    1  UNL1        0.0643
     12 C          -7.2419  -19.9732   20.0748 C.3     1  UNL1        0.1275
     13 C          -8.5636  -19.3600   20.4313 C.3     1  UNL1        0.1181
     14 N          -8.8607  -18.3129   21.4635 N.am    1  UNL1       -0.2743
     15 C         -11.2346  -17.2381   22.0761 C.3     1  UNL1        0.0917
     16 C         -11.8253  -18.0337   23.0023 C.3     1  UNL1        0.0921
     17 N         -12.2232  -18.4849   23.5645 N.3     1  UNL1       -0.2713
     18 C         -12.9245  -17.2512   23.0786 C.3     1  UNL1        0.0722
     19 C         -12.2712  -16.3714   22.0543 C.3     1  UNL1        0.0191
     20 C         -10.9166  -16.7253   21.5159 C.3     1  UNL1        0.0224
     21 C         -10.2153  -17.9590   22.0019 C.3     1  UNL1        0.0191
     22 C         -10.8686  -18.8388   23.0262 C.3     1  UNL1        0.0722
@<TRIPOS>BOND
     1     1     2    2
     2     2     3    1
     3     3     4   ar
     4     4     5   ar
     5     5     6   ar
     6     6     7   ar
     7     7     8   ar
     8     8     9   ar
     9     9    10   ar
    10    10    11   ar
    11    10    12    1
    12    12    13    1
    13    13    14    1
    14    15    14    1
    15    15    16    1
    16    16    17    1
    17    17    18    1
    18    18    19    1
    19    19    20    1
    20    20    21    1
    21    21    22    1
    22    14     2   am
    23    20    15    1
    24    11     3   ar
    25    22    17    1
    26    11     7   ar
@<TRIPOS>MOLECULE
*****
 22 26 0 0 0
SMALL
GASTEIGER

@<TRIPOS>ATOM
      1 O          -4.3760  -17.0341   22.4788 O.2     1  UNL1       -0.2699
      2 C          -5.7228  -17.6762   22.3241 C.2     1  UNL1        0.2505
      3 C          -6.8036  -17.1451   23.2185 C.ar    1  UNL1        0.0693
      4 C          -6.3324  -16.0461   24.1240 C.ar    1  UNL1        0.0060
      5 C          -7.2892  -15.4033   25.0839 C.ar    1  UNL1        0.0002
      6 C          -8.7170  -15.8596   25.1383 C.ar    1  UNL1        0.0015
      7 C          -9.1882  -16.9586   24.2328 C.ar    1  UNL1        0.0174
      8 C         -10.5266  -17.6141   24.0621 C.ar    1  UNL1        0.0201
      9 C         -10.3970  -18.6620   22.9966 C.ar    1  UNL1        0.0760
     10 N          -8.9786  -18.6542   22.5089 N.ar    1  UNL1       -0.3242
     11 C          -8.2315  -17.6014   23.2729 C.ar    1  UNL1        0.0643
     12 C          -8.3976  -19.5319   21.4514 C.3     1  UNL1        0.1275
     13 C          -7.0011  -19.5902   20.9070 C.3     1  UNL1        0.1181
     14 N          -5.8107  -18.7643   21.2954 N.am    1  UNL1       -0.2743
     15 C          -3.3281  -18.8936   20.3026 C.3     1  UNL1        0.0917
     16 C          -2.5674  -19.6013   21.1743 C.3     1  UNL1        0.0921
     17 N          -2.0663  -20.0243   21.6724 N.3     1  UNL1       -0.2713
     18 C          -1.4561  -19.4802   20.4148 C.3     1  UNL1        0.0722
     19 C          -2.2975  -18.6974   19.4507 C.3     1  UNL1        0.0191
     20 C          -3.7490  -18.4588   19.7442 C.3     1  UNL1        0.0224
     21 C          -4.3592  -19.0029   21.0019 C.3     1  UNL1        0.0191
     22 C          -3.5178  -19.7857   21.9659 C.3     1  UNL1        0.0722
@<TRIPOS>BOND
     1     1     2    2
     2     2     3    1
     3     3     4   ar
     4     4     5   ar
     5     5     6   ar
     6     6     7   ar
     7     7     8   ar
     8     8     9   ar
     9     9    10   ar
    10    10    11   ar
    11    10    12    1
    12    12    13    1
    13    13    14    1
    14    15    14    1
    15    15    16    1
    16    16    17    1
    17    17    18    1
    18    18    19    1
    19    19    20    1
    20    20    21    1
    21    21    22    1
    22    14     2   am
    23    20    15    1
    24    11     3   ar
    25    22    17    1
    26    11     7   ar
@<TRIPOS>MOLECULE
*****
 22 26 0 0 0
SMALL
GASTEIGER

@<TRIPOS>ATOM
      1 O          -9.5154  -15.3731   24.5438 O.2     1  UNL1       -0.2699
      2 C          -9.0861  -16.3839   23.5219 C.2     1  UNL1        0.2505
      3 C         -10.1311  -16.7837   22.5229 C.ar    1  UNL1        0.0693
      4 C         -11.4428  -16.0863   22.7307 C.ar    1  UNL1        0.0060
      5 C         -12.5973  -16.3723   21.8168 C.ar    1  UNL1        0.0002
      6 C         -12.4402  -17.3557   20.6951 C.ar    1  UNL1        0.0015
      7 C         -11.1285  -18.0531   20.4873 C.ar    1  UNL1        0.0174
      8 C         -10.6788  -19.0644   19.4748 C.ar    1  UNL1        0.0201
      9 C          -9.2463  -19.4034   19.7630 C.ar    1  UNL1        0.0760
     10 N          -8.8107  -18.6017   20.9536 N.ar    1  UNL1       -0.3242
     11 C          -9.9740  -17.7671   21.4012 C.ar    1  UNL1        0.0643
     12 C          -7.4623  -18.6196   21.5920 C.3     1  UNL1        0.1275
     13 C          -6.9458  -17.8562   22.7754 C.3     1  UNL1        0.1181
     14 N          -7.6685  -16.8612   23.6343 N.am    1  UNL1       -0.2743
     15 C          -6.7163  -15.5141   25.7425 C.3     1  UNL1        0.0917
     16 C          -7.4529  -15.8628   26.8267 C.3     1  UNL1        0.0921
     17 N          -7.8716  -16.0431   27.5124 N.3     1  UNL1       -0.2713
     18 C          -6.7512  -15.0558   27.6529 C.3     1  UNL1        0.0722
     19 C          -5.9365  -14.6703   26.4538 C.3     1  UNL1        0.0191
     20 C          -6.2423  -15.2720   25.1143 C.3     1  UNL1        0.0224
     21 C          -7.3627  -16.2594   24.9738 C.3     1  UNL1        0.0191
     22 C          -8.1774  -16.6449   26.1729 C.3     1  UNL1        0.0722
@<TRIPOS>BOND
     1     1     2    2
     2     2     3    1
     3     3     4   ar
     4     4     5   ar
     5     5     6   ar
     6     6     7   ar
     7     7     8   ar
     8     8     9   ar
     9     9    10   ar
    10    10    11   ar
    11    10    12    1
    12    12    13    1
    13    13    14    1
    14    15    14    1
    15    15    16    1
    16    16    17    1
    17    17    18    1
    18    18    19    1
    19    19    20    1
    20    20    21    1
    21    21    22    1
    22    14     2   am
    23    20    15    1
    24    11     3   ar
    25    22    17    1
    26    11     7   ar
@<TRIPOS>MOLECULE
*****
 22 26 0 0 0
SMALL
GASTEIGER

@<TRIPOS>ATOM
      1 O          -6.5359  -19.7413   19.7177 O.2     1  UNL1       -0.2699
      2 C          -6.9975  -18.9029   20.8728 C.2     1  UNL1        0.2505
      3 C          -8.4812  -18.8509   21.0874 C.ar    1  UNL1        0.0693
      4 C          -9.2502  -19.6630   20.0879 C.ar    1  UNL1        0.0060
      5 C         -10.7474  -19.7195   20.1603 C.ar    1  UNL1        0.0002
      6 C         -11.4755  -18.9638   21.2321 C.ar    1  UNL1        0.0015
      7 C         -10.7064  -18.1517   22.2315 C.ar    1  UNL1        0.0174
      8 C         -11.1466  -17.3082   23.3912 C.ar    1  UNL1        0.0201
      9 C          -9.9214  -16.7305   24.0356 C.ar    1  UNL1        0.0760
     10 N          -8.7240  -17.2169   23.2742 N.ar    1  UNL1       -0.3242
     11 C          -9.2093  -18.0952   22.1592 C.ar    1  UNL1        0.0643
     12 C          -7.2963  -16.8935   23.5621 C.3     1  UNL1        0.1275
     13 C          -6.0473  -17.3332   22.8574 C.3     1  UNL1        0.1181
     14 N          -5.9143  -18.2275   21.6605 N.am    1  UNL1       -0.2743
     15 C          -3.6666  -18.9940   20.4251 C.3     1  UNL1        0.0917
     16 C          -2.8960  -19.6470   21.3302 C.3     1  UNL1        0.0921
     17 N          -2.3937  -20.0501   21.8433 N.3     1  UNL1       -0.2713
     18 C          -1.9119  -19.8781   20.4333 C.3     1  UNL1        0.0722
     19 C          -2.7642  -19.1558   19.4323 C.3     1  UNL1        0.0191
     20 C          -4.0983  -18.6057   19.8414 C.3     1  UNL1        0.0224
     21 C          -4.5802  -18.7777   21.2514 C.3     1  UNL1        0.0191
     22 C          -3.7278  -19.4999   22.2524 C.3     1  UNL1        0.0722
@<TRIPOS>BOND
     1     1     2    2
     2     2     3    1
     3     3     4   ar
     4     4     5   ar
     5     5     6   ar
     6     6     7   ar
     7     7     8   ar
     8     8     9   ar
     9     9    10   ar
    10    10    11   ar
    11    10    12    1
    12    12    13    1
    13    13    14    1
    14    15    14    1
    15    15    16    1
    16    16    17    1
    17    17    18    1
    18    18    19    1
    19    19    20    1
    20    20    21    1
    21    21    22    1
    22    14     2   am
    23    20    15    1
    24    11     3   ar
    25    22    17    1
    26    11     7   ar
@<TRIPOS>MOLECULE
*****
 22 26 0 0 0
SMALL
GASTEIGER

@<TRIPOS>ATOM
      1 O         -13.7087   -8.4204   18.5848 O.2     1  UNL1       -0.2699
      2 C         -13.8189   -6.9482   18.8511 C.2     1  UNL1        0.2505
      3 C         -12.5490   -6.1635   18.7044 C.ar    1  UNL1        0.0693
      4 C         -11.3751   -7.0099   18.3101 C.ar    1  UNL1        0.0060
      5 C         -10.0267   -6.3807   18.1208 C.ar    1  UNL1        0.0002
      6 C          -9.8522   -4.9050   18.3258 C.ar    1  UNL1        0.0015
      7 C         -11.0261   -4.0586   18.7201 C.ar    1  UNL1        0.0174
      8 C         -11.1582   -2.5892   18.9907 C.ar    1  UNL1        0.0201
      9 C         -12.5883   -2.3102   19.3472 C.ar    1  UNL1        0.0760
     10 N         -13.3400   -3.6072   19.2970 N.ar    1  UNL1       -0.3242
     11 C         -12.3745   -4.6879   18.9094 C.ar    1  UNL1        0.0643
     12 C         -14.7916   -3.8046   19.5798 C.3     1  UNL1        0.1275
     13 C         -15.6173   -5.0565   19.5531 C.3     1  UNL1        0.1181
     14 N         -15.1845   -6.4557   19.2287 N.am    1  UNL1       -0.2743
     15 C         -16.6857   -8.6717   19.1900 C.3     1  UNL1        0.0917
     16 C         -17.2320   -8.7829   17.9537 C.3     1  UNL1        0.0921
     17 N         -17.5863   -8.8929   17.2185 N.3     1  UNL1       -0.2713
     18 C         -17.8809   -9.9269   18.2645 C.3     1  UNL1        0.0722
     19 C         -17.2766   -9.8039   19.6318 C.3     1  UNL1        0.0191
     20 C         -16.3778   -8.6468   19.9533 C.3     1  UNL1        0.0224
     21 C         -16.0832   -7.6127   18.9073 C.3     1  UNL1        0.0191
     22 C         -16.6875   -7.7358   17.5399 C.3     1  UNL1        0.0722
@<TRIPOS>BOND
     1     1     2    2
     2     2     3    1
     3     3     4   ar
     4     4     5   ar
     5     5     6   ar
     6     6     7   ar
     7     7     8   ar
     8     8     9   ar
     9     9    10   ar
    10    10    11   ar
    11    10    12    1
    12    12    13    1
    13    13    14    1
    14    15    14    1
    15    15    16    1
    16    16    17    1
    17    17    18    1
    18    18    19    1
    19    19    20    1
    20    20    21    1
    21    21    22    1
    22    14     2   am
    23    20    15    1
    24    11     3   ar
    25    22    17    1
    26    11     7   ar
@<TRIPOS>MOLECULE
*****
 22 26 0 0 0
SMALL
GASTEIGER

@<TRIPOS>ATOM
      1 O         -10.1516   -3.5928   17.6722 O.2     1  UNL1       -0.2699
      2 C         -11.4761   -3.2858   18.3061 C.2     1  UNL1        0.2505
      3 C         -11.9815   -1.8868   18.1127 C.ar    1  UNL1        0.0693
      4 C         -11.0523   -1.0308   17.3042 C.ar    1  UNL1        0.0060
      5 C         -11.4077    0.3979   17.0171 C.ar    1  UNL1        0.0002
      6 C         -12.6923    0.9706   17.5385 C.ar    1  UNL1        0.0015
      7 C         -13.6214    0.1146   18.3470 C.ar    1  UNL1        0.0174
      8 C         -14.9468    0.4004   18.9886 C.ar    1  UNL1        0.0201
      9 C         -15.4106   -0.8516   19.6722 C.ar    1  UNL1        0.0760
     10 N         -14.3718   -1.9113   19.4532 N.ar    1  UNL1       -0.3242
     11 C         -13.2661   -1.3141   18.6341 C.ar    1  UNL1        0.0643
     12 C         -14.4157   -3.3158   19.9545 C.3     1  UNL1        0.1275
     13 C         -13.4282   -4.4318   19.7832 C.3     1  UNL1        0.1181
     14 N         -12.1198   -4.4184   19.0495 N.am    1  UNL1       -0.2743
     15 C         -10.3779   -6.4305   18.7620 C.3     1  UNL1        0.0917
     16 C         -10.8711   -7.2774   17.8244 C.3     1  UNL1        0.0921
     17 N         -11.1295   -7.8204   17.2617 N.3     1  UNL1       -0.2713
     18 C          -9.8162   -8.1164   17.9233 C.3     1  UNL1        0.0722
     19 C          -9.2708   -7.1797   18.9602 C.3     1  UNL1        0.0191
     20 C         -10.0387   -5.9471   19.3356 C.3     1  UNL1        0.0224
     21 C         -11.3520   -5.6511   18.6741 C.3     1  UNL1        0.0191
     22 C         -11.8973   -6.5877   17.6371 C.3     1  UNL1        0.0722
@<TRIPOS>BOND
     1     1     2    2
     2     2     3    1
     3     3     4   ar
     4     4     5   ar
     5     5     6   ar
     6     6     7   ar
     7     7     8   ar
     8     8     9   ar
     9     9    10   ar
    10    10    11   ar
    11    10    12    1
    12    12    13    1
    13    13    14    1
    14    15    14    1
    15    15    16    1
    16    16    17    1
    17    17    18    1
    18    18    19    1
    19    19    20    1
    20    20    21    1
    21    21    22    1
    22    14     2   am
    23    20    15    1
    24    11     3   ar
    25    22    17    1
    26    11     7   ar
