@<TRIPOS>MOLECULE
*****
 21 23 0 0 0
SMALL
GASTEIGER

@<TRIPOS>ATOM
      1 C          -8.0247  -19.0165   21.7731 C.ar    1  UNL1       -0.0144
      2 C          -8.6426  -19.3823   20.4561 C.ar    1  UNL1        0.0051
      3 S          -7.5342  -19.6976   19.4958 S.2     1  UNL1       -0.0915
      4 C          -6.2314  -19.5266   20.2193 C.ar    1  UNL1        0.0288
      5 C          -4.8082  -19.6998   19.7783 C.ar    1  UNL1        0.0065
      6 C          -3.6881  -19.4521   20.7447 C.ar    1  UNL1        0.0005
      7 C          -3.9913  -19.0312   22.1522 C.ar    1  UNL1        0.0000
      8 C          -5.4144  -18.8580   22.5932 C.ar    1  UNL1        0.0002
      9 C          -6.5345  -19.1057   21.6267 C.ar    1  UNL1        0.0025
     10 C          -9.7522  -19.5806   23.6300 C.3     1  UNL1        0.0111
     11 C          -8.7667  -18.6295   23.0180 C.3     1  UNL1        0.0632
     12 C          -8.5233  -17.2916   23.6508 C.ar    1  UNL1        0.0698
     13 C          -9.0126  -16.8517   24.9988 C.ar    1  UNL1        0.0519
     14 S          -8.5396  -15.4469   25.2279 S.2     1  UNL1       -0.0643
     15 C          -7.7580  -15.0184   24.0215 C.ar    1  UNL1        0.1341
     16 N          -7.7480  -16.1585   23.0468 N.ar    1  UNL1       -0.2403
     17 C         -10.1109  -19.4253   20.1528 C.3     1  UNL1        0.0499
     18 C         -10.8378  -18.1661   19.7840 C.3     1  UNL1        0.0774
     19 N         -11.4255  -17.2978   20.8567 N.3     1  UNL1       -0.2700
     20 C         -10.8555  -15.9344   21.1142 C.3     1  UNL1        0.0897
     21 C         -12.5833  -17.7929   21.6718 C.3     1  UNL1        0.0897
@<TRIPOS>BOND
     1    11    10    1
     2    11    12    1
     3    12    13   ar
     4    13    14   ar
     5    14    15   ar
     6    15    16   ar
     7    11     1    1
     8     1     2   ar
     9     2    17    1
    10    17    18    1
    11    18    19    1
    12    19    20    1
    13    19    21    1
    14     2     3   ar
    15     3     4   ar
    16     4     5   ar
    17     5     6   ar
    18     6     7   ar
    19     7     8   ar
    20     8     9   ar
    21    16    12   ar
    22     9     1   ar
    23     9     4   ar
@<TRIPOS>MOLECULE
*****
 21 23 0 0 0
SMALL
GASTEIGER

@<TRIPOS>ATOM
      1 C          -8.5691  -17.3061   24.0577 C.ar    1  UNL1       -0.0144
      2 C          -7.5246  -17.1978   22.9866 C.ar    1  UNL1        0.0051
      3 S          -6.4054  -16.3502   23.5146 S.2     1  UNL1       -0.0915
      4 C          -6.7581  -15.9345   24.9120 C.ar    1  UNL1        0.0288
      5 C          -6.0344  -15.0944   25.9222 C.ar    1  UNL1        0.0065
      6 C          -6.6480  -14.8451   27.2680 C.ar    1  UNL1        0.0005
      7 C          -7.9852  -15.4359   27.6037 C.ar    1  UNL1        0.0000
      8 C          -8.7089  -16.2760   26.5936 C.ar    1  UNL1        0.0002
      9 C          -8.0954  -16.5253   25.2477 C.ar    1  UNL1        0.0025
     10 C         -10.1136  -19.2377   24.8537 C.3     1  UNL1        0.0111
     11 C          -9.8605  -18.0623   23.9567 C.3     1  UNL1        0.0632
     12 C         -10.8989  -17.6433   22.9587 C.ar    1  UNL1        0.0698
     13 C         -10.9282  -16.3443   22.2093 C.ar    1  UNL1        0.0519
     14 S         -12.1378  -16.3479   21.3223 S.2     1  UNL1       -0.0643
     15 C         -12.8562  -17.6491   21.5235 C.ar    1  UNL1        0.1341
     16 N         -12.0906  -18.4498   22.5349 N.ar    1  UNL1       -0.2403
     17 C          -7.5882  -17.8268   21.6263 C.3     1  UNL1        0.0499
     18 C          -6.8657  -19.1142   21.3608 C.3     1  UNL1        0.0774
     19 N          -5.3797  -19.1120   21.1563 N.3     1  UNL1       -0.2700
     20 C          -4.4612  -19.2994   22.3274 C.3     1  UNL1        0.0897
     21 C          -4.8122  -18.9226   19.7809 C.3     1  UNL1        0.0897
@<TRIPOS>BOND
     1    11    10    1
     2    11    12    1
     3    12    13   ar
     4    13    14   ar
     5    14    15   ar
     6    15    16   ar
     7    11     1    1
     8     1     2   ar
     9     2    17    1
    10    17    18    1
    11    18    19    1
    12    19    20    1
    13    19    21    1
    14     2     3   ar
    15     3     4   ar
    16     4     5   ar
    17     5     6   ar
    18     6     7   ar
    19     7     8   ar
    20     8     9   ar
    21    16    12   ar
    22     9     1   ar
    23     9     4   ar
@<TRIPOS>MOLECULE
*****
 21 23 0 0 0
SMALL
GASTEIGER

@<TRIPOS>ATOM
      1 C          -8.0647  -18.4344   22.3854 C.ar    1  UNL1       -0.0144
      2 C          -7.5379  -17.2986   23.2115 C.ar    1  UNL1        0.0051
      3 S          -6.0431  -17.2887   23.0863 S.2     1  UNL1       -0.0915
      4 C          -5.6462  -18.4184   22.1829 C.ar    1  UNL1        0.0288
      5 C          -4.3085  -18.8938   21.6987 C.ar    1  UNL1        0.0065
      6 C          -4.2201  -20.0773   20.7813 C.ar    1  UNL1        0.0005
      7 C          -5.4695  -20.7853   20.3482 C.ar    1  UNL1        0.0000
      8 C          -6.8073  -20.3099   20.8323 C.ar    1  UNL1        0.0002
      9 C          -6.8956  -19.1265   21.7497 C.ar    1  UNL1        0.0025
     10 C         -10.0165  -20.0966   22.8069 C.3     1  UNL1        0.0111
     11 C          -9.5074  -18.8118   22.2235 C.3     1  UNL1        0.0632
     12 C         -10.4409  -17.9047   21.4782 C.ar    1  UNL1        0.0698
     13 C         -11.6276  -17.1927   22.0568 C.ar    1  UNL1        0.0519
     14 S         -12.2718  -16.3982   20.9596 S.2     1  UNL1       -0.0643
     15 C         -11.4832  -16.6191   19.7030 C.ar    1  UNL1        0.1341
     16 N         -10.3516  -17.5502   20.0234 N.ar    1  UNL1       -0.2403
     17 C          -8.3612  -16.3408   24.0207 C.3     1  UNL1        0.0499
     18 C          -7.6974  -15.2067   24.7441 C.3     1  UNL1        0.0774
     19 N          -7.0657  -15.4395   26.0845 N.3     1  UNL1       -0.2700
     20 C          -5.5845  -15.2741   26.2545 C.3     1  UNL1        0.0897
     21 C          -7.9151  -15.8376   27.2550 C.3     1  UNL1        0.0897
@<TRIPOS>BOND
     1    11    10    1
     2    11    12    1
     3    12    13   ar
     4    13    14   ar
     5    14    15   ar
     6    15    16   ar
     7    11     1    1
     8     1     2   ar
     9     2    17    1
    10    17    18    1
    11    18    19    1
    12    19    20    1
    13    19    21    1
    14     2     3   ar
    15     3     4   ar
    16     4     5   ar
    17     5     6   ar
    18     6     7   ar
    19     7     8   ar
    20     8     9   ar
    21    16    12   ar
    22     9     1   ar
    23     9     4   ar
@<TRIPOS>MOLECULE
*****
 21 23 0 0 0
SMALL
GASTEIGER

@<TRIPOS>ATOM
      1 C          -8.5289  -17.0577   22.7510 C.ar    1  UNL1       -0.0144
      2 C          -7.8674  -18.2762   22.1784 C.ar    1  UNL1        0.0051
      3 S          -8.9267  -19.1167   21.5292 S.2     1  UNL1       -0.0915
      4 C         -10.2428  -18.4178   21.7005 C.ar    1  UNL1        0.0288
      5 C         -11.6333  -18.7757   21.2665 C.ar    1  UNL1        0.0065
      6 C         -12.7779  -17.8611   21.5877 C.ar    1  UNL1        0.0005
      7 C         -12.5321  -16.5885   22.3428 C.ar    1  UNL1        0.0000
      8 C         -11.1416  -16.2306   22.7768 C.ar    1  UNL1        0.0002
      9 C          -9.9970  -17.1453   22.4557 C.ar    1  UNL1        0.0025
     10 C          -7.2538  -14.7941   22.7313 C.3     1  UNL1        0.0111
     11 C          -7.8428  -15.9468   23.4893 C.3     1  UNL1        0.0632
     12 C          -7.7457  -15.9884   24.9855 C.ar    1  UNL1        0.0698
     13 C          -6.6122  -15.4556   25.8108 C.ar    1  UNL1        0.0519
     14 S          -6.9311  -15.7081   27.2545 S.2     1  UNL1       -0.0643
     15 C          -8.2617  -16.3970   27.3217 C.ar    1  UNL1        0.1341
     16 N          -8.7653  -16.5703   25.9193 N.ar    1  UNL1       -0.2403
     17 C          -6.4037  -18.5976   22.2436 C.3     1  UNL1        0.0499
     18 C          -5.6884  -19.0882   21.0198 C.3     1  UNL1        0.0774
     19 N          -4.2119  -18.8671   20.8750 N.3     1  UNL1       -0.2700
     20 C          -3.3792  -18.5487   22.0815 C.3     1  UNL1        0.0897
     21 C          -3.5679  -18.9643   19.5238 C.3     1  UNL1        0.0897
@<TRIPOS>BOND
     1    11    10    1
     2    11    12    1
     3    12    13   ar
     4    13    14   ar
     5    14    15   ar
     6    15    16   ar
     7    11     1    1
     8     1     2   ar
     9     2    17    1
    10    17    18    1
    11    18    19    1
    12    19    20    1
    13    19    21    1
    14     2     3   ar
    15     3     4   ar
    16     4     5   ar
    17     5     6   ar
    18     6     7   ar
    19     7     8   ar
    20     8     9   ar
    21    16    12   ar
    22     9     1   ar
    23     9     4   ar
@<TRIPOS>MOLECULE
*****
 21 23 0 0 0
SMALL
GASTEIGER

@<TRIPOS>ATOM
      1 C          -7.4148  -18.3086   21.8628 C.ar    1  UNL1       -0.0144
      2 C          -7.3858  -17.0407   22.6637 C.ar    1  UNL1        0.0051
      3 S          -8.6729  -16.3096   22.4210 S.2     1  UNL1       -0.0915
      4 C          -9.4974  -17.1257   21.4701 C.ar    1  UNL1        0.0288
      5 C         -10.8557  -16.9035   20.8738 C.ar    1  UNL1        0.0065
      6 C         -11.4364  -17.9167   19.9325 C.ar    1  UNL1        0.0005
      7 C         -10.6589  -19.1521   19.5875 C.ar    1  UNL1        0.0000
      8 C          -9.3006  -19.3744   20.1838 C.ar    1  UNL1        0.0002
      9 C          -8.7199  -18.3612   21.1251 C.ar    1  UNL1        0.0025
     10 C          -6.5629  -20.7060   22.3893 C.3     1  UNL1        0.0111
     11 C          -6.3294  -19.3425   21.8090 C.3     1  UNL1        0.0632
     12 C          -5.0106  -19.0132   21.1749 C.ar    1  UNL1        0.0698
     13 C          -3.6952  -18.8958   21.8861 C.ar    1  UNL1        0.0519
     14 S          -2.6472  -18.5534   20.8690 S.2     1  UNL1       -0.0643
     15 C          -3.3149  -18.4592   19.5292 C.ar    1  UNL1        0.1341
     16 N          -4.7756  -18.7433   19.7182 N.ar    1  UNL1       -0.2403
     17 C          -6.2663  -16.5840   23.5515 C.3     1  UNL1        0.0499
     18 C          -6.4361  -15.3616   24.4040 C.3     1  UNL1        0.0774
     19 N          -7.0571  -15.4765   25.7646 N.3     1  UNL1       -0.2700
     20 C          -6.1851  -15.5869   26.9801 C.3     1  UNL1        0.0897
     21 C          -8.5500  -15.4809   25.9097 C.3     1  UNL1        0.0897
@<TRIPOS>BOND
     1    11    10    1
     2    11    12    1
     3    12    13   ar
     4    13    14   ar
     5    14    15   ar
     6    15    16   ar
     7    11     1    1
     8     1     2   ar
     9     2    17    1
    10    17    18    1
    11    18    19    1
    12    19    20    1
    13    19    21    1
    14     2     3   ar
    15     3     4   ar
    16     4     5   ar
    17     5     6   ar
    18     6     7   ar
    19     7     8   ar
    20     8     9   ar
    21    16    12   ar
    22     9     1   ar
    23     9     4   ar
@<TRIPOS>MOLECULE
*****
 21 23 0 0 0
SMALL
GASTEIGER

@<TRIPOS>ATOM
      1 C          -8.6742  -17.1348   23.7829 C.ar    1  UNL1       -0.0144
      2 C          -9.7205  -17.9958   24.4262 C.ar    1  UNL1        0.0051
      3 S          -9.6203  -17.8150   25.9119 S.2     1  UNL1       -0.0915
      4 C          -8.5121  -16.8423   26.1868 C.ar    1  UNL1        0.0288
      5 C          -7.9598  -16.2850   27.4653 C.ar    1  UNL1        0.0065
      6 C          -6.8229  -15.3073   27.4279 C.ar    1  UNL1        0.0005
      7 C          -6.2382  -14.8869   26.1121 C.ar    1  UNL1        0.0000
      8 C          -6.7904  -15.4441   24.8337 C.ar    1  UNL1        0.0002
      9 C          -7.9274  -16.4218   24.8710 C.ar    1  UNL1        0.0025
     10 C          -8.7731  -15.7391   21.5937 C.3     1  UNL1        0.0111
     11 C          -8.4195  -17.0087   22.3101 C.3     1  UNL1        0.0632
     12 C          -7.8113  -18.1522   21.5536 C.ar    1  UNL1        0.0698
     13 C          -6.5990  -18.9348   21.9631 C.ar    1  UNL1        0.0519
     14 S          -6.3470  -19.9801   20.9172 S.2     1  UNL1       -0.0643
     15 C          -7.4035  -19.8435   19.8613 C.ar    1  UNL1        0.1341
     16 N          -8.3085  -18.7138   20.2546 N.ar    1  UNL1       -0.2403
     17 C         -10.6958  -18.8820   23.7097 C.3     1  UNL1        0.0499
     18 C         -12.0181  -18.3339   23.2614 C.3     1  UNL1        0.0774
     19 N         -12.0740  -17.3168   22.1603 N.3     1  UNL1       -0.2700
     20 C         -12.3592  -15.8794   22.4808 C.3     1  UNL1        0.0897
     21 C         -11.8446  -17.7371   20.7388 C.3     1  UNL1        0.0897
@<TRIPOS>BOND
     1    11    10    1
     2    11    12    1
     3    12    13   ar
     4    13    14   ar
     5    14    15   ar
     6    15    16   ar
     7    11     1    1
     8     1     2   ar
     9     2    17    1
    10    17    18    1
    11    18    19    1
    12    19    20    1
    13    19    21    1
    14     2     3   ar
    15     3     4   ar
    16     4     5   ar
    17     5     6   ar
    18     6     7   ar
    19     7     8   ar
    20     8     9   ar
    21    16    12   ar
    22     9     1   ar
    23     9     4   ar
@<TRIPOS>MOLECULE
*****
 21 23 0 0 0
SMALL
GASTEIGER

@<TRIPOS>ATOM
      1 C          -6.7222  -19.1297   21.1067 C.ar    1  UNL1       -0.0144
      2 C          -6.5316  -18.2801   22.3281 C.ar    1  UNL1        0.0051
      3 S          -7.8426  -17.6239   22.6454 S.2     1  UNL1       -0.0915
      4 C          -8.8434  -18.0680   21.6201 C.ar    1  UNL1        0.0288
      5 C         -10.2958  -17.7451   21.4296 C.ar    1  UNL1        0.0065
      6 C         -11.0557  -18.3529   20.2881 C.ar    1  UNL1        0.0005
      7 C         -10.3632  -19.2836   19.3371 C.ar    1  UNL1        0.0000
      8 C          -8.9108  -19.6065   19.5277 C.ar    1  UNL1        0.0002
      9 C          -8.1509  -18.9986   20.6692 C.ar    1  UNL1        0.0025
     10 C          -5.9012  -21.4295   20.2194 C.3     1  UNL1        0.0111
     11 C          -5.6689  -19.9641   20.4400 C.3     1  UNL1        0.0632
     12 C          -4.3834  -19.3331   19.9937 C.ar    1  UNL1        0.0698
     13 C          -3.0047  -19.8662   20.2479 C.ar    1  UNL1        0.0519
     14 S          -2.0201  -18.9207   19.6262 S.2     1  UNL1       -0.0643
     15 C          -2.7903  -17.8032   18.9876 C.ar    1  UNL1        0.1341
     16 N          -4.2510  -18.0580   19.2148 N.ar    1  UNL1       -0.2403
     17 C          -5.2543  -18.1156   23.0972 C.3     1  UNL1        0.0499
     18 C          -4.4430  -16.8632   22.9446 C.3     1  UNL1        0.0774
     19 N          -2.9707  -16.9520   22.6718 N.3     1  UNL1       -0.2700
     20 C          -2.1780  -18.1097   23.2025 C.3     1  UNL1        0.0897
     21 C          -2.2910  -15.8832   21.8683 C.3     1  UNL1        0.0897
@<TRIPOS>BOND
     1    11    10    1
     2    11    12    1
     3    12    13   ar
     4    13    14   ar
     5    14    15   ar
     6    15    16   ar
     7    11     1    1
     8     1     2   ar
     9     2    17    1
    10    17    18    1
    11    18    19    1
    12    19    20    1
    13    19    21    1
    14     2     3   ar
    15     3     4   ar
    16     4     5   ar
    17     5     6   ar
    18     6     7   ar
    19     7     8   ar
    20     8     9   ar
    21    16    12   ar
    22     9     1   ar
    23     9     4   ar
@<TRIPOS>MOLECULE
*****
 21 23 0 0 0
SMALL
GASTEIGER

@<TRIPOS>ATOM
      1 C          -6.0589  -19.2723   20.9928 C.ar    1  UNL1       -0.0144
      2 C          -6.0467  -18.4341   22.2368 C.ar    1  UNL1        0.0051
      3 S          -7.4427  -17.9407   22.4769 S.2     1  UNL1       -0.0915
      4 C          -8.3177  -18.4740   21.3814 C.ar    1  UNL1        0.0288
      5 C          -9.7827  -18.3165   21.1006 C.ar    1  UNL1        0.0065
      6 C         -10.3924  -18.9820   19.9026 C.ar    1  UNL1        0.0005
      7 C          -9.5372  -19.8049   18.9854 C.ar    1  UNL1        0.0000
      8 C          -8.0722  -19.9624   19.2662 C.ar    1  UNL1        0.0002
      9 C          -7.4624  -19.2969   20.4642 C.ar    1  UNL1        0.0025
     10 C          -4.9487  -21.4259   20.0549 C.3     1  UNL1        0.0111
     11 C          -4.8753  -19.9643   20.3844 C.3     1  UNL1        0.0632
     12 C          -3.6183  -19.1949   20.1053 C.ar    1  UNL1        0.0698
     13 C          -3.4560  -18.1135   19.0785 C.ar    1  UNL1        0.0519
     14 S          -2.0403  -17.6221   19.1427 S.2     1  UNL1       -0.0643
     15 C          -1.3276  -18.3997   20.2090 C.ar    1  UNL1        0.1341
     16 N          -2.3029  -19.3718   20.8040 N.ar    1  UNL1       -0.2403
     17 C          -4.8488  -18.1408   23.0906 C.3     1  UNL1        0.0499
     18 C          -4.4963  -16.7220   23.4263 C.3     1  UNL1        0.0774
     19 N          -5.3062  -15.9674   24.4385 N.3     1  UNL1       -0.2700
     20 C          -4.9970  -16.1050   25.8999 C.3     1  UNL1        0.0897
     21 C          -6.4252  -15.0751   23.9895 C.3     1  UNL1        0.0897
@<TRIPOS>BOND
     1    11    10    1
     2    11    12    1
     3    12    13   ar
     4    13    14   ar
     5    14    15   ar
     6    15    16   ar
     7    11     1    1
     8     1     2   ar
     9     2    17    1
    10    17    18    1
    11    18    19    1
    12    19    20    1
    13    19    21    1
    14     2     3   ar
    15     3     4   ar
    16     4     5   ar
    17     5     6   ar
    18     6     7   ar
    19     7     8   ar
    20     8     9   ar
    21    16    12   ar
    22     9     1   ar
    23     9     4   ar
@<TRIPOS>MOLECULE
*****
 21 23 0 0 0
SMALL
GASTEIGER

@<TRIPOS>ATOM
      1 C          -6.7410  -18.4693   22.1013 C.ar    1  UNL1       -0.0144
      2 C          -6.4996  -17.3350   23.0526 C.ar    1  UNL1        0.0051
      3 S          -5.0177  -17.1888   23.2331 S.2     1  UNL1       -0.0915
      4 C          -4.3432  -18.2328   22.3933 C.ar    1  UNL1        0.0288
      5 C          -2.8969  -18.5650   22.1752 C.ar    1  UNL1        0.0065
      6 C          -2.5156  -19.6887   21.2577 C.ar    1  UNL1        0.0005
      7 C          -3.5807  -20.4801   20.5582 C.ar    1  UNL1        0.0000
      8 C          -5.0270  -20.1479   20.7763 C.ar    1  UNL1        0.0002
      9 C          -5.4083  -19.0242   21.6939 C.ar    1  UNL1        0.0025
     10 C          -8.3192  -19.2276   20.1818 C.3     1  UNL1        0.0111
     11 C          -8.0800  -18.9623   21.6387 C.3     1  UNL1        0.0632
     12 C          -9.1799  -19.1899   22.6328 C.ar    1  UNL1        0.0698
     13 C         -10.5002  -18.4789   22.6652 C.ar    1  UNL1        0.0519
     14 S         -11.2889  -19.0181   23.8216 S.2     1  UNL1       -0.0643
     15 C         -10.4561  -20.0625   24.5039 C.ar    1  UNL1        0.1341
     16 N          -9.1525  -20.1687   23.7692 N.ar    1  UNL1       -0.2403
     17 C          -7.5548  -16.4944   23.7083 C.3     1  UNL1        0.0499
     18 C          -7.1720  -15.4960   24.7603 C.3     1  UNL1        0.0774
     19 N          -7.4297  -15.7952   26.2074 N.3     1  UNL1       -0.2700
     20 C          -8.6019  -16.6448   26.6004 C.3     1  UNL1        0.0897
     21 C          -6.5154  -15.2449   27.2614 C.3     1  UNL1        0.0897
@<TRIPOS>BOND
     1    11    10    1
     2    11    12    1
     3    12    13   ar
     4    13    14   ar
     5    14    15   ar
     6    15    16   ar
     7    11     1    1
     8     1     2   ar
     9     2    17    1
    10    17    18    1
    11    18    19    1
    12    19    20    1
    13    19    21    1
    14     2     3   ar
    15     3     4   ar
    16     4     5   ar
    17     5     6   ar
    18     6     7   ar
    19     7     8   ar
    20     8     9   ar
    21    16    12   ar
    22     9     1   ar
    23     9     4   ar
