@<TRIPOS>MOLECULE
*****
 36 39 0 0 0
SMALL
GASTEIGER

@<TRIPOS>ATOM
      1 C           1.2858    0.6889   21.0955 C.ar    1  UNL1        0.0154
      2 C           0.2007    1.3792   20.3236 C.ar    1  UNL1        0.0985
      3 N          -0.7388    2.3154   21.0241 N.ar    1  UNL1       -0.2423
      4 C          -0.5932    2.5614   22.4967 C.ar    1  UNL1        0.0985
      5 C           0.4920    1.8710   23.2686 C.ar    1  UNL1        0.0152
      6 C           1.4315    0.9347   22.5680 C.ar    1  UNL1       -0.0188
      7 C           2.5166    0.2444   23.3399 C.3     1  UNL1        0.0311
      8 C           3.7467   -2.3531   20.4317 C.ar    1  UNL1        0.1452
      9 C           2.8073   -1.4168   21.1322 C.ar    1  UNL1        0.0372
     10 C           2.2253   -0.2474   20.3948 C.ar    1  UNL1        0.0064
     11 C           2.5828   -0.0142   18.9569 C.ar    1  UNL1        0.0300
     12 C           3.5222   -0.9505   18.2563 C.ar    1  UNL1        0.1474
     13 F           3.8798   -0.7173   16.8183 F       1  UNL1       -0.2039
     14 C           4.1042   -2.1199   18.9937 C.ar    1  UNL1        0.1144
     15 C           5.0437   -3.0562   18.2931 C.2     1  UNL1        0.2479
     16 N           4.7864   -4.5338   18.3169 N.am    1  UNL1       -0.3252
     17 O           6.2404   -2.5149   17.5687 O.2     1  UNL1       -0.2702
     18 H           4.0009   -4.8890   18.7923 H       1  UNL1        0.1453
     19 H           5.4030   -5.1483   17.8570 H       1  UNL1        0.1453
     20 C           4.5970   -3.4226   22.6415 C.3     1  UNL1        0.2525
     21 O           4.3287   -3.5225   21.1691 O.3     1  UNL1       -0.4712
     22 C           0.6377    2.1169   24.7411 C.ar    1  UNL1        0.0013
     23 C          -0.1315    1.2810   25.7207 C.ar    1  UNL1        0.0013
     24 C           0.0142    1.5269   27.1933 C.ar    1  UNL1        0.0145
     25 C           0.9290    2.6087   27.6862 C.ar    1  UNL1        0.0479
     26 C           1.6982    3.4445   26.7064 C.ar    1  UNL1        0.0145
     27 C           1.5525    3.1987   25.2340 C.ar    1  UNL1        0.0013
     28 N           1.0747    2.8545   29.1587 N.pl3   1  UNL1       -0.3047
     29 C           0.5120    4.1035   29.7697 C.3     1  UNL1        0.1067
     30 C           0.6577    4.3494   31.2423 C.3     1  UNL1        0.0774
     31 C           0.0950    5.5984   31.8533 C.3     1  UNL1        0.0191
     32 N           1.3661    3.3464   32.1037 N.3     1  UNL1       -0.2709
     33 C           1.5118    3.5923   33.5762 C.3     1  UNL1        0.0897
     34 C           1.9288    2.0974   31.4926 C.3     1  UNL1        0.0774
     35 C           2.6372    1.0943   32.3540 C.3     1  UNL1        0.0191
     36 C           1.7831    1.8515   30.0201 C.3     1  UNL1        0.1067
@<TRIPOS>BOND
     1    20    21    1
     2    21     8    1
     3     8     9   ar
     4     9    10   ar
     5    10     1    1
     6     1     2   ar
     7     2     3   ar
     8     3     4   ar
     9     4     5   ar
    10     5    22    1
    11    22    23   ar
    12    23    24   ar
    13    24    25   ar
    14    25    28    1
    15    28    29    1
    16    29    30    1
    17    30    31    1
    18    30    32    1
    19    32    33    1
    20    32    34    1
    21    34    35    1
    22    34    36    1
    23    25    26   ar
    24    26    27   ar
    25     5     6   ar
    26     6     7    1
    27    10    11   ar
    28    11    12   ar
    29    12    13    1
    30    12    14   ar
    31    14    15    1
    32    15    16   am
    33    15    17    2
    34    14     8   ar
    35     6     1   ar
    36    27    22   ar
    37    36    28    1
    38    16    18    1
    39    16    19    1
@<TRIPOS>MOLECULE
*****
 36 39 0 0 0
SMALL
GASTEIGER

@<TRIPOS>ATOM
      1 C           1.2808    0.7212   21.1955 C.ar    1  UNL1        0.0154
      2 C           0.1946    1.4469   20.4583 C.ar    1  UNL1        0.0985
      3 N          -0.7285    2.3682   21.1992 N.ar    1  UNL1       -0.2423
      4 C          -0.5654    2.5639   22.6775 C.ar    1  UNL1        0.0985
      5 C           0.5209    1.8382   23.4147 C.ar    1  UNL1        0.0152
      6 C           1.4440    0.9169   22.6737 C.ar    1  UNL1       -0.0188
      7 C           2.5303    0.1912   23.4109 C.3     1  UNL1        0.0311
      8 C           3.7090   -2.3173   20.4072 C.ar    1  UNL1        0.1452
      9 C           2.7860   -1.3960   21.1482 C.ar    1  UNL1        0.0372
     10 C           2.2039   -0.2001   20.4545 C.ar    1  UNL1        0.0064
     11 C           2.5450    0.0744   19.0198 C.ar    1  UNL1        0.0300
     12 C           3.4681   -0.8469   18.2789 C.ar    1  UNL1        0.1474
     13 F           3.8092   -0.5724   16.8441 F       1  UNL1       -0.2039
     14 C           4.0501   -2.0428   18.9726 C.ar    1  UNL1        0.1144
     15 C           4.9732   -2.9641   18.2315 C.2     1  UNL1        0.2479
     16 N           4.7175   -4.4422   18.2326 N.am    1  UNL1       -0.3252
     17 O           6.1519   -2.4074   17.4895 O.2     1  UNL1       -0.2702
     18 H           3.9439   -4.8076   18.7196 H       1  UNL1        0.1453
     19 H           5.3234   -5.0469   17.7462 H       1  UNL1        0.1453
     20 C           4.6611   -3.4319   22.5522 C.3     1  UNL1        0.2525
     21 O           4.2910   -3.5131   21.1009 O.3     1  UNL1       -0.4712
     22 C           0.6840    2.0339   24.8929 C.ar    1  UNL1        0.0013
     23 C          -0.1984    1.2888   25.8499 C.ar    1  UNL1        0.0013
     24 C          -0.0353    1.4845   27.3282 C.ar    1  UNL1        0.0145
     25 C           1.0104    2.4252   27.8493 C.ar    1  UNL1        0.0479
     26 C           1.8929    3.1703   26.8922 C.ar    1  UNL1        0.0145
     27 C           1.7297    2.9747   25.4140 C.ar    1  UNL1        0.0013
     28 N           1.1735    2.6209   29.3275 N.pl3   1  UNL1       -0.3047
     29 C           1.9728    1.6379   30.1304 C.3     1  UNL1        0.1067
     30 C           2.1361    1.8335   31.6086 C.3     1  UNL1        0.0774
     31 C           2.9354    0.8505   32.4115 C.3     1  UNL1        0.0191
     32 N           1.4999    3.0122   32.2839 N.3     1  UNL1       -0.2709
     33 C           1.6631    3.2079   33.7621 C.3     1  UNL1        0.0897
     34 C           0.7005    3.9952   31.4809 C.3     1  UNL1        0.0774
     35 C           0.0644    5.1739   32.1562 C.3     1  UNL1        0.0191
     36 C           0.5374    3.7996   30.0027 C.3     1  UNL1        0.1067
@<TRIPOS>BOND
     1    20    21    1
     2    21     8    1
     3     8     9   ar
     4     9    10   ar
     5    10     1    1
     6     1     2   ar
     7     2     3   ar
     8     3     4   ar
     9     4     5   ar
    10     5    22    1
    11    22    23   ar
    12    23    24   ar
    13    24    25   ar
    14    25    28    1
    15    28    29    1
    16    29    30    1
    17    30    31    1
    18    30    32    1
    19    32    33    1
    20    32    34    1
    21    34    35    1
    22    34    36    1
    23    25    26   ar
    24    26    27   ar
    25     5     6   ar
    26     6     7    1
    27    10    11   ar
    28    11    12   ar
    29    12    13    1
    30    12    14   ar
    31    14    15    1
    32    15    16   am
    33    15    17    2
    34    14     8   ar
    35     6     1   ar
    36    27    22   ar
    37    36    28    1
    38    16    18    1
    39    16    19    1
@<TRIPOS>MOLECULE
*****
 36 39 0 0 0
SMALL
GASTEIGER

@<TRIPOS>ATOM
      1 C           3.7755   -0.6065   23.6064 C.ar    1  UNL1        0.0154
      2 C           4.5215   -1.3967   24.6404 C.ar    1  UNL1        0.0985
      3 N           4.2239   -1.1957   26.0967 N.ar    1  UNL1       -0.2423
      4 C           3.1802   -0.2045   26.5191 C.ar    1  UNL1        0.0985
      5 C           2.4342    0.5856   25.4851 C.ar    1  UNL1        0.0152
      6 C           2.7319    0.3846   24.0287 C.ar    1  UNL1       -0.0188
      7 C           1.9859    1.1747   22.9947 C.3     1  UNL1        0.0311
      8 C           3.7367   -2.1456   19.9485 C.ar    1  UNL1        0.1452
      9 C           3.4391   -1.9445   21.4048 C.ar    1  UNL1        0.0372
     10 C           4.0732   -0.8076   22.1499 C.ar    1  UNL1        0.0064
     11 C           5.0050    0.1283   21.4388 C.ar    1  UNL1        0.0300
     12 C           5.3027   -0.0728   19.9824 C.ar    1  UNL1        0.1474
     13 F           6.2345    0.8631   19.2712 F       1  UNL1       -0.2039
     14 C           4.6685   -1.2097   19.2373 C.ar    1  UNL1        0.1144
     15 C           4.9662   -1.4107   17.7809 C.2     1  UNL1        0.2479
     16 N           3.8700   -1.2766   16.7658 N.am    1  UNL1       -0.3252
     17 O           6.3601   -1.7459   17.3396 O.2     1  UNL1       -0.2702
     18 H           2.9552   -1.0566   17.0555 H       1  UNL1        0.1453
     19 H           4.0654   -1.4085   15.8100 H       1  UNL1        0.1453
     20 C           3.7192   -4.6489   19.2536 C.3     1  UNL1        0.2525
     21 O           3.1025   -3.2825   19.2033 O.3     1  UNL1       -0.4712
     22 C           1.3905    1.5768   25.9074 C.ar    1  UNL1        0.0013
     23 C           1.8000    2.9335   26.3988 C.ar    1  UNL1        0.0013
     24 C           0.7563    3.9247   26.8212 C.ar    1  UNL1        0.0145
     25 C          -0.6968    3.5591   26.7521 C.ar    1  UNL1        0.0479
     26 C          -1.1062    2.2023   26.2607 C.ar    1  UNL1        0.0145
     27 C          -0.0626    1.2111   25.8384 C.ar    1  UNL1        0.0013
     28 N          -1.7404    4.5502   27.1745 N.pl3   1  UNL1       -0.3047
     29 C          -1.3934    5.6344   28.1512 C.3     1  UNL1        0.1067
     30 C          -2.4371    6.6256   28.5736 C.3     1  UNL1        0.0774
     31 C          -2.0900    7.7098   29.5503 C.3     1  UNL1        0.0191
     32 N          -3.8277    6.5326   28.0192 N.3     1  UNL1       -0.2709
     33 C          -4.8714    7.5237   28.4415 C.3     1  UNL1        0.0897
     34 C          -4.1747    5.4483   27.0424 C.3     1  UNL1        0.0774
     35 C          -5.5654    5.3553   26.4880 C.3     1  UNL1        0.0191
     36 C          -3.1311    4.4572   26.6200 C.3     1  UNL1        0.1067
@<TRIPOS>BOND
     1    20    21    1
     2    21     8    1
     3     8     9   ar
     4     9    10   ar
     5    10     1    1
     6     1     2   ar
     7     2     3   ar
     8     3     4   ar
     9     4     5   ar
    10     5    22    1
    11    22    23   ar
    12    23    24   ar
    13    24    25   ar
    14    25    28    1
    15    28    29    1
    16    29    30    1
    17    30    31    1
    18    30    32    1
    19    32    33    1
    20    32    34    1
    21    34    35    1
    22    34    36    1
    23    25    26   ar
    24    26    27   ar
    25     5     6   ar
    26     6     7    1
    27    10    11   ar
    28    11    12   ar
    29    12    13    1
    30    12    14   ar
    31    14    15    1
    32    15    16   am
    33    15    17    2
    34    14     8   ar
    35     6     1   ar
    36    27    22   ar
    37    36    28    1
    38    16    18    1
    39    16    19    1
@<TRIPOS>MOLECULE
*****
 36 39 0 0 0
SMALL
GASTEIGER

@<TRIPOS>ATOM
      1 C           2.8975    0.4884   23.2539 C.ar    1  UNL1        0.0154
      2 C           3.8310    0.3738   24.4225 C.ar    1  UNL1        0.0985
      3 N           3.4301    0.9234   25.7593 N.ar    1  UNL1       -0.2423
      4 C           2.0957    1.5875   25.9277 C.ar    1  UNL1        0.0985
      5 C           1.1622    1.7021   24.7591 C.ar    1  UNL1        0.0152
      6 C           1.5632    1.1526   23.4222 C.ar    1  UNL1       -0.0188
      7 C           0.6297    1.2672   22.2536 C.3     1  UNL1        0.0311
      8 C           4.2165    0.3104   19.5151 C.ar    1  UNL1        0.1452
      9 C           3.8156    0.8599   20.8520 C.ar    1  UNL1        0.0372
     10 C           3.2985   -0.0612   21.9170 C.ar    1  UNL1        0.0064
     11 C           3.1824   -1.5317   21.6452 C.ar    1  UNL1        0.0300
     12 C           3.5834   -2.0813   20.3084 C.ar    1  UNL1        0.1474
     13 F           3.4673   -3.5519   20.0365 F       1  UNL1       -0.2039
     14 C           4.1004   -1.1602   19.2433 C.ar    1  UNL1        0.1144
     15 C           4.5014   -1.7098   17.9064 C.2     1  UNL1        0.2479
     16 N           3.8145   -1.2307   16.6619 N.am    1  UNL1       -0.3252
     17 O           5.5892   -2.7384   17.8140 O.2     1  UNL1       -0.2702
     18 H           3.1006   -0.5556   16.7226 H       1  UNL1        0.1453
     19 H           4.0777   -1.5914   15.7845 H       1  UNL1        0.1453
     20 C           4.1197    2.5880   18.2689 C.3     1  UNL1        0.2525
     21 O           4.7336    1.2314   18.4501 O.3     1  UNL1       -0.4712
     22 C          -0.1721    2.3663   24.9274 C.ar    1  UNL1        0.0013
     23 C          -0.7487    3.1846   23.8104 C.ar    1  UNL1        0.0013
     24 C          -2.0832    3.8488   23.9786 C.ar    1  UNL1        0.0145
     25 C          -2.8409    3.6946   25.2639 C.ar    1  UNL1        0.0479
     26 C          -2.2643    2.8762   26.3810 C.ar    1  UNL1        0.0145
     27 C          -0.9299    2.2121   26.2127 C.ar    1  UNL1        0.0013
     28 N          -4.1753    4.3588   25.4322 N.pl3   1  UNL1       -0.3047
     29 C          -4.4340    5.2305   26.6251 C.3     1  UNL1        0.1067
     30 C          -5.7684    5.8947   26.7935 C.3     1  UNL1        0.0774
     31 C          -6.0271    6.7665   27.9864 C.3     1  UNL1        0.0191
     32 N          -6.8440    5.6871   25.7688 N.3     1  UNL1       -0.2709
     33 C          -8.1784    6.3513   25.9371 C.3     1  UNL1        0.0897
     34 C          -6.5853    4.8153   24.5759 C.3     1  UNL1        0.0774
     35 C          -7.6609    4.6077   23.5513 C.3     1  UNL1        0.0191
     36 C          -5.2509    4.1512   24.4076 C.3     1  UNL1        0.1067
@<TRIPOS>BOND
     1    20    21    1
     2    21     8    1
     3     8     9   ar
     4     9    10   ar
     5    10     1    1
     6     1     2   ar
     7     2     3   ar
     8     3     4   ar
     9     4     5   ar
    10     5    22    1
    11    22    23   ar
    12    23    24   ar
    13    24    25   ar
    14    25    28    1
    15    28    29    1
    16    29    30    1
    17    30    31    1
    18    30    32    1
    19    32    33    1
    20    32    34    1
    21    34    35    1
    22    34    36    1
    23    25    26   ar
    24    26    27   ar
    25     5     6   ar
    26     6     7    1
    27    10    11   ar
    28    11    12   ar
    29    12    13    1
    30    12    14   ar
    31    14    15    1
    32    15    16   am
    33    15    17    2
    34    14     8   ar
    35     6     1   ar
    36    27    22   ar
    37    36    28    1
    38    16    18    1
    39    16    19    1
@<TRIPOS>MOLECULE
*****
 36 39 0 0 0
SMALL
GASTEIGER

@<TRIPOS>ATOM
      1 C           3.3243    0.9590   23.2296 C.ar    1  UNL1        0.0154
      2 C           4.4454    1.6667   23.9312 C.ar    1  UNL1        0.0985
      3 N           4.1550    2.8530   24.8020 N.ar    1  UNL1       -0.2423
      4 C           2.7435    3.3317   24.9712 C.ar    1  UNL1        0.0985
      5 C           1.6224    2.6239   24.2696 C.ar    1  UNL1        0.0152
      6 C           1.9129    1.4376   23.3988 C.ar    1  UNL1       -0.0188
      7 C           0.7918    0.7299   22.6971 C.3     1  UNL1        0.0311
      8 C           3.9268   -1.2613   19.9958 C.ar    1  UNL1        0.1452
      9 C           3.6364   -0.0751   20.8667 C.ar    1  UNL1        0.0372
     10 C           3.6148   -0.2273   22.3588 C.ar    1  UNL1        0.0064
     11 C           3.8836   -1.5659   22.9800 C.ar    1  UNL1        0.0300
     12 C           4.1741   -2.7521   22.1092 C.ar    1  UNL1        0.1474
     13 F           4.4429   -4.0907   22.7305 F       1  UNL1       -0.2039
     14 C           4.1956   -2.5999   20.6171 C.ar    1  UNL1        0.1144
     15 C           4.4861   -3.7862   19.7463 C.2     1  UNL1        0.2479
     16 N           3.5525   -4.1417   18.6273 N.am    1  UNL1       -0.3252
     17 O           5.7101   -4.6170   19.9944 O.2     1  UNL1       -0.2702
     18 H           2.7491   -3.5964   18.4645 H       1  UNL1        0.1453
     19 H           3.7431   -4.9203   18.0558 H       1  UNL1        0.1453
     20 C           3.1611   -0.0122   17.8503 C.3     1  UNL1        0.2525
     21 O           3.9484   -1.1091   18.5037 O.3     1  UNL1       -0.4712
     22 C           0.2109    3.1025   24.4388 C.ar    1  UNL1        0.0013
     23 C          -0.6018    2.6412   25.6120 C.ar    1  UNL1        0.0013
     24 C          -2.0134    3.1197   25.7812 C.ar    1  UNL1        0.0145
     25 C          -2.6121    4.0596   24.7772 C.ar    1  UNL1        0.0479
     26 C          -1.7992    4.5210   23.6039 C.ar    1  UNL1        0.0145
     27 C          -0.3878    4.0424   23.4347 C.ar    1  UNL1        0.0013
     28 N          -4.0236    4.5382   24.9463 N.pl3   1  UNL1       -0.3047
     29 C          -5.0349    4.2874   23.8674 C.3     1  UNL1        0.1067
     30 C          -6.4465    4.7659   24.0365 C.3     1  UNL1        0.0774
     31 C          -7.4578    4.5151   22.9575 C.3     1  UNL1        0.0191
     32 N          -6.8466    5.4954   25.2846 N.3     1  UNL1       -0.2709
     33 C          -8.2581    5.9739   25.4538 C.3     1  UNL1        0.0897
     34 C          -5.8352    5.7462   26.3636 C.3     1  UNL1        0.0774
     35 C          -6.2353    6.4756   27.6118 C.3     1  UNL1        0.0191
     36 C          -4.4237    5.2676   26.1945 C.3     1  UNL1        0.1067
@<TRIPOS>BOND
     1    20    21    1
     2    21     8    1
     3     8     9   ar
     4     9    10   ar
     5    10     1    1
     6     1     2   ar
     7     2     3   ar
     8     3     4   ar
     9     4     5   ar
    10     5    22    1
    11    22    23   ar
    12    23    24   ar
    13    24    25   ar
    14    25    28    1
    15    28    29    1
    16    29    30    1
    17    30    31    1
    18    30    32    1
    19    32    33    1
    20    32    34    1
    21    34    35    1
    22    34    36    1
    23    25    26   ar
    24    26    27   ar
    25     5     6   ar
    26     6     7    1
    27    10    11   ar
    28    11    12   ar
    29    12    13    1
    30    12    14   ar
    31    14    15    1
    32    15    16   am
    33    15    17    2
    34    14     8   ar
    35     6     1   ar
    36    27    22   ar
    37    36    28    1
    38    16    18    1
    39    16    19    1
@<TRIPOS>MOLECULE
*****
 36 39 0 0 0
SMALL
GASTEIGER

@<TRIPOS>ATOM
      1 C          -1.6162    4.5460   26.6874 C.ar    1  UNL1        0.0154
      2 C          -1.6590    5.8911   27.3499 C.ar    1  UNL1        0.0985
      3 N          -0.7701    6.1776   28.5237 N.ar    1  UNL1       -0.2423
      4 C           0.1615    5.1190   29.0351 C.ar    1  UNL1        0.0985
      5 C           0.2043    3.7739   28.3726 C.ar    1  UNL1        0.0152
      6 C          -0.6846    3.4874   27.1987 C.ar    1  UNL1       -0.0188
      7 C          -0.6419    2.1423   26.5362 C.3     1  UNL1        0.0311
      8 C          -2.8088    3.8766   22.9619 C.ar    1  UNL1        0.1452
      9 C          -1.9200    4.1631   24.1357 C.ar    1  UNL1        0.0372
     10 C          -2.5051    4.2596   25.5135 C.ar    1  UNL1        0.0064
     11 C          -3.9789    4.0696   25.7175 C.ar    1  UNL1        0.0300
     12 C          -4.8677    3.7831   24.5437 C.ar    1  UNL1        0.1474
     13 F          -6.3417    3.5932   24.7476 F       1  UNL1       -0.2039
     14 C          -4.2827    3.6867   23.1659 C.ar    1  UNL1        0.1144
     15 C          -5.1716    3.4002   21.9920 C.2     1  UNL1        0.2479
     16 N          -4.7135    2.4609   20.9160 N.am    1  UNL1       -0.3252
     17 O          -6.5185    4.0530   21.8942 O.2     1  UNL1       -0.2702
     18 H          -3.8294    2.0324   20.9802 H       1  UNL1        0.1453
     19 H          -5.2968    2.2729   20.1455 H       1  UNL1        0.1453
     20 C          -0.8578    3.1921   21.3887 C.3     1  UNL1        0.2525
     21 O          -2.2238    3.7802   21.5840 O.3     1  UNL1       -0.4712
     22 C           1.1358    2.7153   28.8839 C.ar    1  UNL1        0.0013
     23 C           0.6351    1.6739   29.8403 C.ar    1  UNL1        0.0013
     24 C           1.5666    0.6152   30.3517 C.ar    1  UNL1        0.0145
     25 C           2.9990    0.5980   29.9066 C.ar    1  UNL1        0.0479
     26 C           3.4998    1.6395   28.9502 C.ar    1  UNL1        0.0145
     27 C           2.5682    2.6981   28.4389 C.ar    1  UNL1        0.0013
     28 N           3.9306   -0.4606   30.4179 N.pl3   1  UNL1       -0.3047
     29 C           3.6864   -1.0914   31.7567 C.3     1  UNL1        0.1067
     30 C           4.6180   -2.1501   32.2681 C.3     1  UNL1        0.0774
     31 C           4.3739   -2.7809   33.6069 C.3     1  UNL1        0.0191
     32 N           5.7937   -2.5778   31.4406 N.3     1  UNL1       -0.2709
     33 C           6.7253   -3.6364   31.9519 C.3     1  UNL1        0.0897
     34 C           6.0378   -1.9470   30.1017 C.3     1  UNL1        0.0774
     35 C           7.2135   -2.3748   29.2743 C.3     1  UNL1        0.0191
     36 C           5.1063   -0.8884   29.5904 C.3     1  UNL1        0.1067
@<TRIPOS>BOND
     1    20    21    1
     2    21     8    1
     3     8     9   ar
     4     9    10   ar
     5    10     1    1
     6     1     2   ar
     7     2     3   ar
     8     3     4   ar
     9     4     5   ar
    10     5    22    1
    11    22    23   ar
    12    23    24   ar
    13    24    25   ar
    14    25    28    1
    15    28    29    1
    16    29    30    1
    17    30    31    1
    18    30    32    1
    19    32    33    1
    20    32    34    1
    21    34    35    1
    22    34    36    1
    23    25    26   ar
    24    26    27   ar
    25     5     6   ar
    26     6     7    1
    27    10    11   ar
    28    11    12   ar
    29    12    13    1
    30    12    14   ar
    31    14    15    1
    32    15    16   am
    33    15    17    2
    34    14     8   ar
    35     6     1   ar
    36    27    22   ar
    37    36    28    1
    38    16    18    1
    39    16    19    1
@<TRIPOS>MOLECULE
*****
 36 39 0 0 0
SMALL
GASTEIGER

@<TRIPOS>ATOM
      1 C          -2.2146    4.8727   19.1771 C.ar    1  UNL1        0.0154
      2 C          -1.9256    5.8989   18.1219 C.ar    1  UNL1        0.0985
      3 N          -0.6446    5.8347   17.3442 N.ar    1  UNL1       -0.2423
      4 C           0.3474    4.7443   17.6217 C.ar    1  UNL1        0.0985
      5 C           0.0584    3.7181   18.6768 C.ar    1  UNL1        0.0152
      6 C          -1.2227    3.7823   19.4546 C.ar    1  UNL1       -0.0188
      7 C          -1.5117    2.7561   20.5097 C.3     1  UNL1        0.0311
      8 C          -4.7869    5.5853   22.1141 C.ar    1  UNL1        0.1452
      9 C          -3.5059    5.5211   21.3363 C.ar    1  UNL1        0.0372
     10 C          -3.4957    4.9369   19.9548 C.ar    1  UNL1        0.0064
     11 C          -4.7665    4.4169   19.3510 C.ar    1  UNL1        0.0300
     12 C          -6.0475    4.4812   20.1287 C.ar    1  UNL1        0.1474
     13 F          -7.3184    3.9612   19.5249 F       1  UNL1       -0.2039
     14 C          -6.0577    5.0654   21.5103 C.ar    1  UNL1        0.1144
     15 C          -7.3388    5.1296   22.2880 C.2     1  UNL1        0.2479
     16 N          -7.7674    3.9610   23.1251 N.am    1  UNL1       -0.3252
     17 O          -8.1912    6.3624   22.2286 O.2     1  UNL1       -0.2702
     18 H          -7.2079    3.1519   23.1640 H       1  UNL1        0.1453
     19 H          -8.6081    4.0031   23.6355 H       1  UNL1        0.1453
     20 C          -4.4337    5.3153   24.6738 C.3     1  UNL1        0.2525
     21 O          -4.7971    6.1695   23.4956 O.3     1  UNL1       -0.4712
     22 C           1.0504    2.6277   18.9543 C.ar    1  UNL1        0.0013
     23 C           2.1737    2.8637   19.9199 C.ar    1  UNL1        0.0013
     24 C           3.1658    1.7733   20.1974 C.ar    1  UNL1        0.0145
     25 C           3.0344    0.4469   19.5093 C.ar    1  UNL1        0.0479
     26 C           1.9110    0.2109   18.5437 C.ar    1  UNL1        0.0145
     27 C           0.9190    1.3013   18.2662 C.ar    1  UNL1        0.0013
     28 N           4.0263   -0.6435   19.7867 N.pl3   1  UNL1       -0.3047
     29 C           5.1973   -0.8430   18.8707 C.3     1  UNL1        0.1067
     30 C           6.1893   -1.9334   19.1482 C.3     1  UNL1        0.0774
     31 C           7.3602   -2.1330   18.2322 C.3     1  UNL1        0.0191
     32 N           6.0104   -2.8243   20.3416 N.3     1  UNL1       -0.2709
     33 C           7.0023   -3.9147   20.6191 C.3     1  UNL1        0.0897
     34 C           4.8394   -2.6247   21.2577 C.3     1  UNL1        0.0774
     35 C           4.6604   -3.5156   22.4511 C.3     1  UNL1        0.0191
     36 C           3.8474   -1.5343   20.9802 C.3     1  UNL1        0.1067
@<TRIPOS>BOND
     1    20    21    1
     2    21     8    1
     3     8     9   ar
     4     9    10   ar
     5    10     1    1
     6     1     2   ar
     7     2     3   ar
     8     3     4   ar
     9     4     5   ar
    10     5    22    1
    11    22    23   ar
    12    23    24   ar
    13    24    25   ar
    14    25    28    1
    15    28    29    1
    16    29    30    1
    17    30    31    1
    18    30    32    1
    19    32    33    1
    20    32    34    1
    21    34    35    1
    22    34    36    1
    23    25    26   ar
    24    26    27   ar
    25     5     6   ar
    26     6     7    1
    27    10    11   ar
    28    11    12   ar
    29    12    13    1
    30    12    14   ar
    31    14    15    1
    32    15    16   am
    33    15    17    2
    34    14     8   ar
    35     6     1   ar
    36    27    22   ar
    37    36    28    1
    38    16    18    1
    39    16    19    1
@<TRIPOS>MOLECULE
*****
 36 39 0 0 0
SMALL
GASTEIGER

@<TRIPOS>ATOM
      1 C           6.3347   -3.0053   22.6517 C.ar    1  UNL1        0.0154
      2 C           7.2150   -3.5214   21.5523 C.ar    1  UNL1        0.0985
      3 N           6.9567   -3.1155   20.1316 N.ar    1  UNL1       -0.2423
      4 C           5.8181   -2.1934   19.8102 C.ar    1  UNL1        0.0985
      5 C           4.9378   -1.6772   20.9096 C.ar    1  UNL1        0.0152
      6 C           5.1961   -2.0832   22.3304 C.ar    1  UNL1       -0.0188
      7 C           4.3158   -1.5670   23.4298 C.3     1  UNL1        0.0311
      8 C           6.8693   -5.2699   25.8667 C.ar    1  UNL1        0.1452
      9 C           6.6110   -4.8639   24.4460 C.ar    1  UNL1        0.0372
     10 C           6.5931   -3.4112   24.0725 C.ar    1  UNL1        0.0064
     11 C           6.8336   -2.3646   25.1197 C.ar    1  UNL1        0.0300
     12 C           7.0919   -2.7706   26.5404 C.ar    1  UNL1        0.1474
     13 F           7.3325   -1.7239   27.5876 F       1  UNL1       -0.2039
     14 C           7.1098   -4.2232   26.9138 C.ar    1  UNL1        0.1144
     15 C           7.3682   -4.6292   28.3346 C.2     1  UNL1        0.2479
     16 N           6.4467   -5.5957   29.0178 N.am    1  UNL1       -0.3252
     17 O           8.5479   -4.0687   29.0721 O.2     1  UNL1       -0.2702
     18 H           5.6724   -5.9637   28.5338 H       1  UNL1        0.1453
     19 H           6.6163   -5.8622   29.9503 H       1  UNL1        0.1453
     20 C           7.8458   -7.6586   25.5658 C.3     1  UNL1        0.2525
     21 O           6.8872   -6.7225   26.2401 O.3     1  UNL1       -0.4712
     22 C           3.7991   -0.7551   20.5883 C.ar    1  UNL1        0.0013
     23 C           2.4447   -1.3174   20.2733 C.ar    1  UNL1        0.0013
     24 C           1.3060   -0.3954   19.9519 C.ar    1  UNL1        0.0145
     25 C           1.5218    1.0890   19.9457 C.ar    1  UNL1        0.0479
     26 C           2.8763    1.6513   20.2607 C.ar    1  UNL1        0.0145
     27 C           4.0150    0.7292   20.5821 C.ar    1  UNL1        0.0013
     28 N           0.3832    2.0111   19.6244 N.pl3   1  UNL1       -0.3047
     29 C           0.2925    2.6466   18.2687 C.3     1  UNL1        0.1067
     30 C          -0.8462    3.5687   17.9473 C.3     1  UNL1        0.0774
     31 C          -0.9369    4.2043   16.5917 C.3     1  UNL1        0.0191
     32 N          -1.8941    3.8553   18.9817 N.3     1  UNL1       -0.2709
     33 C          -3.0327    4.7774   18.6604 C.3     1  UNL1        0.0897
     34 C          -1.8033    3.2197   20.3374 C.3     1  UNL1        0.0774
     35 C          -2.8511    3.5063   21.3717 C.3     1  UNL1        0.0191
     36 C          -0.6647    2.2977   20.6587 C.3     1  UNL1        0.1067
@<TRIPOS>BOND
     1    20    21    1
     2    21     8    1
     3     8     9   ar
     4     9    10   ar
     5    10     1    1
     6     1     2   ar
     7     2     3   ar
     8     3     4   ar
     9     4     5   ar
    10     5    22    1
    11    22    23   ar
    12    23    24   ar
    13    24    25   ar
    14    25    28    1
    15    28    29    1
    16    29    30    1
    17    30    31    1
    18    30    32    1
    19    32    33    1
    20    32    34    1
    21    34    35    1
    22    34    36    1
    23    25    26   ar
    24    26    27   ar
    25     5     6   ar
    26     6     7    1
    27    10    11   ar
    28    11    12   ar
    29    12    13    1
    30    12    14   ar
    31    14    15    1
    32    15    16   am
    33    15    17    2
    34    14     8   ar
    35     6     1   ar
    36    27    22   ar
    37    36    28    1
    38    16    18    1
    39    16    19    1
@<TRIPOS>MOLECULE
*****
 36 39 0 0 0
SMALL
GASTEIGER

@<TRIPOS>ATOM
      1 C           1.6637    0.6952   22.7860 C.ar    1  UNL1        0.0154
      2 C           0.5875    1.6896   22.4653 C.ar    1  UNL1        0.0985
      3 N          -0.0733    2.4617   23.5685 N.ar    1  UNL1       -0.2423
      4 C           0.3420    2.2393   24.9927 C.ar    1  UNL1        0.0985
      5 C           1.4182    1.2449   25.3134 C.ar    1  UNL1        0.0152
      6 C           2.0791    0.4728   24.2101 C.ar    1  UNL1       -0.0188
      7 C           3.1553   -0.5216   24.5308 C.3     1  UNL1        0.0311
      8 C           3.8332   -2.0431   20.9032 C.ar    1  UNL1        0.1452
      9 C           3.1724   -1.2711   22.0065 C.ar    1  UNL1        0.0372
     10 C           2.3245   -0.0768   21.6827 C.ar    1  UNL1        0.0064
     11 C           2.1374    0.3454   20.2556 C.ar    1  UNL1        0.0300
     12 C           2.7983   -0.4266   19.1523 C.ar    1  UNL1        0.1474
     13 F           2.6112   -0.0044   17.7251 F       1  UNL1       -0.2039
     14 C           3.6461   -1.6209   19.4761 C.ar    1  UNL1        0.1144
     15 C           4.3069   -2.3929   18.3728 C.2     1  UNL1        0.2479
     16 N           4.2109   -3.8896   18.3429 N.am    1  UNL1       -0.3252
     17 O           5.0637   -1.6683   17.2994 O.2     1  UNL1       -0.2702
     18 H           3.7142   -4.3651   19.0474 H       1  UNL1        0.1453
     19 H           4.6446   -4.3963   17.6187 H       1  UNL1        0.1453
     20 C           4.9921   -3.5710   22.6560 C.3     1  UNL1        0.2525
     21 O           4.6810   -3.2374   21.2271 O.3     1  UNL1       -0.4712
     22 C           1.8336    1.0225   26.7375 C.ar    1  UNL1        0.0013
     23 C           0.9663    0.2112   27.6537 C.ar    1  UNL1        0.0013
     24 C           1.3817   -0.0112   29.0779 C.ar    1  UNL1        0.0145
     25 C           2.6644    0.5776   29.5857 C.ar    1  UNL1        0.0479
     26 C           3.5317    1.3889   28.6693 C.ar    1  UNL1        0.0145
     27 C           3.1164    1.6113   27.2453 C.ar    1  UNL1        0.0013
     28 N           3.0798    0.3552   31.0097 N.pl3   1  UNL1       -0.3047
     29 C           3.7782   -0.9143   31.3976 C.3     1  UNL1        0.1067
     30 C           4.1936   -1.1368   32.8218 C.3     1  UNL1        0.0774
     31 C           4.8920   -2.4063   33.2097 C.3     1  UNL1        0.0191
     32 N           3.9106   -0.0897   33.8578 N.3     1  UNL1       -0.2709
     33 C           4.3260   -0.3121   35.2819 C.3     1  UNL1        0.0897
     34 C           3.2122    1.1799   33.4698 C.3     1  UNL1        0.0774
     35 C           2.9292    2.2270   34.5059 C.3     1  UNL1        0.0191
     36 C           2.7968    1.4023   32.0458 C.3     1  UNL1        0.1067
@<TRIPOS>BOND
     1    20    21    1
     2    21     8    1
     3     8     9   ar
     4     9    10   ar
     5    10     1    1
     6     1     2   ar
     7     2     3   ar
     8     3     4   ar
     9     4     5   ar
    10     5    22    1
    11    22    23   ar
    12    23    24   ar
    13    24    25   ar
    14    25    28    1
    15    28    29    1
    16    29    30    1
    17    30    31    1
    18    30    32    1
    19    32    33    1
    20    32    34    1
    21    34    35    1
    22    34    36    1
    23    25    26   ar
    24    26    27   ar
    25     5     6   ar
    26     6     7    1
    27    10    11   ar
    28    11    12   ar
    29    12    13    1
    30    12    14   ar
    31    14    15    1
    32    15    16   am
    33    15    17    2
    34    14     8   ar
    35     6     1   ar
    36    27    22   ar
    37    36    28    1
    38    16    18    1
    39    16    19    1
