@<TRIPOS>MOLECULE
*****
 32 36 0 0 0
SMALL
GASTEIGER

@<TRIPOS>ATOM
      1 C          -8.9809  -18.4227   21.5917 C.ar    1  UNL1        0.2014
      2 N         -10.2605  -19.1905   21.4396 N.ar    1  UNL1       -0.2136
      3 C         -11.3928  -18.2854   21.8254 C.ar    1  UNL1        0.0999
      4 C         -12.8769  -18.4983   21.8716 C.ar    1  UNL1        0.0207
      5 C         -13.7811  -17.3841   22.3083 C.ar    1  UNL1        0.0016
      6 C         -13.2013  -16.0570   22.6990 C.ar    1  UNL1        0.0016
      7 C         -11.7172  -15.8441   22.6528 C.ar    1  UNL1        0.0188
      8 C         -10.8130  -16.9583   22.2161 C.ar    1  UNL1        0.0801
      9 N          -9.3223  -17.0432   22.0716 N.ar    1  UNL1       -0.2954
     10 C          -4.8441  -19.9840   20.7553 C.3     1  UNL1        0.0610
     11 C          -5.8259  -19.8222   19.6328 C.3     1  UNL1        0.0375
     12 C          -7.2048  -19.3018   19.9116 C.3     1  UNL1        0.0949
     13 N          -7.6020  -18.9432   21.3129 N.pl3   1  UNL1       -0.2794
     14 C          -6.6202  -19.1049   22.4353 C.3     1  UNL1        0.0949
     15 C          -5.2413  -19.6254   22.1565 C.3     1  UNL1        0.0375
     16 C          -3.2470  -21.4966   19.3729 C.3     1  UNL1        0.0896
     17 N          -3.4652  -20.5044   20.4765 N.3     1  UNL1       -0.2727
     18 C          -2.3046  -20.0326   21.3012 C.3     1  UNL1        0.0722
     19 C          -1.7628  -18.6470   21.1102 C.3     1  UNL1        0.0210
     20 C          -2.3421  -17.5016   21.8862 C.3     1  UNL1        0.0335
     21 C          -1.8003  -16.1160   21.6952 C.3     1  UNL1        0.1422
     22 O          -0.6792  -15.8758   20.7281 O.3     1  UNL1       -0.3538
     23 C          -0.0998  -17.0212   19.9520 C.3     1  UNL1        0.1422
     24 C          -0.6416  -18.4068   20.1430 C.3     1  UNL1        0.0335
     25 C          -8.3448  -15.9419   22.3570 C.3     1  UNL1        0.1354
     26 C          -7.8306  -15.7380   23.7511 C.ar    1  UNL1        0.0006
     27 C          -8.7885  -15.6913   24.9046 C.ar    1  UNL1       -0.0001
     28 C          -8.2743  -15.4874   26.2988 C.ar    1  UNL1        0.0294
     29 C          -6.8021  -15.3303   26.5397 C.ar    1  UNL1        0.1401
     30 F          -6.2879  -15.1264   27.9340 F       1  UNL1       -0.2042
     31 C          -5.8442  -15.3770   25.3864 C.ar    1  UNL1        0.0294
     32 C          -6.3584  -15.5808   23.9921 C.ar    1  UNL1       -0.0001
@<TRIPOS>BOND
     1    16    17    1
     2    17    18    1
     3    18    19    1
     4    19    20    1
     5    20    21    1
     6    21    22    1
     7    22    23    1
     8    23    24    1
     9    17    10    1
    10    10    11    1
    11    11    12    1
    12    12    13    1
    13    13     1    1
    14     1     2   ar
    15     2     3   ar
    16     3     4   ar
    17     4     5   ar
    18     5     6   ar
    19     6     7   ar
    20     7     8   ar
    21     8     9   ar
    22     9    25    1
    23    25    26    1
    24    26    27   ar
    25    27    28   ar
    26    28    29   ar
    27    29    30    1
    28    29    31   ar
    29    31    32   ar
    30    13    14    1
    31    14    15    1
    32    24    19    1
    33    15    10    1
    34     9     1   ar
    35    32    26   ar
    36     8     3   ar
@<TRIPOS>MOLECULE
*****
 32 36 0 0 0
SMALL
GASTEIGER

@<TRIPOS>ATOM
      1 C         -14.6404   -2.9649   17.8879 C.ar    1  UNL1        0.2014
      2 N         -14.6916   -1.5312   18.3258 N.ar    1  UNL1       -0.2136
      3 C         -13.4204   -0.8668   17.8872 C.ar    1  UNL1        0.0999
      4 C         -12.9167    0.5376   18.0418 C.ar    1  UNL1        0.0207
      5 C         -11.5762    0.9190   17.4874 C.ar    1  UNL1        0.0016
      6 C         -10.7392   -0.1041   16.7783 C.ar    1  UNL1        0.0016
      7 C         -11.2428   -1.5086   16.6237 C.ar    1  UNL1        0.0188
      8 C         -12.5834   -1.8899   17.1781 C.ar    1  UNL1        0.0801
      9 N         -13.3374   -3.1866   17.1786 N.ar    1  UNL1       -0.2954
     10 C         -17.8347   -6.0579   18.5803 C.3     1  UNL1        0.0610
     11 C         -17.7794   -5.3155   17.2782 C.3     1  UNL1        0.0375
     12 C         -16.7146   -4.2845   17.0474 C.3     1  UNL1        0.0949
     13 N         -15.7052   -3.9959   18.1187 N.pl3   1  UNL1       -0.2794
     14 C         -15.7605   -4.7384   19.4208 C.3     1  UNL1        0.0949
     15 C         -16.8253   -5.7694   19.6517 C.3     1  UNL1        0.0375
     16 C         -19.9905   -6.8304   19.8075 C.3     1  UNL1        0.0896
     17 N         -18.8995   -7.0890   18.8111 N.3     1  UNL1       -0.2727
     18 C         -18.8733   -8.3786   18.0456 C.3     1  UNL1        0.0722
     19 C         -17.6611   -9.2603   18.1028 C.3     1  UNL1        0.0210
     20 C         -16.3241   -8.7254   17.6830 C.3     1  UNL1        0.0335
     21 C         -15.1120   -9.6071   17.7403 C.3     1  UNL1        0.1422
     22 O         -15.2368  -11.0237   18.2173 O.3     1  UNL1       -0.3538
     23 C         -16.5739  -11.5587   18.6372 C.3     1  UNL1        0.1422
     24 C         -17.7860  -10.6770   18.5799 C.3     1  UNL1        0.0335
     25 C         -12.8705   -4.4782   16.5755 C.3     1  UNL1        0.1354
     26 C         -11.8575   -5.3188   17.2946 C.ar    1  UNL1        0.0006
     27 C         -11.7056   -6.7704   16.9483 C.ar    1  UNL1       -0.0001
     28 C         -10.6926   -7.6110   17.6674 C.ar    1  UNL1        0.0294
     29 C          -9.8316   -7.0001   18.7330 C.ar    1  UNL1        0.1401
     30 F          -8.8186   -7.8408   19.4521 F       1  UNL1       -0.2042
     31 C          -9.9835   -5.5486   19.0794 C.ar    1  UNL1        0.0294
     32 C         -10.9965   -4.7080   18.3602 C.ar    1  UNL1       -0.0001
@<TRIPOS>BOND
     1    16    17    1
     2    17    18    1
     3    18    19    1
     4    19    20    1
     5    20    21    1
     6    21    22    1
     7    22    23    1
     8    23    24    1
     9    17    10    1
    10    10    11    1
    11    11    12    1
    12    12    13    1
    13    13     1    1
    14     1     2   ar
    15     2     3   ar
    16     3     4   ar
    17     4     5   ar
    18     5     6   ar
    19     6     7   ar
    20     7     8   ar
    21     8     9   ar
    22     9    25    1
    23    25    26    1
    24    26    27   ar
    25    27    28   ar
    26    28    29   ar
    27    29    30    1
    28    29    31   ar
    29    31    32   ar
    30    13    14    1
    31    14    15    1
    32    24    19    1
    33    15    10    1
    34     9     1   ar
    35    32    26   ar
    36     8     3   ar
@<TRIPOS>MOLECULE
*****
 32 36 0 0 0
SMALL
GASTEIGER

@<TRIPOS>ATOM
      1 C          -1.3736    2.7390   20.8278 C.ar    1  UNL1        0.2014
      2 N          -2.7162    2.8675   20.1714 N.ar    1  UNL1       -0.2136
      3 C          -3.5921    3.6945   21.0653 C.ar    1  UNL1        0.0999
      4 C          -5.0157    4.1485   20.9347 C.ar    1  UNL1        0.0207
      5 C          -5.6380    4.9851   22.0129 C.ar    1  UNL1        0.0016
      6 C          -4.8367    5.3677   23.2219 C.ar    1  UNL1        0.0016
      7 C          -3.4131    4.9137   23.3525 C.ar    1  UNL1        0.0188
      8 C          -2.7908    4.0771   22.2742 C.ar    1  UNL1        0.0801
      9 N          -1.4197    3.4866   22.1274 N.ar    1  UNL1       -0.2954
     10 C           2.1701    0.5035   19.1864 C.3     1  UNL1        0.0610
     11 C           1.8135    1.8523   18.6355 C.3     1  UNL1        0.0375
     12 C           0.6322    2.5975   19.1827 C.3     1  UNL1        0.0949
     13 N          -0.1924    1.9939   20.2807 N.pl3   1  UNL1       -0.2794
     14 C           0.1643    0.6451   20.8315 C.3     1  UNL1        0.0949
     15 C           1.3455   -0.1001   20.2844 C.3     1  UNL1        0.0375
     16 C           3.4832   -0.4569   17.1607 C.3     1  UNL1        0.0896
     17 N           3.3514   -0.2416   18.6393 N.3     1  UNL1       -0.2727
     18 C           4.4009   -0.7716   19.5707 C.3     1  UNL1        0.0722
     19 C           4.3040   -2.1760   20.0887 C.3     1  UNL1        0.0210
     20 C           4.6364   -2.4717   21.5211 C.3     1  UNL1        0.0335
     21 C           4.5395   -3.8761   22.0391 C.3     1  UNL1        0.1422
     22 O           4.1101   -4.9848   21.1246 O.3     1  UNL1       -0.3538
     23 C           3.7776   -4.6891   19.6920 C.3     1  UNL1        0.1422
     24 C           3.8746   -3.2847   19.1741 C.3     1  UNL1        0.0335
     25 C          -0.2926    3.6202   23.1081 C.3     1  UNL1        0.1354
     26 C          -0.4098    3.0097   24.4732 C.ar    1  UNL1        0.0006
     27 C           0.1152    1.6271   24.7240 C.ar    1  UNL1       -0.0001
     28 C          -0.0019    1.0165   26.0891 C.ar    1  UNL1        0.0294
     29 C          -0.6441    1.7885   27.2034 C.ar    1  UNL1        0.1401
     30 F          -0.7612    1.1779   28.5685 F       1  UNL1       -0.2042
     31 C          -1.1690    3.1711   26.9526 C.ar    1  UNL1        0.0294
     32 C          -1.0519    3.7817   25.5875 C.ar    1  UNL1       -0.0001
@<TRIPOS>BOND
     1    16    17    1
     2    17    18    1
     3    18    19    1
     4    19    20    1
     5    20    21    1
     6    21    22    1
     7    22    23    1
     8    23    24    1
     9    17    10    1
    10    10    11    1
    11    11    12    1
    12    12    13    1
    13    13     1    1
    14     1     2   ar
    15     2     3   ar
    16     3     4   ar
    17     4     5   ar
    18     5     6   ar
    19     6     7   ar
    20     7     8   ar
    21     8     9   ar
    22     9    25    1
    23    25    26    1
    24    26    27   ar
    25    27    28   ar
    26    28    29   ar
    27    29    30    1
    28    29    31   ar
    29    31    32   ar
    30    13    14    1
    31    14    15    1
    32    24    19    1
    33    15    10    1
    34     9     1   ar
    35    32    26   ar
    36     8     3   ar
@<TRIPOS>MOLECULE
*****
 32 36 0 0 0
SMALL
GASTEIGER

@<TRIPOS>ATOM
      1 C           6.3668   -2.6605   31.5849 C.ar    1  UNL1        0.2014
      2 N           6.7668   -4.1058   31.5506 N.ar    1  UNL1       -0.2136
      3 C           6.8353   -4.5339   30.1146 C.ar    1  UNL1        0.0999
      4 C           7.1771   -5.8463   29.4738 C.ar    1  UNL1        0.0207
      5 C           7.1613   -5.9779   27.9797 C.ar    1  UNL1        0.0016
      6 C           6.8037   -4.7972   27.1265 C.ar    1  UNL1        0.0016
      7 C           6.4619   -3.4848   27.7673 C.ar    1  UNL1        0.0188
      8 C           6.4777   -3.3532   29.2614 C.ar    1  UNL1        0.0801
      9 N           6.1882   -2.1954   30.1701 N.ar    1  UNL1       -0.2954
     10 C           5.8022   -0.1593   35.2829 C.3     1  UNL1        0.0610
     11 C           7.0962   -0.0987   34.5269 C.3     1  UNL1        0.0375
     12 C           7.2845   -0.9325   33.2942 C.3     1  UNL1        0.0949
     13 N           6.1786   -1.8268   32.8176 N.pl3   1  UNL1       -0.2794
     14 C           4.8846   -1.8874   33.5737 C.3     1  UNL1        0.0949
     15 C           4.6963   -1.0537   34.8063 C.3     1  UNL1        0.0375
     16 C           6.6466    1.6934   36.8967 C.3     1  UNL1        0.0896
     17 N           5.6140    0.6744   36.5156 N.3     1  UNL1       -0.2727
     18 C           4.3931    0.4891   37.3672 C.3     1  UNL1        0.0722
     19 C           3.3281    1.5451   37.3911 C.3     1  UNL1        0.0210
     20 C           2.4385    1.6860   38.5906 C.3     1  UNL1        0.0335
     21 C           1.3734    2.7420   38.6145 C.3     1  UNL1        0.1422
     22 O           1.1980    3.6570   37.4390 O.3     1  UNL1       -0.3538
     23 C           2.0876    3.5161   36.2395 C.3     1  UNL1        0.1422
     24 C           3.1526    2.4602   36.2155 C.3     1  UNL1        0.0335
     25 C           5.7899   -0.8148   29.7396 C.3     1  UNL1        0.1354
     26 C           4.3430   -0.4195   29.7325 C.ar    1  UNL1        0.0006
     27 C           3.4656   -0.8057   28.5787 C.ar    1  UNL1       -0.0001
     28 C           2.0186   -0.4104   28.5716 C.ar    1  UNL1        0.0294
     29 C           1.4490    0.3711   29.7183 C.ar    1  UNL1        0.1401
     30 F           0.0021    0.7664   29.7112 F       1  UNL1       -0.2042
     31 C           2.3264    0.7573   30.8720 C.ar    1  UNL1        0.0294
     32 C           3.7734    0.3620   30.8792 C.ar    1  UNL1       -0.0001
@<TRIPOS>BOND
     1    16    17    1
     2    17    18    1
     3    18    19    1
     4    19    20    1
     5    20    21    1
     6    21    22    1
     7    22    23    1
     8    23    24    1
     9    17    10    1
    10    10    11    1
    11    11    12    1
    12    12    13    1
    13    13     1    1
    14     1     2   ar
    15     2     3   ar
    16     3     4   ar
    17     4     5   ar
    18     5     6   ar
    19     6     7   ar
    20     7     8   ar
    21     8     9   ar
    22     9    25    1
    23    25    26    1
    24    26    27   ar
    25    27    28   ar
    26    28    29   ar
    27    29    30    1
    28    29    31   ar
    29    31    32   ar
    30    13    14    1
    31    14    15    1
    32    24    19    1
    33    15    10    1
    34     9     1   ar
    35    32    26   ar
    36     8     3   ar
@<TRIPOS>MOLECULE
*****
 32 36 0 0 0
SMALL
GASTEIGER

@<TRIPOS>ATOM
      1 C           6.5658   -3.6033   23.9651 C.ar    1  UNL1        0.2014
      2 N           6.6175   -4.4717   25.1870 N.ar    1  UNL1       -0.2136
      3 C           7.5327   -5.6245   24.8981 C.ar    1  UNL1        0.0999
      4 C           7.9645   -6.7960   25.7293 C.ar    1  UNL1        0.0207
      5 C           8.9102   -7.8116   25.1600 C.ar    1  UNL1        0.0016
      6 C           9.4242   -7.6556   23.7594 C.ar    1  UNL1        0.0016
      7 C           8.9924   -6.4841   22.9282 C.ar    1  UNL1        0.0188
      8 C           8.0467   -5.4685   23.4975 C.ar    1  UNL1        0.0801
      9 N           7.4491   -4.2193   22.9210 N.ar    1  UNL1       -0.2954
     10 C           4.1798    0.1851   23.5115 C.3     1  UNL1        0.0610
     11 C           5.6393    0.2540   23.8508 C.3     1  UNL1        0.0375
     12 C           6.4346   -1.0088   24.0020 C.3     1  UNL1        0.0949
     13 N           5.7705   -2.3405   23.8139 N.pl3   1  UNL1       -0.2794
     14 C           4.3110   -2.4094   23.4746 C.3     1  UNL1        0.0949
     15 C           3.5157   -1.1466   23.3233 C.3     1  UNL1        0.0375
     16 C           2.6163    1.9946   24.5268 C.3     1  UNL1        0.0896
     17 N           3.3845    1.4478   23.3603 N.3     1  UNL1       -0.2727
     18 C           3.3574    2.1639   22.0425 C.3     1  UNL1        0.0722
     19 C           2.4808    1.6615   20.9338 C.3     1  UNL1        0.0210
     20 C           2.7857    2.0285   19.5118 C.3     1  UNL1        0.0335
     21 C           1.9091    1.5261   18.4031 C.3     1  UNL1        0.1422
     22 O           0.7275    0.6569   18.7165 O.3     1  UNL1       -0.3538
     23 C           0.4226    0.2899   20.1386 C.3     1  UNL1        0.1422
     24 C           1.2992    0.7922   21.2473 C.3     1  UNL1        0.0335
     25 C           7.6921   -3.6808   21.5422 C.3     1  UNL1        0.1354
     26 C           6.5569   -3.0987   20.7535 C.ar    1  UNL1        0.0006
     27 C           5.4181   -3.9738   20.3204 C.ar    1  UNL1       -0.0001
     28 C           4.2827   -3.3917   19.5316 C.ar    1  UNL1        0.0294
     29 C           4.2862   -1.9345   19.1758 C.ar    1  UNL1        0.1401
     30 F           3.1508   -1.3524   18.3870 F       1  UNL1       -0.2042
     31 C           5.4249   -1.0594   19.6088 C.ar    1  UNL1        0.0294
     32 C           6.5602   -1.6415   20.3976 C.ar    1  UNL1       -0.0001
@<TRIPOS>BOND
     1    16    17    1
     2    17    18    1
     3    18    19    1
     4    19    20    1
     5    20    21    1
     6    21    22    1
     7    22    23    1
     8    23    24    1
     9    17    10    1
    10    10    11    1
    11    11    12    1
    12    12    13    1
    13    13     1    1
    14     1     2   ar
    15     2     3   ar
    16     3     4   ar
    17     4     5   ar
    18     5     6   ar
    19     6     7   ar
    20     7     8   ar
    21     8     9   ar
    22     9    25    1
    23    25    26    1
    24    26    27   ar
    25    27    28   ar
    26    28    29   ar
    27    29    30    1
    28    29    31   ar
    29    31    32   ar
    30    13    14    1
    31    14    15    1
    32    24    19    1
    33    15    10    1
    34     9     1   ar
    35    32    26   ar
    36     8     3   ar
@<TRIPOS>MOLECULE
*****
 32 36 0 0 0
SMALL
GASTEIGER

@<TRIPOS>ATOM
      1 C           4.6681    0.1019   35.1221 C.ar    1  UNL1        0.2014
      2 N           4.3684   -0.1439   36.5711 N.ar    1  UNL1       -0.2136
      3 C           3.5992    1.0340   37.0918 C.ar    1  UNL1        0.0999
      4 C           3.0361    1.3456   38.4466 C.ar    1  UNL1        0.0207
      5 C           2.2974    2.6310   38.6742 C.ar    1  UNL1        0.0016
      6 C           2.1218    3.6049   37.5469 C.ar    1  UNL1        0.0016
      7 C           2.6848    3.2932   36.1920 C.ar    1  UNL1        0.0188
      8 C           3.4236    2.0078   35.9645 C.ar    1  UNL1        0.0801
      9 N           4.0841    1.4317   34.7472 N.ar    1  UNL1       -0.2954
     10 C           6.9229   -2.6644   32.3811 C.3     1  UNL1        0.0610
     11 C           7.6232   -1.4962   33.0094 C.3     1  UNL1        0.0375
     12 C           6.8715   -0.5741   33.9231 C.3     1  UNL1        0.0949
     13 N           5.4197   -0.8202   34.2084 N.pl3   1  UNL1       -0.2794
     14 C           4.7195   -1.9885   33.5801 C.3     1  UNL1        0.0949
     15 C           5.4711   -2.9106   32.6665 C.3     1  UNL1        0.0375
     16 C           8.9593   -3.1357   30.8380 C.3     1  UNL1        0.0896
     17 N           7.6746   -3.5865   31.4674 N.3     1  UNL1       -0.2727
     18 C           7.1415   -4.9595   31.1832 C.3     1  UNL1        0.0722
     19 C           7.2862   -5.5513   29.8125 C.3     1  UNL1        0.0210
     20 C           8.3256   -6.6016   29.5550 C.3     1  UNL1        0.0335
     21 C           8.4703   -7.1934   28.1843 C.3     1  UNL1        0.1422
     22 O           7.5755   -6.7350   27.0711 O.3     1  UNL1       -0.3538
     23 C           6.5360   -5.6846   27.3287 C.3     1  UNL1        0.1422
     24 C           6.3913   -5.0928   28.6994 C.3     1  UNL1        0.0335
     25 C           4.1493    2.0729   33.3927 C.3     1  UNL1        0.1354
     26 C           3.9953    1.2352   32.1581 C.ar    1  UNL1        0.0006
     27 C           5.1517    1.0655   31.2177 C.ar    1  UNL1       -0.0001
     28 C           4.9977    0.2277   29.9830 C.ar    1  UNL1        0.0294
     29 C           3.6872   -0.4402   29.6886 C.ar    1  UNL1        0.1401
     30 F           3.5333   -1.2780   28.4539 F       1  UNL1       -0.2042
     31 C           2.5309   -0.2705   30.6289 C.ar    1  UNL1        0.0294
     32 C           2.6849    0.5672   31.8636 C.ar    1  UNL1       -0.0001
@<TRIPOS>BOND
     1    16    17    1
     2    17    18    1
     3    18    19    1
     4    19    20    1
     5    20    21    1
     6    21    22    1
     7    22    23    1
     8    23    24    1
     9    17    10    1
    10    10    11    1
    11    11    12    1
    12    12    13    1
    13    13     1    1
    14     1     2   ar
    15     2     3   ar
    16     3     4   ar
    17     4     5   ar
    18     5     6   ar
    19     6     7   ar
    20     7     8   ar
    21     8     9   ar
    22     9    25    1
    23    25    26    1
    24    26    27   ar
    25    27    28   ar
    26    28    29   ar
    27    29    30    1
    28    29    31   ar
    29    31    32   ar
    30    13    14    1
    31    14    15    1
    32    24    19    1
    33    15    10    1
    34     9     1   ar
    35    32    26   ar
    36     8     3   ar
@<TRIPOS>MOLECULE
*****
 32 36 0 0 0
SMALL
GASTEIGER

@<TRIPOS>ATOM
      1 C           7.3595   -4.5152   23.5419 C.ar    1  UNL1        0.2014
      2 N           7.6569   -5.9810   23.4282 N.ar    1  UNL1       -0.2136
      3 C           8.2233   -6.4421   24.7384 C.ar    1  UNL1        0.0999
      4 C           8.6978   -7.7847   25.2098 C.ar    1  UNL1        0.0207
      5 C           9.2251   -7.9464   26.6047 C.ar    1  UNL1        0.0016
      6 C           9.2777   -6.7655   27.5282 C.ar    1  UNL1        0.0016
      7 C           8.8031   -5.4230   27.0568 C.ar    1  UNL1        0.0188
      8 C           8.2759   -5.2613   25.6619 C.ar    1  UNL1        0.0801
      9 N           7.7421   -4.0704   24.9224 N.ar    1  UNL1       -0.2954
     10 C           5.6243   -1.9096   20.3092 C.3     1  UNL1        0.0610
     11 C           7.0871   -1.8307   20.6317 C.3     1  UNL1        0.0375
     12 C           7.6655   -2.6992   21.7092 C.3     1  UNL1        0.0949
     13 N           6.7811   -3.6466   22.4644 N.pl3   1  UNL1       -0.2794
     14 C           5.3183   -3.7255   22.1419 C.3     1  UNL1        0.0949
     15 C           4.7399   -2.8570   21.0644 C.3     1  UNL1        0.0375
     16 C           5.8284    0.1270   18.7091 C.3     1  UNL1        0.0896
     17 N           5.0459   -1.0411   19.2317 N.3     1  UNL1       -0.2727
     18 C           3.6850   -1.3407   18.6766 C.3     1  UNL1        0.0722
     19 C           2.5177   -0.4731   19.0436 C.3     1  UNL1        0.0210
     20 C           2.2132    0.7547   18.2375 C.3     1  UNL1        0.0335
     21 C           1.0459    1.6223   18.6044 C.3     1  UNL1        0.1422
     22 O           0.1831    1.2622   19.7774 O.3     1  UNL1       -0.3538
     23 C           0.4876    0.0343   20.5835 C.3     1  UNL1        0.1422
     24 C           1.6549   -0.8333   20.2166 C.3     1  UNL1        0.0335
     25 C           7.6134   -2.6790   25.4678 C.3     1  UNL1        0.1354
     26 C           6.3222   -2.2324   26.0868 C.ar    1  UNL1        0.0006
     27 C           6.1681   -2.2271   27.5789 C.ar    1  UNL1       -0.0001
     28 C           4.8769   -1.7806   28.1981 C.ar    1  UNL1        0.0294
     29 C           3.7397   -1.3393   27.3250 C.ar    1  UNL1        0.1401
     30 F           2.4485   -0.8927   27.9442 F       1  UNL1       -0.2042
     31 C           3.8938   -1.3445   25.8330 C.ar    1  UNL1        0.0294
     32 C           5.1850   -1.7911   25.2139 C.ar    1  UNL1       -0.0001
@<TRIPOS>BOND
     1    16    17    1
     2    17    18    1
     3    18    19    1
     4    19    20    1
     5    20    21    1
     6    21    22    1
     7    22    23    1
     8    23    24    1
     9    17    10    1
    10    10    11    1
    11    11    12    1
    12    12    13    1
    13    13     1    1
    14     1     2   ar
    15     2     3   ar
    16     3     4   ar
    17     4     5   ar
    18     5     6   ar
    19     6     7   ar
    20     7     8   ar
    21     8     9   ar
    22     9    25    1
    23    25    26    1
    24    26    27   ar
    25    27    28   ar
    26    28    29   ar
    27    29    30    1
    28    29    31   ar
    29    31    32   ar
    30    13    14    1
    31    14    15    1
    32    24    19    1
    33    15    10    1
    34     9     1   ar
    35    32    26   ar
    36     8     3   ar
@<TRIPOS>MOLECULE
*****
 32 36 0 0 0
SMALL
GASTEIGER

@<TRIPOS>ATOM
      1 C           6.5863   -3.4387   25.0983 C.ar    1  UNL1        0.2014
      2 N           6.8702   -4.5024   26.1172 N.ar    1  UNL1       -0.2136
      3 C           7.6413   -5.5974   25.4417 C.ar    1  UNL1        0.0999
      4 C           8.1928   -6.8968   25.9490 C.ar    1  UNL1        0.0207
      5 C           8.9371   -7.8093   25.0198 C.ar    1  UNL1        0.0016
      6 C           9.1298   -7.4225   23.5835 C.ar    1  UNL1        0.0016
      7 C           8.5783   -6.1231   23.0762 C.ar    1  UNL1        0.0188
      8 C           7.8340   -5.2106   24.0053 C.ar    1  UNL1        0.0801
      9 N           7.1820   -3.8764   23.7931 N.ar    1  UNL1       -0.2954
     10 C           4.3419    0.3925   25.8290 C.3     1  UNL1        0.0610
     11 C           5.7126    0.2041   26.4083 C.3     1  UNL1        0.0375
     12 C           6.4607   -1.0730   26.1648 C.3     1  UNL1        0.0949
     13 N           5.8382   -2.1616   25.3418 N.pl3   1  UNL1       -0.2794
     14 C           4.4675   -1.9732   24.7625 C.3     1  UNL1        0.0949
     15 C           3.7194   -0.6961   25.0060 C.3     1  UNL1        0.0375
     16 C           4.3453    2.9394   26.3422 C.3     1  UNL1        0.0896
     17 N           3.5937    1.6696   26.0725 N.3     1  UNL1       -0.2727
     18 C           2.0940    1.6769   26.0464 C.3     1  UNL1        0.0722
     19 C           1.3211    1.0701   27.1797 C.3     1  UNL1        0.0210
     20 C           2.0478    0.4283   28.3242 C.3     1  UNL1        0.0335
     21 C           1.2749   -0.1785   29.4576 C.3     1  UNL1        0.1422
     22 O          -0.2246   -0.1434   29.4464 O.3     1  UNL1       -0.3538
     23 C          -0.9513    0.4984   28.3018 C.3     1  UNL1        0.1422
     24 C          -0.1785    1.1052   27.1685 C.3     1  UNL1        0.0335
     25 C           7.1342   -3.1139   22.5023 C.3     1  UNL1        0.1354
     26 C           6.0988   -3.4501   21.4704 C.ar    1  UNL1        0.0006
     27 C           6.3832   -3.2117   20.0170 C.ar    1  UNL1       -0.0001
     28 C           5.3478   -3.5479   18.9851 C.ar    1  UNL1        0.0294
     29 C           4.0279   -4.1227   19.4066 C.ar    1  UNL1        0.1401
     30 F           2.9925   -4.4589   18.3746 F       1  UNL1       -0.2042
     31 C           3.7435   -4.3611   20.8599 C.ar    1  UNL1        0.0294
     32 C           4.7789   -4.0249   21.8918 C.ar    1  UNL1       -0.0001
@<TRIPOS>BOND
     1    16    17    1
     2    17    18    1
     3    18    19    1
     4    19    20    1
     5    20    21    1
     6    21    22    1
     7    22    23    1
     8    23    24    1
     9    17    10    1
    10    10    11    1
    11    11    12    1
    12    12    13    1
    13    13     1    1
    14     1     2   ar
    15     2     3   ar
    16     3     4   ar
    17     4     5   ar
    18     5     6   ar
    19     6     7   ar
    20     7     8   ar
    21     8     9   ar
    22     9    25    1
    23    25    26    1
    24    26    27   ar
    25    27    28   ar
    26    28    29   ar
    27    29    30    1
    28    29    31   ar
    29    31    32   ar
    30    13    14    1
    31    14    15    1
    32    24    19    1
    33    15    10    1
    34     9     1   ar
    35    32    26   ar
    36     8     3   ar
@<TRIPOS>MOLECULE
*****
 32 36 0 0 0
SMALL
GASTEIGER

@<TRIPOS>ATOM
      1 C           2.8924    0.4164   22.0991 C.ar    1  UNL1        0.2014
      2 N           1.5842    1.0547   22.4614 N.ar    1  UNL1       -0.2136
      3 C           1.0018    1.6568   21.2171 C.ar    1  UNL1        0.0999
      4 C          -0.2694    2.4131   20.9681 C.ar    1  UNL1        0.0207
      5 C          -0.5923    2.9031   19.5877 C.ar    1  UNL1        0.0016
      6 C           0.3559    2.6369   18.4563 C.ar    1  UNL1        0.0016
      7 C           1.6271    1.8806   18.7054 C.ar    1  UNL1        0.0188
      8 C           1.9501    1.3906   20.0857 C.ar    1  UNL1        0.0801
      9 N           3.1185    0.6239   20.6309 N.ar    1  UNL1       -0.2954
     10 C           5.6536   -1.7424   24.9214 C.3     1  UNL1        0.0610
     11 C           4.7798   -2.5220   23.9841 C.3     1  UNL1        0.0375
     12 C           3.8594   -1.8025   23.0434 C.3     1  UNL1        0.0949
     13 N           3.8128   -0.3032   23.0399 N.pl3   1  UNL1       -0.2794
     14 C           4.6866    0.4764   23.9772 C.3     1  UNL1        0.0949
     15 C           5.6070   -0.2431   24.9180 C.3     1  UNL1        0.0375
     16 C           6.1353   -2.7494   27.2674 C.3     1  UNL1        0.0896
     17 N           6.5741   -2.4619   25.8622 N.3     1  UNL1       -0.2727
     18 C           7.9332   -2.8941   25.3977 C.3     1  UNL1        0.0722
     19 C           8.0738   -4.0810   24.4913 C.3     1  UNL1        0.0210
     20 C           7.9349   -5.4681   25.0449 C.3     1  UNL1        0.0335
     21 C           8.0755   -6.6549   24.1385 C.3     1  UNL1        0.1422
     22 O           8.3550   -6.4547   22.6784 O.3     1  UNL1       -0.3538
     23 C           8.4939   -5.0675   22.1248 C.3     1  UNL1        0.1422
     24 C           8.3533   -3.8806   23.0312 C.3     1  UNL1        0.0335
     25 C           4.3047    0.1484   19.8456 C.3     1  UNL1        0.1354
     26 C           4.4337   -1.3021   19.4862 C.ar    1  UNL1        0.0006
     27 C           5.7566   -1.8490   19.0378 C.ar    1  UNL1       -0.0001
     28 C           5.8857   -3.2995   18.6784 C.ar    1  UNL1        0.0294
     29 C           4.6919   -4.2033   18.7674 C.ar    1  UNL1        0.1401
     30 F           4.8210   -5.6539   18.4080 F       1  UNL1       -0.2042
     31 C           3.3690   -3.6566   19.2158 C.ar    1  UNL1        0.0294
     32 C           3.2399   -2.2060   19.5752 C.ar    1  UNL1       -0.0001
@<TRIPOS>BOND
     1    16    17    1
     2    17    18    1
     3    18    19    1
     4    19    20    1
     5    20    21    1
     6    21    22    1
     7    22    23    1
     8    23    24    1
     9    17    10    1
    10    10    11    1
    11    11    12    1
    12    12    13    1
    13    13     1    1
    14     1     2   ar
    15     2     3   ar
    16     3     4   ar
    17     4     5   ar
    18     5     6   ar
    19     6     7   ar
    20     7     8   ar
    21     8     9   ar
    22     9    25    1
    23    25    26    1
    24    26    27   ar
    25    27    28   ar
    26    28    29   ar
    27    29    30    1
    28    29    31   ar
    29    31    32   ar
    30    13    14    1
    31    14    15    1
    32    24    19    1
    33    15    10    1
    34     9     1   ar
    35    32    26   ar
    36     8     3   ar
