@<TRIPOS>MOLECULE
*****
 31 33 0 0 0
SMALL
GASTEIGER

@<TRIPOS>ATOM
      1 C          -7.2948  -19.7270   20.6844 C.2     1  UNL1        0.2534
      2 O          -7.1095  -18.9097   19.4404 O.2     1  UNL1       -0.2695
      3 N          -6.2981  -20.7906   21.0385 N.am    1  UNL1       -0.2965
      4 H          -6.4198  -21.3270   21.8550 H       1  UNL1        0.1501
      5 C         -14.1034  -17.8408   24.1064 C.3     1  UNL1        0.0537
      6 C         -12.7116  -18.3648   23.9105 C.ar    1  UNL1        0.0771
      7 N         -11.9754  -18.9863   25.0602 N.ar    1  UNL1       -0.1522
      8 N         -10.5836  -19.5102   24.8643 N.ar    1  UNL1       -0.1416
      9 C          -9.9280  -19.4127   23.5188 C.ar    1  UNL1        0.1333
     10 S          -8.5763  -19.8389   23.0276 S.2     1  UNL1       -0.0604
     11 C          -8.4770  -19.4808   21.5744 C.ar    1  UNL1        0.0971
     12 C          -9.7673  -18.8333   21.1673 C.ar    1  UNL1        0.0538
     13 N         -10.1022  -18.3184   19.7989 N.pl3   1  UNL1       -0.3564
     14 C         -10.6641  -18.7912   22.3691 C.ar    1  UNL1        0.0363
     15 C         -12.0559  -18.2673   22.5650 C.ar    1  UNL1       -0.0033
     16 C         -12.7921  -17.6458   21.4152 C.3     1  UNL1        0.0324
     17 H          -9.4438  -18.3916   19.0706 H       1  UNL1        0.1424
     18 H         -10.9804  -17.9071   19.6290 H       1  UNL1        0.1424
     19 C          -5.1160  -21.0367   20.1485 C.3     1  UNL1        0.1166
     20 C          -3.9434  -20.1019   20.1834 C.ar    1  UNL1       -0.0025
     21 C          -3.6299  -19.2472   18.9913 C.ar    1  UNL1       -0.0018
     22 C          -2.4574  -18.3125   19.0261 C.ar    1  UNL1        0.0147
     23 C          -1.5982  -18.2325   20.2531 C.ar    1  UNL1        0.1228
     24 C          -1.9116  -19.0872   21.4452 C.ar    1  UNL1        0.0147
     25 C          -3.0842  -20.0219   21.4103 C.ar    1  UNL1       -0.0018
     26 S          -0.4256  -17.2977   20.2880 S.3     1  UNL1        0.3126
     27 F          -0.2476  -18.7063   19.8042 F       1  UNL1       -0.0934
     28 F           0.9249  -17.7716   19.8390 F       1  UNL1       -0.0934
     29 F          -0.6035  -15.8890   20.7717 F       1  UNL1       -0.0934
     30 F           0.7470  -16.3629   20.3228 F       1  UNL1       -0.0934
     31 F          -1.7761  -16.8238   20.7369 F       1  UNL1       -0.0934
@<TRIPOS>BOND
     1     5     6    1
     2     6     7   ar
     3     7     8   ar
     4     8     9   ar
     5     9    10   ar
     6    10    11   ar
     7    11     1    1
     8     1     2    2
     9     1     3   am
    10     3    19    1
    11    19    20    1
    12    20    21   ar
    13    21    22   ar
    14    22    23   ar
    15    23    26    1
    16    26    27    1
    17    26    28    1
    18    26    29    1
    19    26    30    1
    20    26    31    1
    21    23    24   ar
    22    24    25   ar
    23    11    12   ar
    24    12    13    1
    25    12    14   ar
    26    14    15   ar
    27    15    16    1
    28    15     6   ar
    29    14     9   ar
    30    25    20   ar
    31     3     4    1
    32    13    17    1
    33    13    18    1
@<TRIPOS>MOLECULE
*****
 31 33 0 0 0
SMALL
GASTEIGER

@<TRIPOS>ATOM
      1 C          -7.7816  -19.6883   20.1873 C.2     1  UNL1        0.2534
      2 O          -7.4485  -19.3214   18.7715 O.2     1  UNL1       -0.2695
      3 N          -6.8134  -20.4953   21.0005 N.am    1  UNL1       -0.2965
      4 H          -7.0321  -20.7361   21.9298 H       1  UNL1        0.1501
      5 C         -14.0285  -17.9581   24.6151 C.3     1  UNL1        0.0537
      6 C         -13.1204  -18.0738   23.4269 C.ar    1  UNL1        0.0771
      7 N         -13.5578  -17.5426   22.0941 N.ar    1  UNL1       -0.1522
      8 N         -12.6496  -17.6583   20.9059 N.ar    1  UNL1       -0.1416
      9 C         -11.3040  -18.3051   21.0505 C.ar    1  UNL1        0.1333
     10 S         -10.2016  -18.5596   20.0657 S.2     1  UNL1       -0.0604
     11 C          -9.0828  -19.2481   20.7898 C.ar    1  UNL1        0.0971
     12 C          -9.4938  -19.4190   22.2223 C.ar    1  UNL1        0.0538
     13 N          -8.6757  -20.0602   23.3037 N.pl3   1  UNL1       -0.3564
     14 C         -10.8666  -18.8362   22.3833 C.ar    1  UNL1        0.0363
     15 C         -11.7747  -18.7206   23.5715 C.ar    1  UNL1       -0.0033
     16 C         -11.3373  -19.2517   24.9044 C.3     1  UNL1        0.0324
     17 H          -7.7806  -20.4153   23.0988 H       1  UNL1        0.1424
     18 H          -9.0338  -20.1259   24.2184 H       1  UNL1        0.1424
     19 C          -5.5123  -20.9354   20.3980 C.3     1  UNL1        0.1166
     20 C          -4.3386  -20.0014   20.3831 C.ar    1  UNL1       -0.0025
     21 C          -4.1377  -19.0678   19.2263 C.ar    1  UNL1       -0.0018
     22 C          -2.9641  -18.1339   19.2115 C.ar    1  UNL1        0.0147
     23 C          -1.9914  -18.1335   20.3533 C.ar    1  UNL1        0.1228
     24 C          -2.1922  -19.0670   21.5100 C.ar    1  UNL1        0.0147
     25 C          -3.3659  -20.0010   21.5249 C.ar    1  UNL1       -0.0018
     26 S          -0.8177  -17.1994   20.3384 S.3     1  UNL1        0.3126
     27 F          -0.7347  -18.5194   19.6307 F       1  UNL1       -0.0934
     28 F           0.4388  -17.5853   19.6158 F       1  UNL1       -0.0934
     29 F          -0.9006  -15.8794   21.0461 F       1  UNL1       -0.0934
     30 F           0.3559  -16.2654   20.3235 F       1  UNL1       -0.0934
     31 F          -2.0743  -16.8135   21.0610 F       1  UNL1       -0.0934
@<TRIPOS>BOND
     1     5     6    1
     2     6     7   ar
     3     7     8   ar
     4     8     9   ar
     5     9    10   ar
     6    10    11   ar
     7    11     1    1
     8     1     2    2
     9     1     3   am
    10     3    19    1
    11    19    20    1
    12    20    21   ar
    13    21    22   ar
    14    22    23   ar
    15    23    26    1
    16    26    27    1
    17    26    28    1
    18    26    29    1
    19    26    30    1
    20    26    31    1
    21    23    24   ar
    22    24    25   ar
    23    11    12   ar
    24    12    13    1
    25    12    14   ar
    26    14    15   ar
    27    15    16    1
    28    15     6   ar
    29    14     9   ar
    30    25    20   ar
    31     3     4    1
    32    13    17    1
    33    13    18    1
@<TRIPOS>MOLECULE
*****
 31 33 0 0 0
SMALL
GASTEIGER

@<TRIPOS>ATOM
      1 C           3.8017    0.0900   25.4987 C.2     1  UNL1        0.2534
      2 O           4.9348    0.8849   24.9206 O.2     1  UNL1       -0.2695
      3 N           2.6948   -0.3940   24.6096 N.am    1  UNL1       -0.2965
      4 H           1.9511   -0.9157   24.9890 H       1  UNL1        0.1501
      5 C           5.1436   -1.7713   33.0059 C.3     1  UNL1        0.0537
      6 C           4.4281   -1.3701   31.7501 C.ar    1  UNL1        0.0771
      7 N           2.9518   -1.1065   31.7796 N.ar    1  UNL1       -0.1522
      8 N           2.2363   -0.7053   30.5238 N.ar    1  UNL1       -0.1416
      9 C           2.9971   -0.5678   29.2384 C.ar    1  UNL1        0.1333
     10 S           2.5658   -0.1906   27.8522 S.2     1  UNL1       -0.0604
     11 C           3.7756   -0.2211   26.9659 C.ar    1  UNL1        0.0971
     12 C           4.9546   -0.6172   27.8044 C.ar    1  UNL1        0.0538
     13 N           6.3668   -0.7718   27.3229 N.pl3   1  UNL1       -0.3564
     14 C           4.4734   -0.8315   29.2089 C.ar    1  UNL1        0.0363
     15 C           5.1889   -1.2326   30.4648 C.ar    1  UNL1       -0.0033
     16 C           6.6653   -1.4963   30.4352 C.3     1  UNL1        0.0324
     17 H           6.5851   -0.6081   26.3770 H       1  UNL1        0.1424
     18 H           7.0753   -1.0370   27.9529 H       1  UNL1        0.1424
     19 C           2.7210   -0.0829   23.1425 C.3     1  UNL1        0.1166
     20 C           3.1354   -1.1375   22.1595 C.ar    1  UNL1       -0.0025
     21 C           4.0208   -2.2658   22.5987 C.ar    1  UNL1       -0.0018
     22 C           4.4351   -3.3204   21.6157 C.ar    1  UNL1        0.0147
     23 C           3.9640   -3.2466   20.1935 C.ar    1  UNL1        0.1228
     24 C           3.0786   -2.1183   19.7543 C.ar    1  UNL1        0.0147
     25 C           2.6643   -1.0638   20.7373 C.ar    1  UNL1       -0.0018
     26 S           4.3784   -4.3012   19.2105 S.3     1  UNL1        0.3126
     27 F           4.7894   -2.8744   18.9975 F       1  UNL1       -0.0934
     28 F           5.2037   -3.9289   18.0146 F       1  UNL1       -0.0934
     29 F           3.9674   -5.7280   19.4236 F       1  UNL1       -0.0934
     30 F           4.7927   -5.3557   18.2276 F       1  UNL1       -0.0934
     31 F           3.5531   -4.6734   20.4066 F       1  UNL1       -0.0934
@<TRIPOS>BOND
     1     5     6    1
     2     6     7   ar
     3     7     8   ar
     4     8     9   ar
     5     9    10   ar
     6    10    11   ar
     7    11     1    1
     8     1     2    2
     9     1     3   am
    10     3    19    1
    11    19    20    1
    12    20    21   ar
    13    21    22   ar
    14    22    23   ar
    15    23    26    1
    16    26    27    1
    17    26    28    1
    18    26    29    1
    19    26    30    1
    20    26    31    1
    21    23    24   ar
    22    24    25   ar
    23    11    12   ar
    24    12    13    1
    25    12    14   ar
    26    14    15   ar
    27    15    16    1
    28    15     6   ar
    29    14     9   ar
    30    25    20   ar
    31     3     4    1
    32    13    17    1
    33    13    18    1
@<TRIPOS>MOLECULE
*****
 31 33 0 0 0
SMALL
GASTEIGER

@<TRIPOS>ATOM
      1 C          -0.5825    3.1231   19.6420 C.2     1  UNL1        0.2534
      2 O          -0.5138    3.8399   18.3261 O.2     1  UNL1       -0.2695
      3 N           0.5180    2.1866   20.0442 N.am    1  UNL1       -0.2965
      4 H           0.4729    1.7162   20.9078 H       1  UNL1        0.1501
      5 C          -7.4881    4.4111   23.1458 C.3     1  UNL1        0.0537
      6 C          -6.0257    4.1413   22.9493 C.ar    1  UNL1        0.0771
      7 N          -5.1260    3.9823   24.1389 N.ar    1  UNL1       -0.1522
      8 N          -3.6636    3.7124   23.9425 N.ar    1  UNL1       -0.1416
      9 C          -3.1010    3.6016   22.5564 C.ar    1  UNL1        0.1333
     10 S          -1.7110    3.3435   22.0551 S.2     1  UNL1       -0.0604
     11 C          -1.7517    3.3429   20.5556 C.ar    1  UNL1        0.0971
     12 C          -3.1668    3.6007   20.1302 C.ar    1  UNL1        0.0538
     13 N          -3.6613    3.6840   18.7165 N.pl3   1  UNL1       -0.3564
     14 C          -4.0007    3.7606   21.3669 C.ar    1  UNL1        0.0363
     15 C          -5.4631    4.0304   21.5633 C.ar    1  UNL1       -0.0033
     16 C          -6.3629    4.1894   20.3737 C.3     1  UNL1        0.0324
     17 H          -3.0335    3.5646   17.9676 H       1  UNL1        0.1424
     18 H          -4.6136    3.8581   18.5376 H       1  UNL1        0.1424
     19 C           1.6871    1.9669   19.1305 C.3     1  UNL1        0.1166
     20 C           2.3293    0.6138   19.0463 C.ar    1  UNL1       -0.0025
     21 C           3.1487    0.2460   17.8450 C.ar    1  UNL1       -0.0018
     22 C           3.7908   -1.1070   17.7608 C.ar    1  UNL1        0.0147
     23 C           3.6134   -2.0921   18.8779 C.ar    1  UNL1        0.1228
     24 C           2.7941   -1.7243   20.0793 C.ar    1  UNL1        0.0147
     25 C           2.1520   -0.3713   20.1635 C.ar    1  UNL1       -0.0018
     26 S           4.2556   -3.4451   18.7937 S.3     1  UNL1        0.3126
     27 F           5.0154   -2.2262   18.3615 F       1  UNL1       -0.0934
     28 F           5.6575   -3.5792   18.2773 F       1  UNL1       -0.0934
     29 F           3.4958   -4.6641   19.2259 F       1  UNL1       -0.0934
     30 F           4.8977   -4.7981   18.7095 F       1  UNL1       -0.0934
     31 F           2.8536   -3.3111   19.3101 F       1  UNL1       -0.0934
@<TRIPOS>BOND
     1     5     6    1
     2     6     7   ar
     3     7     8   ar
     4     8     9   ar
     5     9    10   ar
     6    10    11   ar
     7    11     1    1
     8     1     2    2
     9     1     3   am
    10     3    19    1
    11    19    20    1
    12    20    21   ar
    13    21    22   ar
    14    22    23   ar
    15    23    26    1
    16    26    27    1
    17    26    28    1
    18    26    29    1
    19    26    30    1
    20    26    31    1
    21    23    24   ar
    22    24    25   ar
    23    11    12   ar
    24    12    13    1
    25    12    14   ar
    26    14    15   ar
    27    15    16    1
    28    15     6   ar
    29    14     9   ar
    30    25    20   ar
    31     3     4    1
    32    13    17    1
    33    13    18    1
@<TRIPOS>MOLECULE
*****
 31 33 0 0 0
SMALL
GASTEIGER

@<TRIPOS>ATOM
      1 C          -6.6396  -19.9151   20.5294 C.2     1  UNL1        0.2534
      2 O          -7.0496  -20.3866   21.8930 O.2     1  UNL1       -0.2695
      3 N          -7.6318  -19.9199   19.4045 N.am    1  UNL1       -0.2965
      4 H          -7.3628  -19.6104   18.5094 H       1  UNL1        0.1501
      5 C           0.7857  -17.3808   20.7839 C.3     1  UNL1        0.0537
      6 C          -0.5398  -17.8369   20.2503 C.ar    1  UNL1        0.0771
      7 N          -0.7624  -17.9240   18.7694 N.ar    1  UNL1       -0.1522
      8 N          -2.0879  -18.3801   18.2358 N.ar    1  UNL1       -0.1416
      9 C          -3.1910  -18.7491   19.1829 C.ar    1  UNL1        0.1333
     10 S          -4.5933  -19.2291   18.9523 S.2     1  UNL1       -0.0604
     11 C          -5.2374  -19.4386   20.2907 C.ar    1  UNL1        0.0971
     12 C          -4.2332  -19.0882   21.3484 C.ar    1  UNL1        0.0538
     13 N          -4.4549  -19.1526   22.8305 N.pl3   1  UNL1       -0.3564
     14 C          -2.9684  -18.6620   20.6637 C.ar    1  UNL1        0.0363
     15 C          -1.6429  -18.2059   21.1974 C.ar    1  UNL1       -0.0033
     16 C          -1.4204  -18.1188   22.6783 C.3     1  UNL1        0.0324
     17 H          -5.3247  -19.4465   23.1859 H       1  UNL1        0.1424
     18 H          -3.7305  -18.9009   23.4480 H       1  UNL1        0.1424
     19 C          -9.0339  -20.3963   19.6432 C.3     1  UNL1        0.1166
     20 C          -9.9827  -19.5608   20.4506 C.ar    1  UNL1       -0.0025
     21 C         -10.3294  -19.9635   21.8533 C.ar    1  UNL1       -0.0018
     22 C         -11.2781  -19.1280   22.6607 C.ar    1  UNL1        0.0147
     23 C         -11.8802  -17.8898   22.0653 C.ar    1  UNL1        0.1228
     24 C         -11.5335  -17.4871   20.6626 C.ar    1  UNL1        0.0147
     25 C         -10.5848  -18.3226   19.8553 C.ar    1  UNL1       -0.0018
     26 S         -12.8289  -17.0543   22.8727 S.3     1  UNL1        0.3126
     27 F         -12.8133  -18.5449   23.0401 F       1  UNL1       -0.0934
     28 F         -13.7620  -17.7094   23.8475 F       1  UNL1       -0.0934
     29 F         -12.8445  -15.5638   22.7054 F       1  UNL1       -0.0934
     30 F         -13.7776  -16.2188   23.6801 F       1  UNL1       -0.0934
     31 F         -11.8957  -16.3993   21.8979 F       1  UNL1       -0.0934
@<TRIPOS>BOND
     1     5     6    1
     2     6     7   ar
     3     7     8   ar
     4     8     9   ar
     5     9    10   ar
     6    10    11   ar
     7    11     1    1
     8     1     2    2
     9     1     3   am
    10     3    19    1
    11    19    20    1
    12    20    21   ar
    13    21    22   ar
    14    22    23   ar
    15    23    26    1
    16    26    27    1
    17    26    28    1
    18    26    29    1
    19    26    30    1
    20    26    31    1
    21    23    24   ar
    22    24    25   ar
    23    11    12   ar
    24    12    13    1
    25    12    14   ar
    26    14    15   ar
    27    15    16    1
    28    15     6   ar
    29    14     9   ar
    30    25    20   ar
    31     3     4    1
    32    13    17    1
    33    13    18    1
@<TRIPOS>MOLECULE
*****
 31 33 0 0 0
SMALL
GASTEIGER

@<TRIPOS>ATOM
      1 C          -7.0006  -16.2776   23.5193 C.2     1  UNL1        0.2534
      2 O          -6.6941  -14.9982   22.7987 O.2     1  UNL1       -0.2695
      3 N          -5.8935  -17.0618   24.1591 N.am    1  UNL1       -0.2965
      4 H          -6.0947  -17.9015   24.6321 H       1  UNL1        0.1501
      5 C         -14.5794  -18.1265   22.6436 C.3     1  UNL1        0.0537
      6 C         -13.1966  -18.0451   23.2191 C.ar    1  UNL1        0.0771
      7 N         -12.8794  -18.7399   24.5100 N.ar    1  UNL1       -0.1522
      8 N         -11.4966  -18.6584   25.0855 N.ar    1  UNL1       -0.1416
      9 C         -10.4310  -17.8822   24.3700 C.ar    1  UNL1        0.1333
     10 S          -8.9885  -17.6260   24.6921 S.2     1  UNL1       -0.0604
     11 C          -8.4143  -16.7728   23.6001 C.ar    1  UNL1        0.0971
     12 C          -9.5018  -16.5017   22.6032 C.ar    1  UNL1        0.0538
     13 N          -9.3667  -15.6879   21.3505 N.pl3   1  UNL1       -0.3564
     14 C         -10.7482  -17.1874   23.0791 C.ar    1  UNL1        0.0363
     15 C         -12.1310  -17.2688   22.5036 C.ar    1  UNL1       -0.0033
     16 C         -12.4482  -16.5740   21.2126 C.3     1  UNL1        0.0324
     17 H          -8.5024  -15.2752   21.1224 H       1  UNL1        0.1424
     18 H         -10.1422  -15.5665   20.7563 H       1  UNL1        0.1424
     19 C          -4.4800  -16.5666   24.0783 C.3     1  UNL1        0.1166
     20 C          -3.6381  -16.8934   22.8805 C.ar    1  UNL1       -0.0025
     21 C          -3.7837  -18.2229   22.2016 C.ar    1  UNL1       -0.0018
     22 C          -2.9419  -18.5496   21.0039 C.ar    1  UNL1        0.0147
     23 C          -1.9544  -17.5468   20.4851 C.ar    1  UNL1        0.1228
     24 C          -1.8088  -16.2172   21.1640 C.ar    1  UNL1        0.0147
     25 C          -2.6506  -15.8905   22.3617 C.ar    1  UNL1       -0.0018
     26 S          -1.1125  -17.8735   19.2874 S.3     1  UNL1        0.3126
     27 F          -0.4634  -17.6420   20.6197 F       1  UNL1       -0.0934
     28 F           0.3784  -17.9687   19.4220 F       1  UNL1       -0.0934
     29 F          -1.7616  -18.1051   17.9551 F       1  UNL1       -0.0934
     30 F          -0.2707  -18.2003   18.0897 F       1  UNL1       -0.0934
     31 F          -2.6035  -17.7783   19.1528 F       1  UNL1       -0.0934
@<TRIPOS>BOND
     1     5     6    1
     2     6     7   ar
     3     7     8   ar
     4     8     9   ar
     5     9    10   ar
     6    10    11   ar
     7    11     1    1
     8     1     2    2
     9     1     3   am
    10     3    19    1
    11    19    20    1
    12    20    21   ar
    13    21    22   ar
    14    22    23   ar
    15    23    26    1
    16    26    27    1
    17    26    28    1
    18    26    29    1
    19    26    30    1
    20    26    31    1
    21    23    24   ar
    22    24    25   ar
    23    11    12   ar
    24    12    13    1
    25    12    14   ar
    26    14    15   ar
    27    15    16    1
    28    15     6   ar
    29    14     9   ar
    30    25    20   ar
    31     3     4    1
    32    13    17    1
    33    13    18    1
@<TRIPOS>MOLECULE
*****
 31 33 0 0 0
SMALL
GASTEIGER

@<TRIPOS>ATOM
      1 C           6.6348   -4.2970   24.6657 C.2     1  UNL1        0.2534
      2 O           7.7739   -4.8885   23.8893 O.2     1  UNL1       -0.2695
      3 N           5.4719   -3.6852   23.9424 N.am    1  UNL1       -0.2965
      4 H           4.7243   -3.2970   24.4520 H       1  UNL1        0.1501
      5 C           6.5240   -2.9205   32.3933 C.3     1  UNL1        0.0537
      6 C           6.6202   -3.6436   31.0826 C.ar    1  UNL1        0.0771
      7 N           6.8542   -5.1250   31.0587 N.ar    1  UNL1       -0.1522
      8 N           6.9504   -5.8480   29.7480 N.ar    1  UNL1       -0.1416
      9 C           6.8127   -5.0896   28.4612 C.ar    1  UNL1        0.1333
     10 S           6.8621   -5.5280   27.0276 S.2     1  UNL1       -0.0604
     11 C           6.6588   -4.3174   26.1654 C.ar    1  UNL1        0.0971
     12 C           6.4836   -3.1309   27.0662 C.ar    1  UNL1        0.0538
     13 N           6.2538   -1.7157   26.6256 N.pl3   1  UNL1       -0.3564
     14 C           6.5787   -3.6082   28.4851 C.ar    1  UNL1        0.0363
     15 C           6.4825   -2.8852   29.7959 C.ar    1  UNL1       -0.0033
     16 C           6.2486   -1.4037   29.8197 C.3     1  UNL1        0.0324
     17 H           6.2065   -1.5004   25.6661 H       1  UNL1        0.1424
     18 H           6.1502   -1.0021   27.2959 H       1  UNL1        0.1424
     19 C           5.4480   -3.6649   22.4428 C.3     1  UNL1        0.1166
     20 C           4.4625   -2.7949   21.7201 C.ar    1  UNL1       -0.0025
     21 C           3.7569   -1.6924   22.4526 C.ar    1  UNL1       -0.0018
     22 C           2.7716   -0.8226   21.7300 C.ar    1  UNL1        0.0147
     23 C           2.4917   -1.0552   20.2748 C.ar    1  UNL1        0.1228
     24 C           3.1973   -2.1577   19.5423 C.ar    1  UNL1        0.0147
     25 C           4.1827   -3.0275   20.2649 C.ar    1  UNL1       -0.0018
     26 S           1.5063   -0.1852   19.5521 S.3     1  UNL1        0.3126
     27 F           1.1115   -0.8639   20.8302 F       1  UNL1       -0.0934
     28 F           0.1262    0.0060   20.1076 F       1  UNL1       -0.0934
     29 F           1.9011    0.4934   18.2740 F       1  UNL1       -0.0934
     30 F           0.5209    0.6847   18.8294 F       1  UNL1       -0.0934
     31 F           2.8865   -0.3766   18.9966 F       1  UNL1       -0.0934
@<TRIPOS>BOND
     1     5     6    1
     2     6     7   ar
     3     7     8   ar
     4     8     9   ar
     5     9    10   ar
     6    10    11   ar
     7    11     1    1
     8     1     2    2
     9     1     3   am
    10     3    19    1
    11    19    20    1
    12    20    21   ar
    13    21    22   ar
    14    22    23   ar
    15    23    26    1
    16    26    27    1
    17    26    28    1
    18    26    29    1
    19    26    30    1
    20    26    31    1
    21    23    24   ar
    22    24    25   ar
    23    11    12   ar
    24    12    13    1
    25    12    14   ar
    26    14    15   ar
    27    15    16    1
    28    15     6   ar
    29    14     9   ar
    30    25    20   ar
    31     3     4    1
    32    13    17    1
    33    13    18    1
@<TRIPOS>MOLECULE
*****
 31 33 0 0 0
SMALL
GASTEIGER

@<TRIPOS>ATOM
      1 C           0.1841    2.9691   20.5968 C.2     1  UNL1        0.2534
      2 O           1.1778    3.4350   21.6193 O.2     1  UNL1       -0.2695
      3 N           0.6539    2.2459   19.3696 N.am    1  UNL1       -0.2965
      4 H           0.0017    1.9401   18.6984 H       1  UNL1        0.1501
      5 C          -7.1347    4.2422   23.1342 C.3     1  UNL1        0.0537
      6 C          -5.9668    4.0438   22.2140 C.ar    1  UNL1        0.0771
      7 N          -6.1660    4.0930   20.7281 N.ar    1  UNL1       -0.1522
      8 N          -4.9982    3.8947   19.8079 N.ar    1  UNL1       -0.1416
      9 C          -3.6312    3.6472   20.3735 C.ar    1  UNL1        0.1333
     10 S          -2.3008    3.4176   19.7197 S.2     1  UNL1       -0.0604
     11 C          -1.2795    3.2265   20.8015 C.ar    1  UNL1        0.0971
     12 C          -1.9785    3.3380   22.1239 C.ar    1  UNL1        0.0538
     13 N          -1.3369    3.2117   23.4739 N.pl3   1  UNL1       -0.3564
     14 C          -3.4320    3.5980   21.8594 C.ar    1  UNL1        0.0363
     15 C          -4.5998    3.7963   22.7796 C.ar    1  UNL1       -0.0033
     16 C          -4.4006    3.7472   24.2656 C.3     1  UNL1        0.0324
     17 H          -0.3701    3.0397   23.5452 H       1  UNL1        0.1424
     18 H          -1.8825    3.3008   24.2885 H       1  UNL1        0.1424
     19 C           2.1174    1.9885   19.1649 C.3     1  UNL1        0.1166
     20 C           2.6255    0.5802   19.0723 C.ar    1  UNL1       -0.0025
     21 C           2.3574   -0.3886   20.1857 C.ar    1  UNL1       -0.0018
     22 C           2.8655   -1.7968   20.0931 C.ar    1  UNL1        0.0147
     23 C           3.6417   -2.2363   18.8872 C.ar    1  UNL1        0.1228
     24 C           3.9099   -1.2676   17.7738 C.ar    1  UNL1        0.0147
     25 C           3.4018    0.1406   17.8664 C.ar    1  UNL1       -0.0018
     26 S           4.1499   -3.6447   18.7946 S.3     1  UNL1        0.3126
     27 F           2.7857   -3.3750   19.3570 F       1  UNL1       -0.0934
     28 F           3.2938   -4.7832   19.2645 F       1  UNL1       -0.0934
     29 F           5.5141   -3.9143   18.2322 F       1  UNL1       -0.0934
     30 F           4.6580   -5.0529   18.7021 F       1  UNL1       -0.0934
     31 F           5.0059   -2.5060   18.3248 F       1  UNL1       -0.0934
@<TRIPOS>BOND
     1     5     6    1
     2     6     7   ar
     3     7     8   ar
     4     8     9   ar
     5     9    10   ar
     6    10    11   ar
     7    11     1    1
     8     1     2    2
     9     1     3   am
    10     3    19    1
    11    19    20    1
    12    20    21   ar
    13    21    22   ar
    14    22    23   ar
    15    23    26    1
    16    26    27    1
    17    26    28    1
    18    26    29    1
    19    26    30    1
    20    26    31    1
    21    23    24   ar
    22    24    25   ar
    23    11    12   ar
    24    12    13    1
    25    12    14   ar
    26    14    15   ar
    27    15    16    1
    28    15     6   ar
    29    14     9   ar
    30    25    20   ar
    31     3     4    1
    32    13    17    1
    33    13    18    1
@<TRIPOS>MOLECULE
*****
 31 33 0 0 0
SMALL
GASTEIGER

@<TRIPOS>ATOM
      1 C           0.0991    3.1858   19.6757 C.2     1  UNL1        0.2534
      2 O           1.0567    3.9752   20.5183 O.2     1  UNL1       -0.2695
      3 N           0.6168    2.1472   18.7252 N.am    1  UNL1       -0.2965
      4 H          -0.0117    1.6291   18.1722 H       1  UNL1        0.1501
      5 C          -7.5262    4.8179   18.7729 C.3     1  UNL1        0.0537
      6 C          -6.2250    4.4261   19.4081 C.ar    1  UNL1        0.0771
      7 N          -6.1778    4.0741   20.8654 N.ar    1  UNL1       -0.1522
      8 N          -4.8766    3.6823   21.5006 N.ar    1  UNL1       -0.1416
      9 C          -3.6227    3.6425   20.6785 C.ar    1  UNL1        0.1333
     10 S          -2.2051    3.2967   21.0261 S.2     1  UNL1       -0.0604
     11 C          -1.3761    3.4350   19.7836 C.ar    1  UNL1        0.0971
     12 C          -2.2814    3.8663   18.6681 C.ar    1  UNL1        0.0538
     13 N          -1.8704    4.1240   17.2487 N.pl3   1  UNL1       -0.3564
     14 C          -3.6699    3.9945   19.2211 C.ar    1  UNL1        0.0363
     15 C          -4.9710    4.3863   18.5860 C.ar    1  UNL1       -0.0033
     16 C          -5.0182    4.7383   17.1286 C.3     1  UNL1        0.0324
     17 H          -0.9298    4.0121   16.9805 H       1  UNL1        0.1424
     18 H          -2.5413    4.4052   16.5853 H       1  UNL1        0.1424
     19 C           2.0920    1.8981   18.6173 C.3     1  UNL1        0.1166
     20 C           2.6224    0.4963   18.6795 C.ar    1  UNL1       -0.0025
     21 C           2.2411   -0.4000   19.8202 C.ar    1  UNL1       -0.0018
     22 C           2.7715   -1.8017   19.8823 C.ar    1  UNL1        0.0147
     23 C           3.6832   -2.3070   18.8037 C.ar    1  UNL1        0.1228
     24 C           4.0645   -1.4107   17.6630 C.ar    1  UNL1        0.0147
     25 C           3.5341   -0.0091   17.6009 C.ar    1  UNL1       -0.0018
     26 S           4.2136   -3.7088   18.8658 S.3     1  UNL1        0.3126
     27 F           5.0352   -2.6233   18.2359 F       1  UNL1       -0.0934
     28 F           5.5655   -4.0250   18.2981 F       1  UNL1       -0.0934
     29 F           3.3921   -4.7943   19.4957 F       1  UNL1       -0.0934
     30 F           4.7440   -5.1105   18.9280 F       1  UNL1       -0.0934
     31 F           2.8617   -3.3925   19.4336 F       1  UNL1       -0.0934
@<TRIPOS>BOND
     1     5     6    1
     2     6     7   ar
     3     7     8   ar
     4     8     9   ar
     5     9    10   ar
     6    10    11   ar
     7    11     1    1
     8     1     2    2
     9     1     3   am
    10     3    19    1
    11    19    20    1
    12    20    21   ar
    13    21    22   ar
    14    22    23   ar
    15    23    26    1
    16    26    27    1
    17    26    28    1
    18    26    29    1
    19    26    30    1
    20    26    31    1
    21    23    24   ar
    22    24    25   ar
    23    11    12   ar
    24    12    13    1
    25    12    14   ar
    26    14    15   ar
    27    15    16    1
    28    15     6   ar
    29    14     9   ar
    30    25    20   ar
    31     3     4    1
    32    13    17    1
    33    13    18    1
