@<TRIPOS>MOLECULE
*****
 25 27 0 0 0
SMALL
GASTEIGER

@<TRIPOS>ATOM
      1 C          -6.6470  -15.8895   24.4836 C.ar    1  UNL1        0.1795
      2 C          -5.7268  -15.8371   25.6671 C.ar    1  UNL1        0.0407
      3 C          -6.2794  -15.5682   27.0354 C.ar    1  UNL1        0.0033
      4 C          -7.7521  -15.3516   27.2203 C.ar    1  UNL1        0.0033
      5 C          -8.6723  -15.4040   26.0370 C.ar    1  UNL1        0.0407
      6 C          -8.1198  -15.6729   24.6685 C.ar    1  UNL1        0.1795
      7 O          -6.0945  -16.1584   23.1153 O.3     1  UNL1       -0.4506
      8 C          -9.0853  -19.5268   20.5250 C.3     1  UNL1        0.0522
      9 C          -7.7816  -19.1879   21.1850 C.ar    1  UNL1        0.0624
     10 C          -7.5899  -17.8426   21.8201 C.ar    1  UNL1        0.0519
     11 C          -6.2862  -17.5038   22.4801 C.ar    1  UNL1        0.1454
     12 C          -5.1742  -18.5102   22.5049 C.ar    1  UNL1        0.0475
     13 C          -5.3659  -19.8554   21.8698 C.ar    1  UNL1        0.0985
     14 N          -6.6696  -20.1943   21.2098 N.ar    1  UNL1       -0.2482
     15 C          -3.8705  -18.1713   23.1649 C.3     1  UNL1        0.1039
     16 N          -2.6907  -17.7674   22.3315 N.3     1  UNL1       -0.2664
     17 C          -1.7991  -18.8162   21.7356 C.3     1  UNL1        0.0899
     18 C          -2.4023  -16.3146   22.0939 C.3     1  UNL1        0.0899
     19 O          -9.0399  -15.7253   23.4852 O.3     1  UNL1       -0.4504
     20 C         -10.2636  -16.5920   23.5243 C.ar    1  UNL1        0.1454
     21 C         -11.4921  -16.1899   22.7634 C.ar    1  UNL1        0.0375
     22 C         -12.7157  -17.0567   22.8025 C.ar    1  UNL1        0.0031
     23 C         -12.7109  -18.3254   23.6027 C.ar    1  UNL1        0.0002
     24 C         -11.4823  -18.7275   24.3637 C.ar    1  UNL1        0.0031
     25 C         -10.2587  -17.8608   24.3245 C.ar    1  UNL1        0.0375
@<TRIPOS>BOND
     1     8     9    1
     2     9    10   ar
     3    10    11   ar
     4    11     7    1
     5     7     1    1
     6     1     2   ar
     7     2     3   ar
     8     3     4   ar
     9     4     5   ar
    10     5     6   ar
    11     6    19    1
    12    19    20    1
    13    20    21   ar
    14    21    22   ar
    15    22    23   ar
    16    23    24   ar
    17    24    25   ar
    18    11    12   ar
    19    12    15    1
    20    15    16    1
    21    16    17    1
    22    16    18    1
    23    12    13   ar
    24    13    14   ar
    25    14     9   ar
    26     6     1   ar
    27    25    20   ar
@<TRIPOS>MOLECULE
*****
 25 27 0 0 0
SMALL
GASTEIGER

@<TRIPOS>ATOM
      1 C          -7.3524  -15.6680   24.2692 C.ar    1  UNL1        0.1795
      2 C          -8.3746  -15.9166   25.3385 C.ar    1  UNL1        0.0407
      3 C          -7.9844  -15.8281   26.7842 C.ar    1  UNL1        0.0033
      4 C          -6.5721  -15.4911   27.1606 C.ar    1  UNL1        0.0033
      5 C          -5.5499  -15.2424   26.0914 C.ar    1  UNL1        0.0407
      6 C          -5.9400  -15.3309   24.6457 C.ar    1  UNL1        0.1795
      7 O          -7.7425  -15.7564   22.8236 O.3     1  UNL1       -0.4506
      8 C          -6.2992  -20.2922   20.7395 C.3     1  UNL1        0.0522
      9 C          -7.3805  -19.3513   21.1816 C.ar    1  UNL1        0.0624
     10 C          -7.0209  -18.0244   21.7815 C.ar    1  UNL1        0.0519
     11 C          -8.1021  -17.0834   22.2236 C.ar    1  UNL1        0.1454
     12 C          -9.5430  -17.4693   22.0658 C.ar    1  UNL1        0.0475
     13 C          -9.9026  -18.7962   21.4659 C.ar    1  UNL1        0.0985
     14 N          -8.8213  -19.7372   21.0238 N.ar    1  UNL1       -0.2482
     15 C         -10.6243  -16.5284   22.5079 C.3     1  UNL1        0.1039
     16 N         -12.0481  -16.7820   22.1101 N.3     1  UNL1       -0.2664
     17 C         -12.5396  -16.3440   20.7623 C.3     1  UNL1        0.0899
     18 C         -12.9805  -17.4736   23.0600 C.3     1  UNL1        0.0899
     19 O          -4.9178  -15.0823   23.5765 O.3     1  UNL1       -0.4504
     20 C          -4.0576  -16.2085   23.0848 C.ar    1  UNL1        0.1454
     21 C          -2.9216  -15.9298   22.1458 C.ar    1  UNL1        0.0375
     22 C          -2.0614  -17.0560   21.6541 C.ar    1  UNL1        0.0031
     23 C          -2.3373  -18.4609   22.1014 C.ar    1  UNL1        0.0002
     24 C          -3.4733  -18.7396   23.0404 C.ar    1  UNL1        0.0031
     25 C          -4.3335  -17.6134   23.5321 C.ar    1  UNL1        0.0375
@<TRIPOS>BOND
     1     8     9    1
     2     9    10   ar
     3    10    11   ar
     4    11     7    1
     5     7     1    1
     6     1     2   ar
     7     2     3   ar
     8     3     4   ar
     9     4     5   ar
    10     5     6   ar
    11     6    19    1
    12    19    20    1
    13    20    21   ar
    14    21    22   ar
    15    22    23   ar
    16    23    24   ar
    17    24    25   ar
    18    11    12   ar
    19    12    15    1
    20    15    16    1
    21    16    17    1
    22    16    18    1
    23    12    13   ar
    24    13    14   ar
    25    14     9   ar
    26     6     1   ar
    27    25    20   ar
@<TRIPOS>MOLECULE
*****
 25 27 0 0 0
SMALL
GASTEIGER

@<TRIPOS>ATOM
      1 C          -7.1087  -16.0302   23.9033 C.ar    1  UNL1        0.1795
      2 C          -8.1773  -16.2502   24.9328 C.ar    1  UNL1        0.0407
      3 C          -7.8958  -15.9664   26.3785 C.ar    1  UNL1        0.0033
      4 C          -6.5456  -15.4626   26.7949 C.ar    1  UNL1        0.0033
      5 C          -5.4770  -15.2426   25.7655 C.ar    1  UNL1        0.0407
      6 C          -5.7586  -15.5264   24.3197 C.ar    1  UNL1        0.1795
      7 O          -7.3902  -16.3140   22.4576 O.3     1  UNL1       -0.4506
      8 C         -12.4150  -16.3354   21.1343 C.3     1  UNL1        0.0522
      9 C         -11.1402  -17.0776   21.4066 C.ar    1  UNL1        0.0624
     10 C          -9.9027  -16.3248   21.7960 C.ar    1  UNL1        0.0519
     11 C          -8.6279  -17.0669   22.0683 C.ar    1  UNL1        0.1454
     12 C          -8.5907  -18.5618   21.9512 C.ar    1  UNL1        0.0475
     13 C          -9.8283  -19.3146   21.5618 C.ar    1  UNL1        0.0985
     14 N         -11.1030  -18.5725   21.2896 N.ar    1  UNL1       -0.2482
     15 C          -7.3159  -19.3040   22.2235 C.3     1  UNL1        0.1039
     16 N          -6.4780  -19.7993   21.0822 N.3     1  UNL1       -0.2664
     17 C          -5.9819  -21.2149   21.0750 C.3     1  UNL1        0.0899
     18 C          -6.1361  -18.8790   19.9480 C.3     1  UNL1        0.0899
     19 O          -4.6900  -15.3064   23.2903 O.3     1  UNL1       -0.4504
     20 C          -3.8384  -16.4547   22.8360 C.ar    1  UNL1        0.1454
     21 C          -2.5921  -16.1962   22.0423 C.ar    1  UNL1        0.0375
     22 C          -1.7405  -17.3444   21.5881 C.ar    1  UNL1        0.0031
     23 C          -2.1351  -18.7511   21.9276 C.ar    1  UNL1        0.0002
     24 C          -3.3814  -19.0097   22.7213 C.ar    1  UNL1        0.0031
     25 C          -4.2331  -17.8615   23.1756 C.ar    1  UNL1        0.0375
@<TRIPOS>BOND
     1     8     9    1
     2     9    10   ar
     3    10    11   ar
     4    11     7    1
     5     7     1    1
     6     1     2   ar
     7     2     3   ar
     8     3     4   ar
     9     4     5   ar
    10     5     6   ar
    11     6    19    1
    12    19    20    1
    13    20    21   ar
    14    21    22   ar
    15    22    23   ar
    16    23    24   ar
    17    24    25   ar
    18    11    12   ar
    19    12    15    1
    20    15    16    1
    21    16    17    1
    22    16    18    1
    23    12    13   ar
    24    13    14   ar
    25    14     9   ar
    26     6     1   ar
    27    25    20   ar
@<TRIPOS>MOLECULE
*****
 25 27 0 0 0
SMALL
GASTEIGER

@<TRIPOS>ATOM
      1 C          -6.6197  -18.1306   22.0010 C.ar    1  UNL1        0.1795
      2 C          -6.1630  -19.4883   21.5557 C.ar    1  UNL1        0.0407
      3 C          -4.7830  -19.9653   21.8990 C.ar    1  UNL1        0.0033
      4 C          -3.8596  -19.0848   22.6877 C.ar    1  UNL1        0.0033
      5 C          -4.3162  -17.7272   23.1331 C.ar    1  UNL1        0.0407
      6 C          -5.6963  -17.2501   22.7898 C.ar    1  UNL1        0.1795
      7 O          -7.9997  -17.6536   21.6577 O.3     1  UNL1       -0.4506
      8 C         -10.0542  -20.8086   25.2390 C.3     1  UNL1        0.0522
      9 C         -10.1989  -19.6668   24.2770 C.ar    1  UNL1        0.0624
     10 C          -9.0270  -19.2311   23.4484 C.ar    1  UNL1        0.0519
     11 C          -9.1717  -18.0893   22.4864 C.ar    1  UNL1        0.1454
     12 C         -10.4883  -17.3831   22.3532 C.ar    1  UNL1        0.0475
     13 C         -11.6603  -17.8188   23.1819 C.ar    1  UNL1        0.0985
     14 N         -11.5155  -18.9606   24.1438 N.ar    1  UNL1       -0.2482
     15 C         -10.6331  -16.2413   21.3913 C.3     1  UNL1        0.1039
     16 N         -11.0564  -16.5018   19.9761 N.3     1  UNL1       -0.2664
     17 C         -11.4045  -15.3550   19.0742 C.3     1  UNL1        0.0899
     18 C         -11.1317  -17.9093   19.4629 C.3     1  UNL1        0.0899
     19 O          -6.1530  -15.8925   23.2351 O.3     1  UNL1       -0.4504
     20 C          -6.7352  -15.7092   24.6053 C.ar    1  UNL1        0.1454
     21 C          -5.8293  -15.5286   25.7872 C.ar    1  UNL1        0.0375
     22 C          -6.4116  -15.3453   27.1573 C.ar    1  UNL1        0.0031
     23 C          -7.8997  -15.3426   27.3457 C.ar    1  UNL1        0.0002
     24 C          -8.8056  -15.5232   26.1639 C.ar    1  UNL1        0.0031
     25 C          -8.2234  -15.7065   24.7937 C.ar    1  UNL1        0.0375
@<TRIPOS>BOND
     1     8     9    1
     2     9    10   ar
     3    10    11   ar
     4    11     7    1
     5     7     1    1
     6     1     2   ar
     7     2     3   ar
     8     3     4   ar
     9     4     5   ar
    10     5     6   ar
    11     6    19    1
    12    19    20    1
    13    20    21   ar
    14    21    22   ar
    15    22    23   ar
    16    23    24   ar
    17    24    25   ar
    18    11    12   ar
    19    12    15    1
    20    15    16    1
    21    16    17    1
    22    16    18    1
    23    12    13   ar
    24    13    14   ar
    25    14     9   ar
    26     6     1   ar
    27    25    20   ar
@<TRIPOS>MOLECULE
*****
 25 27 0 0 0
SMALL
GASTEIGER

@<TRIPOS>ATOM
      1 C          -7.5454  -17.4294   21.9302 C.ar    1  UNL1        0.1795
      2 C          -6.3292  -18.2730   21.6865 C.ar    1  UNL1        0.0407
      3 C          -6.4741  -19.6467   21.1019 C.ar    1  UNL1        0.0033
      4 C          -7.8352  -20.1770   20.7610 C.ar    1  UNL1        0.0033
      5 C          -9.0514  -19.3335   21.0046 C.ar    1  UNL1        0.0407
      6 C          -8.9065  -17.9597   21.5893 C.ar    1  UNL1        0.1795
      7 O          -7.4006  -16.0557   22.5148 O.3     1  UNL1       -0.4506
      8 C          -8.5958  -16.0960   27.5714 C.3     1  UNL1        0.0522
      9 C          -7.5878  -15.9101   26.4763 C.ar    1  UNL1        0.0624
     10 C          -7.9981  -16.0758   25.0431 C.ar    1  UNL1        0.0519
     11 C          -6.9901  -15.8899   23.9480 C.ar    1  UNL1        0.1454
     12 C          -5.5717  -15.5383   24.2861 C.ar    1  UNL1        0.0475
     13 C          -5.1613  -15.3725   25.7193 C.ar    1  UNL1        0.0985
     14 N          -6.1693  -15.5584   26.8144 N.ar    1  UNL1       -0.2482
     15 C          -4.5636  -15.3524   23.1910 C.3     1  UNL1        0.1039
     16 N          -3.5609  -16.4303   22.9036 N.3     1  UNL1       -0.2664
     17 C          -2.4208  -16.1635   21.9662 C.3     1  UNL1        0.0899
     18 C          -3.6984  -17.7751   23.5537 C.3     1  UNL1        0.0899
     19 O         -10.1227  -17.1163   21.8329 O.3     1  UNL1       -0.4504
     20 C         -11.1819  -17.5850   22.7860 C.ar    1  UNL1        0.1454
     21 C         -10.8013  -18.3886   23.9941 C.ar    1  UNL1        0.0375
     22 C         -11.8605  -18.8573   24.9472 C.ar    1  UNL1        0.0031
     23 C         -13.3002  -18.5225   24.6923 C.ar    1  UNL1        0.0002
     24 C         -13.6808  -17.7189   23.4842 C.ar    1  UNL1        0.0031
     25 C         -12.6217  -17.2502   22.5311 C.ar    1  UNL1        0.0375
@<TRIPOS>BOND
     1     8     9    1
     2     9    10   ar
     3    10    11   ar
     4    11     7    1
     5     7     1    1
     6     1     2   ar
     7     2     3   ar
     8     3     4   ar
     9     4     5   ar
    10     5     6   ar
    11     6    19    1
    12    19    20    1
    13    20    21   ar
    14    21    22   ar
    15    22    23   ar
    16    23    24   ar
    17    24    25   ar
    18    11    12   ar
    19    12    15    1
    20    15    16    1
    21    16    17    1
    22    16    18    1
    23    12    13   ar
    24    13    14   ar
    25    14     9   ar
    26     6     1   ar
    27    25    20   ar
@<TRIPOS>MOLECULE
*****
 25 27 0 0 0
SMALL
GASTEIGER

@<TRIPOS>ATOM
      1 C          -8.5508  -19.4261   21.5357 C.ar    1  UNL1        0.1795
      2 C          -9.8156  -19.0900   20.8026 C.ar    1  UNL1        0.0407
      3 C          -9.9218  -19.3544   19.3299 C.ar    1  UNL1        0.0033
      4 C          -8.7632  -19.9548   18.5903 C.ar    1  UNL1        0.0033
      5 C          -7.4985  -20.2909   19.3233 C.ar    1  UNL1        0.0407
      6 C          -7.3922  -20.0265   20.7960 C.ar    1  UNL1        0.1795
      7 O          -8.4446  -19.1617   23.0083 O.3     1  UNL1       -0.4506
      8 C          -5.2537  -15.1373   23.7976 C.3     1  UNL1        0.0522
      9 C          -6.6177  -15.7531   23.8995 C.ar    1  UNL1        0.0624
     10 C          -6.8492  -17.1494   23.4030 C.ar    1  UNL1        0.0519
     11 C          -8.2132  -17.7652   23.5049 C.ar    1  UNL1        0.1454
     12 C          -9.3456  -16.9847   24.1033 C.ar    1  UNL1        0.0475
     13 C          -9.1142  -15.5883   24.5998 C.ar    1  UNL1        0.0985
     14 N          -7.7502  -14.9725   24.4979 N.ar    1  UNL1       -0.2482
     15 C         -10.7096  -17.6005   24.2052 C.3     1  UNL1        0.1039
     16 N         -11.7804  -17.2174   23.2271 N.3     1  UNL1       -0.2664
     17 C         -13.1275  -17.8737   23.2947 C.3     1  UNL1        0.0899
     18 C         -11.5042  -16.1779   22.1815 C.3     1  UNL1        0.0899
     19 O          -6.1274  -20.3626   21.5290 O.3     1  UNL1       -0.4504
     20 C          -4.8918  -19.5414   21.3082 C.ar    1  UNL1        0.1454
     21 C          -4.1380  -18.9901   22.4820 C.ar    1  UNL1        0.0375
     22 C          -2.9024  -18.1688   22.2613 C.ar    1  UNL1        0.0031
     23 C          -2.4205  -17.8989   20.8667 C.ar    1  UNL1        0.0002
     24 C          -3.1742  -18.4503   19.6928 C.ar    1  UNL1        0.0031
     25 C          -4.4099  -19.2715   19.9136 C.ar    1  UNL1        0.0375
@<TRIPOS>BOND
     1     8     9    1
     2     9    10   ar
     3    10    11   ar
     4    11     7    1
     5     7     1    1
     6     1     2   ar
     7     2     3   ar
     8     3     4   ar
     9     4     5   ar
    10     5     6   ar
    11     6    19    1
    12    19    20    1
    13    20    21   ar
    14    21    22   ar
    15    22    23   ar
    16    23    24   ar
    17    24    25   ar
    18    11    12   ar
    19    12    15    1
    20    15    16    1
    21    16    17    1
    22    16    18    1
    23    12    13   ar
    24    13    14   ar
    25    14     9   ar
    26     6     1   ar
    27    25    20   ar
@<TRIPOS>MOLECULE
*****
 25 27 0 0 0
SMALL
GASTEIGER

@<TRIPOS>ATOM
      1 C          -6.4123  -19.7567   21.1102 C.ar    1  UNL1        0.1795
      2 C          -6.0515  -20.9960   20.3459 C.ar    1  UNL1        0.0407
      3 C          -6.9497  -21.4901   19.2510 C.ar    1  UNL1        0.0033
      4 C          -8.2088  -20.7449   18.9202 C.ar    1  UNL1        0.0033
      5 C          -8.5697  -19.5057   19.6844 C.ar    1  UNL1        0.0407
      6 C          -7.6714  -19.0116   20.7795 C.ar    1  UNL1        0.1795
      7 O          -5.5140  -19.2626   22.2052 O.3     1  UNL1       -0.4506
      8 C          -1.7557  -17.9456   18.8674 C.3     1  UNL1        0.0522
      9 C          -2.4240  -17.7849   20.2007 C.ar    1  UNL1        0.0624
     10 C          -3.6348  -18.6041   20.5363 C.ar    1  UNL1        0.0519
     11 C          -4.3031  -18.4434   21.8696 C.ar    1  UNL1        0.1454
     12 C          -3.7605  -17.4635   22.8672 C.ar    1  UNL1        0.0475
     13 C          -2.5497  -16.6443   22.5316 C.ar    1  UNL1        0.0985
     14 N          -1.8814  -16.8050   21.1984 N.ar    1  UNL1       -0.2482
     15 C          -4.4288  -17.3028   24.2005 C.3     1  UNL1        0.1039
     16 N          -5.2428  -16.0763   24.4884 N.3     1  UNL1       -0.2664
     17 C          -5.1820  -15.4369   25.8439 C.3     1  UNL1        0.0899
     18 C          -6.1178  -15.4891   23.4208 C.3     1  UNL1        0.0899
     19 O          -8.0323  -17.7724   21.5437 O.3     1  UNL1       -0.4504
     20 C          -9.4456  -17.5557   21.9972 C.ar    1  UNL1        0.1454
     21 C         -10.1035  -18.5530   22.9041 C.ar    1  UNL1        0.0375
     22 C         -11.5168  -18.3364   23.3576 C.ar    1  UNL1        0.0031
     23 C         -12.2722  -17.1225   22.9041 C.ar    1  UNL1        0.0002
     24 C         -11.6144  -16.1251   21.9971 C.ar    1  UNL1        0.0031
     25 C         -10.2011  -16.3418   21.5436 C.ar    1  UNL1        0.0375
@<TRIPOS>BOND
     1     8     9    1
     2     9    10   ar
     3    10    11   ar
     4    11     7    1
     5     7     1    1
     6     1     2   ar
     7     2     3   ar
     8     3     4   ar
     9     4     5   ar
    10     5     6   ar
    11     6    19    1
    12    19    20    1
    13    20    21   ar
    14    21    22   ar
    15    22    23   ar
    16    23    24   ar
    17    24    25   ar
    18    11    12   ar
    19    12    15    1
    20    15    16    1
    21    16    17    1
    22    16    18    1
    23    12    13   ar
    24    13    14   ar
    25    14     9   ar
    26     6     1   ar
    27    25    20   ar
@<TRIPOS>MOLECULE
*****
 25 27 0 0 0
SMALL
GASTEIGER

@<TRIPOS>ATOM
      1 C          -8.3580  -18.4276   21.3509 C.ar    1  UNL1        0.1795
      2 C          -7.5358  -19.3960   20.5532 C.ar    1  UNL1        0.0407
      3 C          -8.1183  -20.0486   19.3347 C.ar    1  UNL1        0.0033
      4 C          -9.5230  -19.7329   18.9139 C.ar    1  UNL1        0.0033
      5 C         -10.3452  -18.7646   19.7115 C.ar    1  UNL1        0.0407
      6 C          -9.7627  -18.1119   20.9300 C.ar    1  UNL1        0.1795
      7 O          -7.7756  -17.7750   22.5694 O.3     1  UNL1       -0.4506
      8 C          -3.0439  -19.7683   21.7707 C.3     1  UNL1        0.0522
      9 C          -3.9214  -18.6931   22.3398 C.ar    1  UNL1        0.0624
     10 C          -5.4097  -18.7716   22.1701 C.ar    1  UNL1        0.0519
     11 C          -6.2872  -17.6964   22.7392 C.ar    1  UNL1        0.1454
     12 C          -5.6765  -16.5427   23.4779 C.ar    1  UNL1        0.0475
     13 C          -4.1882  -16.4642   23.6476 C.ar    1  UNL1        0.0985
     14 N          -3.3107  -17.5394   23.0785 N.ar    1  UNL1       -0.2482
     15 C          -6.5540  -15.4675   24.0470 C.3     1  UNL1        0.1039
     16 N          -7.1326  -15.6213   25.4224 N.3     1  UNL1       -0.2664
     17 C          -6.2642  -15.4177   26.6284 C.3     1  UNL1        0.0899
     18 C          -8.5795  -15.9787   25.5917 C.3     1  UNL1        0.0899
     19 O         -10.5850  -17.1435   21.7276 O.3     1  UNL1       -0.4504
     20 C         -11.5056  -17.6466   22.7997 C.ar    1  UNL1        0.1454
     21 C         -10.9771  -18.5365   23.8854 C.ar    1  UNL1        0.0375
     22 C         -11.8978  -19.0395   24.9575 C.ar    1  UNL1        0.0031
     23 C         -13.3469  -18.6526   24.9439 C.ar    1  UNL1        0.0002
     24 C         -13.8755  -17.7626   23.8583 C.ar    1  UNL1        0.0031
     25 C         -12.9548  -17.2596   22.7862 C.ar    1  UNL1        0.0375
@<TRIPOS>BOND
     1     8     9    1
     2     9    10   ar
     3    10    11   ar
     4    11     7    1
     5     7     1    1
     6     1     2   ar
     7     2     3   ar
     8     3     4   ar
     9     4     5   ar
    10     5     6   ar
    11     6    19    1
    12    19    20    1
    13    20    21   ar
    14    21    22   ar
    15    22    23   ar
    16    23    24   ar
    17    24    25   ar
    18    11    12   ar
    19    12    15    1
    20    15    16    1
    21    16    17    1
    22    16    18    1
    23    12    13   ar
    24    13    14   ar
    25    14     9   ar
    26     6     1   ar
    27    25    20   ar
@<TRIPOS>MOLECULE
*****
 25 27 0 0 0
SMALL
GASTEIGER

@<TRIPOS>ATOM
      1 C          -7.0279  -15.4496   24.1057 C.ar    1  UNL1        0.1795
      2 C          -5.6400  -15.3307   24.6622 C.ar    1  UNL1        0.0407
      3 C          -5.4086  -15.4736   26.1373 C.ar    1  UNL1        0.0033
      4 C          -6.5650  -15.7354   27.0560 C.ar    1  UNL1        0.0033
      5 C          -7.9529  -15.8544   26.4996 C.ar    1  UNL1        0.0407
      6 C          -8.1844  -15.7114   25.0244 C.ar    1  UNL1        0.1795
      7 O          -7.2594  -15.3067   22.6306 O.3     1  UNL1       -0.4506
      8 C         -11.5531  -16.1695   19.8343 C.3     1  UNL1        0.0522
      9 C         -10.3248  -16.6875   20.5219 C.ar    1  UNL1        0.0624
     10 C          -9.4063  -15.7381   21.2325 C.ar    1  UNL1        0.0519
     11 C          -8.1779  -16.2562   21.9200 C.ar    1  UNL1        0.1454
     12 C          -7.8681  -17.7236   21.8971 C.ar    1  UNL1        0.0475
     13 C          -8.7866  -18.6730   21.1866 C.ar    1  UNL1        0.0985
     14 N         -10.0149  -18.1550   20.4990 N.ar    1  UNL1       -0.2482
     15 C          -6.6397  -18.2416   22.5847 C.3     1  UNL1        0.1039
     16 N          -5.3966  -18.5176   21.7920 N.3     1  UNL1       -0.2664
     17 C          -4.0522  -18.1723   22.3608 C.3     1  UNL1        0.0899
     18 C          -5.4977  -19.1390   20.4305 C.3     1  UNL1        0.0899
     19 O          -9.5723  -15.8304   24.4681 O.3     1  UNL1       -0.4504
     20 C         -10.2099  -17.1805   24.3253 C.ar    1  UNL1        0.1454
     21 C          -9.5610  -18.3852   24.9397 C.ar    1  UNL1        0.0375
     22 C         -10.1986  -19.7354   24.7969 C.ar    1  UNL1        0.0031
     23 C         -11.4852  -19.8809   24.0397 C.ar    1  UNL1        0.0002
     24 C         -12.1343  -18.6762   23.4252 C.ar    1  UNL1        0.0031
     25 C         -11.4966  -17.3260   23.5680 C.ar    1  UNL1        0.0375
@<TRIPOS>BOND
     1     8     9    1
     2     9    10   ar
     3    10    11   ar
     4    11     7    1
     5     7     1    1
     6     1     2   ar
     7     2     3   ar
     8     3     4   ar
     9     4     5   ar
    10     5     6   ar
    11     6    19    1
    12    19    20    1
    13    20    21   ar
    14    21    22   ar
    15    22    23   ar
    16    23    24   ar
    17    24    25   ar
    18    11    12   ar
    19    12    15    1
    20    15    16    1
    21    16    17    1
    22    16    18    1
    23    12    13   ar
    24    13    14   ar
    25    14     9   ar
    26     6     1   ar
    27    25    20   ar
