@<TRIPOS>MOLECULE
*****
 32 35 0 0 0
SMALL
GASTEIGER

@<TRIPOS>ATOM
      1 C          -3.3940  -17.7147   21.9382 C.ar    1  UNL1        0.2218
      2 N          -2.0943  -18.4490   21.7911 N.ar    1  UNL1       -0.2119
      3 C          -2.0588  -19.7799   21.1003 C.ar    1  UNL1        0.1047
      4 C          -3.3230  -20.3766   20.5565 C.ar    1  UNL1        0.0552
      5 C          -4.6227  -19.6424   20.7036 C.ar    1  UNL1        0.1367
      6 N          -4.6582  -18.3114   21.3945 N.ar    1  UNL1       -0.1985
      7 N          -3.4295  -16.3838   22.6291 N.pl3   1  UNL1       -0.2825
      8 H          -2.7643  -15.6940   22.4032 H       1  UNL1        0.1551
      9 C          -6.5764  -15.5435   25.7341 C.ar    1  UNL1        0.0685
     10 C          -6.8082  -15.1492   24.3055 C.ar    1  UNL1        0.0115
     11 C          -5.7592  -15.4293   23.2705 C.ar    1  UNL1        0.0154
     12 C          -4.4785  -16.1037   23.6641 C.ar    1  UNL1        0.0505
     13 C          -4.2467  -16.4979   25.0926 C.ar    1  UNL1        0.0154
     14 C          -5.2957  -16.2178   26.1276 C.ar    1  UNL1        0.0115
     15 N          -8.6744  -14.9833   27.8040 N.1     1  UNL1       -0.1908
     16 C          -7.6254  -15.2634   26.7691 C.1     1  UNL1        0.1004
     17 N          -5.8870  -20.2391   20.1599 N.pl3   1  UNL1       -0.2943
     18 H          -5.8481  -20.8744   19.4088 H       1  UNL1        0.1537
     19 C          -7.2104  -19.8679   20.7604 C.ar    1  UNL1        0.1050
     20 C          -7.4470  -20.0575   22.2295 C.ar    1  UNL1        0.1557
     21 F          -6.3601  -20.6184   23.0980 F       1  UNL1       -0.2028
     22 C          -8.7704  -19.6863   22.8301 C.ar    1  UNL1        0.0311
     23 C          -9.8572  -19.1254   21.9617 C.ar    1  UNL1        0.0047
     24 C          -9.6207  -18.9358   20.4927 C.ar    1  UNL1        0.0311
     25 C          -8.2972  -19.3070   19.8920 C.ar    1  UNL1        0.1557
     26 F          -8.0607  -19.1174   18.4230 F       1  UNL1       -0.2028
     27 C         -11.1806  -18.7542   22.5622 C.ar    1  UNL1        0.0032
     28 C         -12.2426  -18.1274   21.7080 C.ar    1  UNL1        0.0207
     29 C         -13.5660  -17.7562   22.3086 C.ar    1  UNL1        0.0989
     30 N         -13.8275  -18.0116   23.7634 N.ar    1  UNL1       -0.2423
     31 C         -12.7657  -18.6383   24.6176 C.ar    1  UNL1        0.0989
     32 C         -11.4422  -19.0096   24.0170 C.ar    1  UNL1        0.0207
@<TRIPOS>BOND
     1    15    16    3
     2    16     9    1
     3     9    10   ar
     4    10    11   ar
     5    11    12   ar
     6    12     7    1
     7     7     1    1
     8     1     2   ar
     9     2     3   ar
    10     3     4   ar
    11     4     5   ar
    12     5    17    1
    13    17    19    1
    14    19    20   ar
    15    20    21    1
    16    20    22   ar
    17    22    23   ar
    18    23    27    1
    19    27    28   ar
    20    28    29   ar
    21    29    30   ar
    22    30    31   ar
    23    31    32   ar
    24    23    24   ar
    25    24    25   ar
    26    25    26    1
    27     5     6   ar
    28    12    13   ar
    29    13    14   ar
    30    14     9   ar
    31     6     1   ar
    32    25    19   ar
    33    32    27   ar
    34     7     8    1
    35    17    18    1
@<TRIPOS>MOLECULE
*****
 32 35 0 0 0
SMALL
GASTEIGER

@<TRIPOS>ATOM
      1 C          -3.3981  -17.7189   21.9499 C.ar    1  UNL1        0.2218
      2 N          -2.1000  -18.4567   21.8054 N.ar    1  UNL1       -0.2119
      3 C          -2.0670  -19.7882   21.1156 C.ar    1  UNL1        0.1047
      4 C          -3.3319  -20.3821   20.5703 C.ar    1  UNL1        0.0552
      5 C          -4.6299  -19.6443   20.7148 C.ar    1  UNL1        0.1367
      6 N          -4.6630  -18.3127   21.4046 N.ar    1  UNL1       -0.1985
      7 N          -3.4312  -16.3874   22.6397 N.pl3   1  UNL1       -0.2825
      8 H          -2.7647  -15.6991   22.4134 H       1  UNL1        0.1551
      9 C          -6.5769  -15.5388   25.7437 C.ar    1  UNL1        0.0685
     10 C          -5.2899  -16.1990   26.1410 C.ar    1  UNL1        0.0115
     11 C          -4.2414  -16.4818   25.1064 C.ar    1  UNL1        0.0154
     12 C          -4.4797  -16.1045   23.6743 C.ar    1  UNL1        0.0505
     13 C          -5.7667  -15.4444   23.2770 C.ar    1  UNL1        0.0154
     14 C          -6.8152  -15.1615   24.3116 C.ar    1  UNL1        0.0115
     15 N          -8.6740  -14.9731   27.8130 N.1     1  UNL1       -0.1908
     16 C          -7.6254  -15.2560   26.7783 C.1     1  UNL1        0.1004
     17 N          -5.8948  -20.2382   20.1695 N.pl3   1  UNL1       -0.2943
     18 H          -5.8568  -20.8707   19.4160 H       1  UNL1        0.1537
     19 C          -7.2177  -19.8683   20.7722 C.ar    1  UNL1        0.1050
     20 C          -8.3042  -19.3023   19.9066 C.ar    1  UNL1        0.1557
     21 F          -8.0678  -19.1061   18.4384 F       1  UNL1       -0.2028
     22 C          -9.6270  -18.9324   20.5093 C.ar    1  UNL1        0.0311
     23 C          -9.8634  -19.1285   21.9775 C.ar    1  UNL1        0.0047
     24 C          -8.7769  -19.6945   22.8431 C.ar    1  UNL1        0.0311
     25 C          -7.4540  -20.0644   22.2404 C.ar    1  UNL1        0.1557
     26 F          -6.3676  -20.6304   23.1059 F       1  UNL1       -0.2028
     27 C         -11.1862  -18.7586   22.5802 C.ar    1  UNL1        0.0032
     28 C         -11.4446  -19.0128   24.0358 C.ar    1  UNL1        0.0207
     29 C         -12.7674  -18.6430   24.6385 C.ar    1  UNL1        0.0989
     30 N         -13.8319  -18.0188   23.7856 N.ar    1  UNL1       -0.2423
     31 C         -13.5736  -17.7646   22.3301 C.ar    1  UNL1        0.0989
     32 C         -12.2507  -18.1345   21.7274 C.ar    1  UNL1        0.0207
@<TRIPOS>BOND
     1    15    16    3
     2    16     9    1
     3     9    10   ar
     4    10    11   ar
     5    11    12   ar
     6    12     7    1
     7     7     1    1
     8     1     2   ar
     9     2     3   ar
    10     3     4   ar
    11     4     5   ar
    12     5    17    1
    13    17    19    1
    14    19    20   ar
    15    20    21    1
    16    20    22   ar
    17    22    23   ar
    18    23    27    1
    19    27    28   ar
    20    28    29   ar
    21    29    30   ar
    22    30    31   ar
    23    31    32   ar
    24    23    24   ar
    25    24    25   ar
    26    25    26    1
    27     5     6   ar
    28    12    13   ar
    29    13    14   ar
    30    14     9   ar
    31     6     1   ar
    32    25    19   ar
    33    32    27   ar
    34     7     8    1
    35    17    18    1
@<TRIPOS>MOLECULE
*****
 32 35 0 0 0
SMALL
GASTEIGER

@<TRIPOS>ATOM
      1 C          -3.7055    3.0218   20.5942 C.ar    1  UNL1        0.2218
      2 N          -4.1688    3.5862   19.2839 N.ar    1  UNL1       -0.2119
      3 C          -3.1702    4.1353   18.3087 C.ar    1  UNL1        0.1047
      4 C          -1.7081    4.1199   18.6436 C.ar    1  UNL1        0.0552
      5 C          -1.2447    3.5555   19.9538 C.ar    1  UNL1        0.1367
      6 N          -2.2434    3.0064   20.9291 N.ar    1  UNL1       -0.1985
      7 N          -4.7041    2.4727   21.5695 N.pl3   1  UNL1       -0.2825
      8 H          -5.1626    1.6227   21.3785 H       1  UNL1        0.1551
      9 C          -5.6045    4.7108   25.3682 C.ar    1  UNL1        0.0685
     10 C          -4.3150    3.9572   25.2293 C.ar    1  UNL1        0.0115
     11 C          -4.0149    3.2112   23.9631 C.ar    1  UNL1        0.0154
     12 C          -5.0042    3.2187   22.8357 C.ar    1  UNL1        0.0505
     13 C          -6.2937    3.9724   22.9745 C.ar    1  UNL1        0.0154
     14 C          -6.5938    4.7184   24.2407 C.ar    1  UNL1        0.0115
     15 N          -6.2047    6.2029   27.9006 N.1     1  UNL1       -0.1908
     16 C          -5.9046    5.4569   26.6344 C.1     1  UNL1        0.1004
     17 N           0.2173    3.5402   20.2887 N.pl3   1  UNL1       -0.2943
     18 H           0.6956    4.3865   20.4442 H       1  UNL1        0.1537
     19 C           0.9506    2.2353   20.3867 C.ar    1  UNL1        0.1050
     20 C           1.1100    1.3714   19.1708 C.ar    1  UNL1        0.1557
     21 F           0.5359    1.8123   17.8570 F       1  UNL1       -0.2028
     22 C           1.8433    0.0666   19.2687 C.ar    1  UNL1        0.0311
     23 C           2.4173   -0.3744   20.5825 C.ar    1  UNL1        0.0047
     24 C           2.2580    0.4895   21.7984 C.ar    1  UNL1        0.0311
     25 C           1.5247    1.7944   21.7005 C.ar    1  UNL1        0.1557
     26 F           1.3654    2.6583   22.9163 F       1  UNL1       -0.2028
     27 C           3.1506   -1.6792   20.6805 C.ar    1  UNL1        0.0032
     28 C           3.1760   -2.6151   19.5085 C.ar    1  UNL1        0.0207
     29 C           3.9094   -3.9199   19.6065 C.ar    1  UNL1        0.0989
     30 N           4.6173   -4.2889   20.8764 N.ar    1  UNL1       -0.2423
     31 C           4.5919   -3.3531   22.0483 C.ar    1  UNL1        0.0989
     32 C           3.8586   -2.0482   21.9504 C.ar    1  UNL1        0.0207
@<TRIPOS>BOND
     1    15    16    3
     2    16     9    1
     3     9    10   ar
     4    10    11   ar
     5    11    12   ar
     6    12     7    1
     7     7     1    1
     8     1     2   ar
     9     2     3   ar
    10     3     4   ar
    11     4     5   ar
    12     5    17    1
    13    17    19    1
    14    19    20   ar
    15    20    21    1
    16    20    22   ar
    17    22    23   ar
    18    23    27    1
    19    27    28   ar
    20    28    29   ar
    21    29    30   ar
    22    30    31   ar
    23    31    32   ar
    24    23    24   ar
    25    24    25   ar
    26    25    26    1
    27     5     6   ar
    28    12    13   ar
    29    13    14   ar
    30    14     9   ar
    31     6     1   ar
    32    25    19   ar
    33    32    27   ar
    34     7     8    1
    35    17    18    1
@<TRIPOS>MOLECULE
*****
 32 35 0 0 0
SMALL
GASTEIGER

@<TRIPOS>ATOM
      1 C          -3.6297    3.0368   20.5008 C.ar    1  UNL1        0.2218
      2 N          -4.0485    3.6363   19.1911 N.ar    1  UNL1       -0.2119
      3 C          -3.0158    4.1951   18.2576 C.ar    1  UNL1        0.1047
      4 C          -1.5643    4.1544   18.6338 C.ar    1  UNL1        0.0552
      5 C          -1.1455    3.5550   19.9435 C.ar    1  UNL1        0.1367
      6 N          -2.1782    2.9962   20.8770 N.ar    1  UNL1       -0.1985
      7 N          -4.6623    2.4781   21.4342 N.pl3   1  UNL1       -0.2825
      8 H          -5.0823    1.6090   21.2404 H       1  UNL1        0.1551
      9 C          -5.8409    4.7741   25.1205 C.ar    1  UNL1        0.0685
     10 C          -4.5453    4.0189   25.0896 C.ar    1  UNL1        0.0115
     11 C          -4.1524    3.2536   23.8608 C.ar    1  UNL1        0.0154
     12 C          -5.0552    3.2434   22.6630 C.ar    1  UNL1        0.0505
     13 C          -6.3508    3.9986   22.6939 C.ar    1  UNL1        0.0154
     14 C          -6.7437    4.7640   23.9227 C.ar    1  UNL1        0.0115
     15 N          -6.6267    6.3048   27.5781 N.1     1  UNL1       -0.1908
     16 C          -6.2338    5.5395   26.3493 C.1     1  UNL1        0.1004
     17 N           0.3060    3.5143   20.3197 N.pl3   1  UNL1       -0.2943
     18 H           0.7914    4.3516   20.5002 H       1  UNL1        0.1537
     19 C           1.0179    2.1980   20.4209 C.ar    1  UNL1        0.1050
     20 C           1.6135    1.7659   21.7281 C.ar    1  UNL1        0.1557
     21 F           1.4971    2.6503   22.9340 F       1  UNL1       -0.2028
     22 C           2.3255    0.4496   21.8293 C.ar    1  UNL1        0.0311
     23 C           2.4419   -0.4348   20.6234 C.ar    1  UNL1        0.0047
     24 C           1.8463   -0.0029   19.3162 C.ar    1  UNL1        0.0311
     25 C           1.1343    1.3136   19.2150 C.ar    1  UNL1        0.1557
     26 F           0.5388    1.7455   17.9078 F       1  UNL1       -0.2028
     27 C           3.1538   -1.7512   20.7246 C.ar    1  UNL1        0.0032
     28 C           3.1496   -2.6976   19.5608 C.ar    1  UNL1        0.0207
     29 C           3.8615   -4.0140   19.6620 C.ar    1  UNL1        0.0989
     30 N           4.5778   -4.3840   20.9269 N.ar    1  UNL1       -0.2423
     31 C           4.5820   -3.4376   22.0907 C.ar    1  UNL1        0.0989
     32 C           3.8701   -2.1212   21.9895 C.ar    1  UNL1        0.0207
@<TRIPOS>BOND
     1    15    16    3
     2    16     9    1
     3     9    10   ar
     4    10    11   ar
     5    11    12   ar
     6    12     7    1
     7     7     1    1
     8     1     2   ar
     9     2     3   ar
    10     3     4   ar
    11     4     5   ar
    12     5    17    1
    13    17    19    1
    14    19    20   ar
    15    20    21    1
    16    20    22   ar
    17    22    23   ar
    18    23    27    1
    19    27    28   ar
    20    28    29   ar
    21    29    30   ar
    22    30    31   ar
    23    31    32   ar
    24    23    24   ar
    25    24    25   ar
    26    25    26    1
    27     5     6   ar
    28    12    13   ar
    29    13    14   ar
    30    14     9   ar
    31     6     1   ar
    32    25    19   ar
    33    32    27   ar
    34     7     8    1
    35    17    18    1
@<TRIPOS>MOLECULE
*****
 32 35 0 0 0
SMALL
GASTEIGER

@<TRIPOS>ATOM
      1 C         -11.0765  -16.4451   22.8946 C.ar    1  UNL1        0.2218
      2 N         -12.5331  -16.3779   22.5425 N.ar    1  UNL1       -0.2119
      3 C         -13.1431  -17.4339   21.6692 C.ar    1  UNL1        0.1047
      4 C         -12.2967  -18.5571   21.1480 C.ar    1  UNL1        0.0552
      5 C         -10.8402  -18.6245   21.5000 C.ar    1  UNL1        0.1367
      6 N         -10.2301  -17.5684   22.3734 N.ar    1  UNL1       -0.1985
      7 N         -10.4665  -15.3891   23.7679 N.pl3   1  UNL1       -0.2825
      8 H         -10.9706  -14.5688   23.9736 H       1  UNL1        0.1551
      9 C          -6.3326  -15.9706   25.4480 C.ar    1  UNL1        0.0685
     10 C          -6.5373  -15.9117   23.9632 C.ar    1  UNL1        0.0115
     11 C          -7.9153  -15.7179   23.4032 C.ar    1  UNL1        0.0154
     12 C          -9.0885  -15.5829   24.3279 C.ar    1  UNL1        0.0505
     13 C          -8.8838  -15.6418   25.8127 C.ar    1  UNL1        0.0154
     14 C          -7.5059  -15.8356   26.3727 C.ar    1  UNL1        0.0115
     15 N          -3.5766  -16.3582   26.5680 N.1     1  UNL1       -0.1908
     16 C          -4.9546  -16.1644   26.0080 C.1     1  UNL1        0.1004
     17 N          -9.9937  -19.7477   20.9788 N.pl3   1  UNL1       -0.2943
     18 H         -10.4158  -20.5882   20.6878 H       1  UNL1        0.1537
     19 C          -8.5040  -19.5906   20.9010 C.ar    1  UNL1        0.1050
     20 C          -7.6805  -19.6175   22.1545 C.ar    1  UNL1        0.1557
     21 F          -8.3467  -19.8016   23.4858 F       1  UNL1       -0.2028
     22 C          -6.1908  -19.4604   22.0767 C.ar    1  UNL1        0.0311
     23 C          -5.5245  -19.2763   20.7455 C.ar    1  UNL1        0.0047
     24 C          -6.3480  -19.2493   19.4920 C.ar    1  UNL1        0.0311
     25 C          -7.8377  -19.4065   19.5698 C.ar    1  UNL1        0.1557
     26 F          -8.6612  -19.3796   18.3163 F       1  UNL1       -0.2028
     27 C          -4.0349  -19.1191   20.6677 C.ar    1  UNL1        0.0032
     28 C          -3.3998  -18.6018   19.4110 C.ar    1  UNL1        0.0207
     29 C          -1.9102  -18.4446   19.3332 C.ar    1  UNL1        0.0989
     30 N          -1.0554  -18.8047   20.5121 N.ar    1  UNL1       -0.2423
     31 C          -1.6903  -19.3220   21.7687 C.ar    1  UNL1        0.0989
     32 C          -3.1801  -19.4792   21.8466 C.ar    1  UNL1        0.0207
@<TRIPOS>BOND
     1    15    16    3
     2    16     9    1
     3     9    10   ar
     4    10    11   ar
     5    11    12   ar
     6    12     7    1
     7     7     1    1
     8     1     2   ar
     9     2     3   ar
    10     3     4   ar
    11     4     5   ar
    12     5    17    1
    13    17    19    1
    14    19    20   ar
    15    20    21    1
    16    20    22   ar
    17    22    23   ar
    18    23    27    1
    19    27    28   ar
    20    28    29   ar
    21    29    30   ar
    22    30    31   ar
    23    31    32   ar
    24    23    24   ar
    25    24    25   ar
    26    25    26    1
    27     5     6   ar
    28    12    13   ar
    29    13    14   ar
    30    14     9   ar
    31     6     1   ar
    32    25    19   ar
    33    32    27   ar
    34     7     8    1
    35    17    18    1
@<TRIPOS>MOLECULE
*****
 32 35 0 0 0
SMALL
GASTEIGER

@<TRIPOS>ATOM
      1 C         -11.0760  -16.4456   22.8921 C.ar    1  UNL1        0.2218
      2 N         -12.5325  -16.3795   22.5393 N.ar    1  UNL1       -0.2119
      3 C         -13.1413  -17.4362   21.6661 C.ar    1  UNL1        0.1047
      4 C         -12.2937  -18.5590   21.1455 C.ar    1  UNL1        0.0552
      5 C         -10.8373  -18.6251   21.4982 C.ar    1  UNL1        0.1367
      6 N         -10.2284  -17.5684   22.3716 N.ar    1  UNL1       -0.1985
      7 N         -10.4672  -15.3889   23.7654 N.pl3   1  UNL1       -0.2825
      8 H         -10.9716  -14.5686   23.9700 H       1  UNL1        0.1551
      9 C          -6.3349  -15.9683   25.4502 C.ar    1  UNL1        0.0685
     10 C          -7.5093  -15.8340   26.3736 C.ar    1  UNL1        0.0115
     11 C          -8.8867  -15.6408   25.8120 C.ar    1  UNL1        0.0154
     12 C          -9.0897  -15.5820   24.3270 C.ar    1  UNL1        0.0505
     13 C          -7.9153  -15.7164   23.4036 C.ar    1  UNL1        0.0154
     14 C          -6.5379  -15.9095   23.9652 C.ar    1  UNL1        0.0115
     15 N          -3.5800  -16.3546   26.5735 N.1     1  UNL1       -0.1908
     16 C          -4.9575  -16.1614   26.0119 C.1     1  UNL1        0.1004
     17 N          -9.9898  -19.7479   20.9777 N.pl3   1  UNL1       -0.2943
     18 H         -10.4112  -20.5887   20.6866 H       1  UNL1        0.1537
     19 C          -8.5002  -19.5897   20.9006 C.ar    1  UNL1        0.1050
     20 C          -7.8333  -19.4065   19.5695 C.ar    1  UNL1        0.1557
     21 F          -8.6561  -19.3815   18.3155 F       1  UNL1       -0.2028
     22 C          -6.3437  -19.2482   19.4924 C.ar    1  UNL1        0.0311
     23 C          -5.5209  -19.2732   20.7464 C.ar    1  UNL1        0.0047
     24 C          -6.1877  -19.4564   22.0774 C.ar    1  UNL1        0.0311
     25 C          -7.6774  -19.6147   22.1546 C.ar    1  UNL1        0.1557
     26 F          -8.3442  -19.7979   23.4856 F       1  UNL1       -0.2028
     27 C          -4.0313  -19.1150   20.6693 C.ar    1  UNL1        0.0032
     28 C          -3.1773  -19.4691   21.8506 C.ar    1  UNL1        0.0207
     29 C          -1.6877  -19.3109   21.7735 C.ar    1  UNL1        0.0989
     30 N          -1.0520  -18.7985   20.5151 N.ar    1  UNL1       -0.2423
     31 C          -1.9059  -18.4444   19.3339 C.ar    1  UNL1        0.0989
     32 C          -3.3956  -18.6026   19.4110 C.ar    1  UNL1        0.0207
@<TRIPOS>BOND
     1    15    16    3
     2    16     9    1
     3     9    10   ar
     4    10    11   ar
     5    11    12   ar
     6    12     7    1
     7     7     1    1
     8     1     2   ar
     9     2     3   ar
    10     3     4   ar
    11     4     5   ar
    12     5    17    1
    13    17    19    1
    14    19    20   ar
    15    20    21    1
    16    20    22   ar
    17    22    23   ar
    18    23    27    1
    19    27    28   ar
    20    28    29   ar
    21    29    30   ar
    22    30    31   ar
    23    31    32   ar
    24    23    24   ar
    25    24    25   ar
    26    25    26    1
    27     5     6   ar
    28    12    13   ar
    29    13    14   ar
    30    14     9   ar
    31     6     1   ar
    32    25    19   ar
    33    32    27   ar
    34     7     8    1
    35    17    18    1
@<TRIPOS>MOLECULE
*****
 32 35 0 0 0
SMALL
GASTEIGER

@<TRIPOS>ATOM
      1 C          -3.2036    3.2881   21.5338 C.ar    1  UNL1        0.2218
      2 N          -3.1333    4.1579   22.7538 N.ar    1  UNL1       -0.2119
      3 C          -1.8261    4.7669   23.1665 C.ar    1  UNL1        0.1047
      4 C          -0.5891    4.5060   22.3591 C.ar    1  UNL1        0.0552
      5 C          -0.6594    3.6362   21.1391 C.ar    1  UNL1        0.1367
      6 N          -1.9666    3.0272   20.7264 N.ar    1  UNL1       -0.1985
      7 N          -4.5108    2.6792   21.1211 N.pl3   1  UNL1       -0.2825
      8 H          -4.6789    1.7217   21.2769 H       1  UNL1        0.1551
      9 C          -7.6646    5.2288   19.1709 C.ar    1  UNL1        0.0685
     10 C          -7.3154    5.4410   20.6142 C.ar    1  UNL1        0.0115
     11 C          -6.2641    4.5911   21.2642 C.ar    1  UNL1        0.0154
     12 C          -5.5621    3.5290   20.4710 C.ar    1  UNL1        0.0505
     13 C          -5.9114    3.3168   19.0278 C.ar    1  UNL1        0.0154
     14 C          -6.9626    4.1667   18.3778 C.ar    1  UNL1        0.0115
     15 N          -9.7672    6.9285   17.8708 N.1     1  UNL1       -0.1908
     16 C          -8.7159    6.0786   18.5209 C.1     1  UNL1        0.1004
     17 N           0.5776    3.3753   20.3318 N.pl3   1  UNL1       -0.2943
     18 H           0.9353    4.0753   19.7390 H       1  UNL1        0.1537
     19 C           1.2696    2.0479   20.4275 C.ar    1  UNL1        0.1050
     20 C           2.0232    1.6830   21.6721 C.ar    1  UNL1        0.1557
     21 F           2.0847    2.6454   22.8210 F       1  UNL1       -0.2028
     22 C           2.7152    0.3556   21.7678 C.ar    1  UNL1        0.0311
     23 C           2.6537   -0.6069   20.6190 C.ar    1  UNL1        0.0047
     24 C           1.9002   -0.2420   19.3744 C.ar    1  UNL1        0.0311
     25 C           1.2081    1.0855   19.2786 C.ar    1  UNL1        0.1557
     26 F           0.4546    1.4503   18.0341 F       1  UNL1       -0.2028
     27 C           3.3457   -1.9342   20.7147 C.ar    1  UNL1        0.0032
     28 C           4.0181   -2.3391   21.9931 C.ar    1  UNL1        0.0207
     29 C           4.7101   -3.6664   22.0888 C.ar    1  UNL1        0.0989
     30 N           4.7297   -4.5890   20.9062 N.ar    1  UNL1       -0.2423
     31 C           4.0574   -4.1842   19.6279 C.ar    1  UNL1        0.0989
     32 C           3.3654   -2.8568   19.5321 C.ar    1  UNL1        0.0207
@<TRIPOS>BOND
     1    15    16    3
     2    16     9    1
     3     9    10   ar
     4    10    11   ar
     5    11    12   ar
     6    12     7    1
     7     7     1    1
     8     1     2   ar
     9     2     3   ar
    10     3     4   ar
    11     4     5   ar
    12     5    17    1
    13    17    19    1
    14    19    20   ar
    15    20    21    1
    16    20    22   ar
    17    22    23   ar
    18    23    27    1
    19    27    28   ar
    20    28    29   ar
    21    29    30   ar
    22    30    31   ar
    23    31    32   ar
    24    23    24   ar
    25    24    25   ar
    26    25    26    1
    27     5     6   ar
    28    12    13   ar
    29    13    14   ar
    30    14     9   ar
    31     6     1   ar
    32    25    19   ar
    33    32    27   ar
    34     7     8    1
    35    17    18    1
@<TRIPOS>MOLECULE
*****
 32 35 0 0 0
SMALL
GASTEIGER

@<TRIPOS>ATOM
      1 C          -0.3918    1.9714   20.4973 C.ar    1  UNL1        0.2218
      2 N          -0.4197    2.8525   19.2835 N.ar    1  UNL1       -0.2119
      3 C          -0.6793    4.3225   19.4297 C.ar    1  UNL1        0.1047
      4 C          -0.9110    4.9117   20.7896 C.ar    1  UNL1        0.0552
      5 C          -0.8831    4.0307   22.0033 C.ar    1  UNL1        0.1367
      6 N          -0.6235    2.5605   21.8571 N.ar    1  UNL1       -0.1985
      7 N          -0.1323    0.5013   20.3510 N.pl3   1  UNL1       -0.2825
      8 H          -0.8148   -0.1495   20.6336 H       1  UNL1        0.1551
      9 C           3.7659   -0.9341   18.6208 C.ar    1  UNL1        0.0685
     10 C           2.9129    0.0295   17.8503 C.ar    1  UNL1        0.0115
     11 C           1.6136    0.5080   18.4270 C.ar    1  UNL1        0.0154
     12 C           1.1671    0.0228   19.7743 C.ar    1  UNL1        0.0505
     13 C           2.0201   -0.9408   20.5449 C.ar    1  UNL1        0.0154
     14 C           3.3195   -1.4193   19.9681 C.ar    1  UNL1        0.0115
     15 N           6.3647   -1.8911   17.4673 N.1     1  UNL1       -0.1908
     16 C           5.0653   -1.4126   18.0441 C.1     1  UNL1        0.1004
     17 N          -1.1148    4.6198   23.3632 N.pl3   1  UNL1       -0.2943
     18 H          -1.5825    5.4814   23.4532 H       1  UNL1        0.1537
     19 C          -0.6340    3.8961   24.5859 C.ar    1  UNL1        0.1050
     20 C          -1.6147    3.1854   25.4710 C.ar    1  UNL1        0.1557
     21 F          -3.0761    3.1985   25.1333 F       1  UNL1       -0.2028
     22 C          -1.1339    2.4617   26.6937 C.ar    1  UNL1        0.0311
     23 C           0.3275    2.4487   27.0314 C.ar    1  UNL1        0.0047
     24 C           1.3082    3.1593   26.1463 C.ar    1  UNL1        0.0311
     25 C           0.8274    3.8830   24.9236 C.ar    1  UNL1        0.1557
     26 F           1.8081    4.5936   24.0385 F       1  UNL1       -0.2028
     27 C           0.8083    1.7250   28.2541 C.ar    1  UNL1        0.0032
     28 C           0.6140    2.3340   29.6111 C.ar    1  UNL1        0.0207
     29 C           1.0948    1.6103   30.8338 C.ar    1  UNL1        0.0989
     30 N           1.7699    0.2776   30.6996 N.ar    1  UNL1       -0.2423
     31 C           1.9642   -0.3315   29.3427 C.ar    1  UNL1        0.0989
     32 C           1.4834    0.3922   28.1199 C.ar    1  UNL1        0.0207
@<TRIPOS>BOND
     1    15    16    3
     2    16     9    1
     3     9    10   ar
     4    10    11   ar
     5    11    12   ar
     6    12     7    1
     7     7     1    1
     8     1     2   ar
     9     2     3   ar
    10     3     4   ar
    11     4     5   ar
    12     5    17    1
    13    17    19    1
    14    19    20   ar
    15    20    21    1
    16    20    22   ar
    17    22    23   ar
    18    23    27    1
    19    27    28   ar
    20    28    29   ar
    21    29    30   ar
    22    30    31   ar
    23    31    32   ar
    24    23    24   ar
    25    24    25   ar
    26    25    26    1
    27     5     6   ar
    28    12    13   ar
    29    13    14   ar
    30    14     9   ar
    31     6     1   ar
    32    25    19   ar
    33    32    27   ar
    34     7     8    1
    35    17    18    1
@<TRIPOS>MOLECULE
*****
 32 35 0 0 0
SMALL
GASTEIGER

@<TRIPOS>ATOM
      1 C          -1.6822    4.1469   23.8433 C.ar    1  UNL1        0.2218
      2 N          -3.0465    3.9610   23.2481 N.ar    1  UNL1       -0.2119
      3 C          -3.1891    3.5685   21.8074 C.ar    1  UNL1        0.1047
      4 C          -1.9675    3.3620   20.9619 C.ar    1  UNL1        0.0552
      5 C          -0.6032    3.5479   21.5570 C.ar    1  UNL1        0.1367
      6 N          -0.4605    3.9404   22.9977 N.ar    1  UNL1       -0.1985
      7 N          -1.5395    4.5394   25.2839 N.pl3   1  UNL1       -0.2825
      8 H          -1.8497    5.4235   25.5863 H       1  UNL1        0.1551
      9 C           0.3060    1.6759   28.2240 C.ar    1  UNL1        0.0685
     10 C          -0.3276    1.1562   26.9677 C.ar    1  UNL1        0.0115
     11 C          -0.9428    2.1107   25.9877 C.ar    1  UNL1        0.0154
     12 C          -0.9244    3.5849   26.2640 C.ar    1  UNL1        0.0505
     13 C          -0.2908    4.1046   27.5203 C.ar    1  UNL1        0.0154
     14 C           0.3244    3.1500   28.5003 C.ar    1  UNL1        0.0115
     15 N           1.5363   -0.2332   30.1841 N.1     1  UNL1       -0.1908
     16 C           0.9211    0.7213   29.2041 C.1     1  UNL1        0.1004
     17 N           0.6184    3.3414   20.7114 N.pl3   1  UNL1       -0.2943
     18 H           0.9645    4.0785   20.1581 H       1  UNL1        0.1537
     19 C           1.3128    2.0118   20.7088 C.ar    1  UNL1        0.1050
     20 C           1.1887    1.1032   19.5218 C.ar    1  UNL1        0.1557
     21 F           0.3703    1.5242   18.3373 F       1  UNL1       -0.2028
     22 C           1.8831   -0.2264   19.5192 C.ar    1  UNL1        0.0311
     23 C           2.7015   -0.6474   20.7037 C.ar    1  UNL1        0.0047
     24 C           2.8255    0.2611   21.8907 C.ar    1  UNL1        0.0311
     25 C           2.1312    1.5908   21.8933 C.ar    1  UNL1        0.1557
     26 F           2.2552    2.4993   23.0803 F       1  UNL1       -0.2028
     27 C           3.3958   -1.9770   20.7011 C.ar    1  UNL1        0.0032
     28 C           4.0943   -2.4608   21.9373 C.ar    1  UNL1        0.0207
     29 C           4.7887   -3.7903   21.9348 C.ar    1  UNL1        0.0989
     30 N           4.7846   -4.6362   20.6960 N.ar    1  UNL1       -0.2423
     31 C           4.0861   -4.1526   19.4599 C.ar    1  UNL1        0.0989
     32 C           3.3917   -2.8229   19.4624 C.ar    1  UNL1        0.0207
@<TRIPOS>BOND
     1    15    16    3
     2    16     9    1
     3     9    10   ar
     4    10    11   ar
     5    11    12   ar
     6    12     7    1
     7     7     1    1
     8     1     2   ar
     9     2     3   ar
    10     3     4   ar
    11     4     5   ar
    12     5    17    1
    13    17    19    1
    14    19    20   ar
    15    20    21    1
    16    20    22   ar
    17    22    23   ar
    18    23    27    1
    19    27    28   ar
    20    28    29   ar
    21    29    30   ar
    22    30    31   ar
    23    31    32   ar
    24    23    24   ar
    25    24    25   ar
    26    25    26    1
    27     5     6   ar
    28    12    13   ar
    29    13    14   ar
    30    14     9   ar
    31     6     1   ar
    32    25    19   ar
    33    32    27   ar
    34     7     8    1
    35    17    18    1
