@<TRIPOS>MOLECULE
*****
 33 36 0 0 0
SMALL
GASTEIGER

@<TRIPOS>ATOM
      1 C          -7.6388  -16.7430   22.4944 C.ar    1  UNL1        0.2490
      2 N          -7.9829  -15.4447   23.1622 N.ar    1  UNL1       -0.1863
      3 C          -6.9873  -14.7788   24.0652 C.ar    1  UNL1        0.2225
      4 N          -5.6477  -15.4113   24.3005 N.ar    1  UNL1       -0.1420
      5 N          -5.3037  -16.7096   23.6327 N.ar    1  UNL1       -0.2193
      6 C          -4.0715  -17.5640   23.6743 C.ar    1  UNL1        0.1371
      7 C          -4.3055  -18.7580   22.7970 C.ar    1  UNL1        0.1554
      8 C          -5.6823  -18.6414   22.2132 C.ar    1  UNL1        0.0359
      9 C          -6.3288  -19.6192   21.2772 C.3     1  UNL1        0.0360
     10 C          -6.2992  -17.3755   22.7297 C.ar    1  UNL1        0.1353
     11 O          -8.6344  -17.4089   21.5914 O.3     1  UNL1       -0.4328
     12 C         -14.9602  -18.7645   26.0378 C.3     1  UNL1        0.0521
     13 C         -13.9434  -18.4420   24.9832 C.2     1  UNL1        0.0591
     14 C         -12.4536  -18.4961   25.1489 C.2     1  UNL1        0.0182
     15 C         -11.8274  -18.0963   23.8458 C.2     1  UNL1        0.0455
     16 C         -10.3955  -17.9676   23.4181 C.2     1  UNL1        0.1752
     17 F          -9.2926  -18.2688   24.3892 F       1  UNL1       -0.2009
     18 C         -10.0663  -17.5376   22.0192 C.2     1  UNL1        0.1706
     19 C         -11.1692  -17.2364   21.0481 C.2     1  UNL1        0.0201
     20 C         -12.6011  -17.3651   21.4759 C.3     1  UNL1        0.0751
     21 C         -12.9302  -17.7951   22.8747 C.2     1  UNL1        0.0653
     22 N         -14.2380  -18.0087   23.5777 N.2     1  UNL1       -0.2536
     23 O          -3.3334  -19.8728   22.5473 O.3     1  UNL1       -0.4703
     24 C          -2.3435  -19.7674   21.4253 C.3     1  UNL1        0.2486
     25 C          -2.8164  -19.4689   20.0334 C.3     1  UNL1        0.2123
     26 C          -3.6797  -20.4571   19.3065 C.3     1  UNL1        0.0514
     27 O          -2.4262  -18.1823   19.3685 O.3     1  UNL1       -0.4474
     28 C          -1.7433  -17.1062   20.1595 C.2     1  UNL1        0.3331
     29 O          -2.5483  -16.1977   21.0408 O.2     1  UNL1       -0.2486
     30 C          -0.2554  -16.9386   20.0694 C.3     1  UNL1        0.1764
     31 N           0.6525  -18.0441   20.5205 N.3     1  UNL1       -0.3119
     32 H           0.5561  -18.1737   21.5276 H       1  UNL1        0.1193
     33 H           1.6185  -17.8021   20.2998 H       1  UNL1        0.1193
@<TRIPOS>BOND
     1    12    13    1
     2    13    14    2
     3    14    15    1
     4    15    16    2
     5    16    17    1
     6    16    18    1
     7    18    11    1
     8    11     1    1
     9     1     2   ar
    10     2     3   ar
    11     3     4   ar
    12     4     5   ar
    13     5     6   ar
    14     6     7   ar
    15     7    23    1
    16    23    24    1
    17    24    25    1
    18    25    26    1
    19    25    27    1
    20    27    28    1
    21    28    29    2
    22    28    30    1
    23    30    31    1
    24     7     8   ar
    25     8     9    1
    26     8    10   ar
    27    18    19    2
    28    19    20    1
    29    20    21    1
    30    21    22    2
    31    22    13    1
    32    21    15    1
    33    10     1   ar
    34    10     5   ar
    35    31    32    1
    36    31    33    1
@<TRIPOS>MOLECULE
*****
 33 36 0 0 0
SMALL
GASTEIGER

@<TRIPOS>ATOM
      1 C          -8.1111  -18.5190   20.5884 C.ar    1  UNL1        0.2490
      2 N          -8.7042  -19.3286   19.4736 N.ar    1  UNL1       -0.1863
      3 C          -8.0015  -20.5606   18.9852 C.ar    1  UNL1        0.2225
      4 N          -6.7057  -20.9829   19.6117 N.ar    1  UNL1       -0.1420
      5 N          -6.1126  -20.1734   20.7265 N.ar    1  UNL1       -0.2193
      6 C          -4.8583  -20.3414   21.5317 C.ar    1  UNL1        0.1371
      7 C          -4.7857  -19.2134   22.5177 C.ar    1  UNL1        0.1554
      8 C          -5.9953  -18.3481   22.3219 C.ar    1  UNL1        0.0359
      9 C          -6.3266  -17.1074   23.0970 C.3     1  UNL1        0.0360
     10 C          -6.8153  -18.9414   21.2148 C.ar    1  UNL1        0.1353
     11 O          -8.8138  -17.2871   21.0767 O.3     1  UNL1       -0.4328
     12 C         -14.6786  -18.7373   26.0892 C.3     1  UNL1        0.0521
     13 C         -13.7676  -18.3718   24.9549 C.2     1  UNL1        0.0591
     14 C         -12.2733  -18.5027   24.9468 C.2     1  UNL1        0.0182
     15 C         -11.7732  -18.0230   23.6165 C.2     1  UNL1        0.0455
     16 C         -10.3917  -17.9202   23.0413 C.2     1  UNL1        0.1752
     17 F          -9.2065  -18.3476   23.8554 F       1  UNL1       -0.2009
     18 C         -10.1953  -17.3899   21.6519 C.2     1  UNL1        0.1706
     19 C         -11.3804  -16.9625   20.8378 C.2     1  UNL1        0.0201
     20 C         -12.7620  -17.0654   21.4131 C.3     1  UNL1        0.0751
     21 C         -12.9583  -17.5956   22.8024 C.2     1  UNL1        0.0653
     22 N         -14.1909  -17.8112   23.6296 N.2     1  UNL1       -0.2536
     23 O          -3.6952  -18.9898   23.5230 O.3     1  UNL1       -0.4703
     24 C          -2.8156  -17.7793   23.4187 C.3     1  UNL1        0.2486
     25 C          -2.0971  -17.4826   22.1359 C.3     1  UNL1        0.2123
     26 C          -1.9806  -16.0677   21.6515 C.3     1  UNL1        0.0514
     27 O          -1.4951  -18.6006   21.3375 O.3     1  UNL1       -0.4474
     28 C          -1.5454  -18.5637   19.8388 C.2     1  UNL1        0.3331
     29 O          -0.3150  -18.2137   19.0554 O.2     1  UNL1       -0.2486
     30 C          -2.8261  -18.8767   19.1234 C.3     1  UNL1        0.1764
     31 N          -3.9050  -17.8389   19.0282 N.3     1  UNL1       -0.3119
     32 H          -4.2728  -17.6445   19.9595 H       1  UNL1        0.1193
     33 H          -4.6566  -18.1836   18.4310 H       1  UNL1        0.1193
@<TRIPOS>BOND
     1    12    13    1
     2    13    14    2
     3    14    15    1
     4    15    16    2
     5    16    17    1
     6    16    18    1
     7    18    11    1
     8    11     1    1
     9     1     2   ar
    10     2     3   ar
    11     3     4   ar
    12     4     5   ar
    13     5     6   ar
    14     6     7   ar
    15     7    23    1
    16    23    24    1
    17    24    25    1
    18    25    26    1
    19    25    27    1
    20    27    28    1
    21    28    29    2
    22    28    30    1
    23    30    31    1
    24     7     8   ar
    25     8     9    1
    26     8    10   ar
    27    18    19    2
    28    19    20    1
    29    20    21    1
    30    21    22    2
    31    22    13    1
    32    21    15    1
    33    10     1   ar
    34    10     5   ar
    35    31    32    1
    36    31    33    1
@<TRIPOS>MOLECULE
*****
 33 36 0 0 0
SMALL
GASTEIGER

@<TRIPOS>ATOM
      1 C          -6.6080  -17.6223   23.0990 C.ar    1  UNL1        0.2490
      2 N          -5.7579  -16.4024   23.2965 N.ar    1  UNL1       -0.1863
      3 C          -6.3543  -15.1607   23.8903 C.ar    1  UNL1        0.2225
      4 N          -7.8008  -15.1389   24.2865 N.ar    1  UNL1       -0.1420
      5 N          -8.6509  -16.3589   24.0889 N.ar    1  UNL1       -0.2193
      6 C         -10.0963  -16.6331   24.3815 C.ar    1  UNL1        0.1371
      7 C         -10.3933  -18.0442   23.9686 C.ar    1  UNL1        0.1554
      8 C          -9.1313  -18.6421   23.4208 C.ar    1  UNL1        0.0359
      9 C          -8.9739  -20.0368   22.8916 C.3     1  UNL1        0.0360
     10 C          -8.0545  -17.6005   23.4952 C.ar    1  UNL1        0.1353
     11 O          -6.0116  -18.8640   22.5053 O.3     1  UNL1       -0.4328
     12 C           1.2601  -17.4945   19.8841 C.3     1  UNL1        0.0521
     13 C          -0.1820  -17.8375   20.1138 C.2     1  UNL1        0.0591
     14 C          -0.9194  -17.7216   21.4148 C.2     1  UNL1        0.0182
     15 C          -2.3331  -18.1691   21.1879 C.2     1  UNL1        0.0455
     16 C          -3.5138  -18.2699   22.1075 C.2     1  UNL1        0.1752
     17 F          -3.3776  -17.8775   23.5488 F       1  UNL1       -0.2009
     18 C          -4.8308  -18.7632   21.5857 C.2     1  UNL1        0.1706
     19 C          -4.9671  -19.1556   20.1444 C.2     1  UNL1        0.0201
     20 C          -3.7862  -19.0548   19.2248 C.3     1  UNL1        0.0751
     21 C          -2.4693  -18.5615   19.7465 C.2     1  UNL1        0.0653
     22 N          -1.1399  -18.3566   19.0827 N.2     1  UNL1       -0.2536
     23 O         -11.7193  -18.7360   24.0833 O.3     1  UNL1       -0.4703
     24 C         -12.9177  -18.1834   23.3703 C.3     1  UNL1        0.2486
     25 C         -12.7368  -17.2163   22.2380 C.3     1  UNL1        0.2123
     26 C         -12.8075  -15.7400   22.4941 C.3     1  UNL1        0.0514
     27 O         -12.4852  -17.7255   20.8497 O.3     1  UNL1       -0.4474
     28 C         -11.2691  -17.2765   20.0951 C.2     1  UNL1        0.3331
     29 O         -10.0108  -18.0912   20.1472 O.2     1  UNL1       -0.2486
     30 C         -11.3113  -16.0127   19.2883 C.3     1  UNL1        0.1764
     31 N         -12.6282  -15.3656   18.9763 N.3     1  UNL1       -0.3119
     32 H         -13.1708  -15.9763   18.3655 H       1  UNL1        0.1193
     33 H         -12.4664  -14.4737   18.5087 H       1  UNL1        0.1193
@<TRIPOS>BOND
     1    12    13    1
     2    13    14    2
     3    14    15    1
     4    15    16    2
     5    16    17    1
     6    16    18    1
     7    18    11    1
     8    11     1    1
     9     1     2   ar
    10     2     3   ar
    11     3     4   ar
    12     4     5   ar
    13     5     6   ar
    14     6     7   ar
    15     7    23    1
    16    23    24    1
    17    24    25    1
    18    25    26    1
    19    25    27    1
    20    27    28    1
    21    28    29    2
    22    28    30    1
    23    30    31    1
    24     7     8   ar
    25     8     9    1
    26     8    10   ar
    27    18    19    2
    28    19    20    1
    29    20    21    1
    30    21    22    2
    31    22    13    1
    32    21    15    1
    33    10     1   ar
    34    10     5   ar
    35    31    32    1
    36    31    33    1
@<TRIPOS>MOLECULE
*****
 33 36 0 0 0
SMALL
GASTEIGER

@<TRIPOS>ATOM
      1 C          -6.4236  -17.4628   23.0607 C.ar    1  UNL1        0.2490
      2 N          -5.7398  -16.4756   23.9595 N.ar    1  UNL1       -0.1863
      3 C          -6.4397  -15.2082   24.3516 C.ar    1  UNL1        0.2225
      4 N          -7.8234  -14.9279   23.8449 N.ar    1  UNL1       -0.1420
      5 N          -8.5072  -15.9151   22.9460 N.ar    1  UNL1       -0.2193
      6 C          -9.8587  -15.9116   22.2954 C.ar    1  UNL1        0.1371
      7 C          -9.9941  -17.1769   21.5012 C.ar    1  UNL1        0.1554
      8 C          -8.7262  -17.9623   21.6610 C.ar    1  UNL1        0.0359
      9 C          -8.4294  -19.2938   21.0373 C.3     1  UNL1        0.0360
     10 C          -7.8072  -17.1825   22.5539 C.ar    1  UNL1        0.1353
     11 O          -5.7236  -18.7302   22.6685 O.3     1  UNL1       -0.4328
     12 C           1.4239  -17.2845   19.7623 C.3     1  UNL1        0.0521
     13 C           0.0084  -17.6812   20.0608 C.2     1  UNL1        0.0591
     14 C          -0.7236  -17.4354   21.3468 C.2     1  UNL1        0.0182
     15 C          -2.1080  -17.9956   21.2066 C.2     1  UNL1        0.0455
     16 C          -3.2720  -18.0431   22.1514 C.2     1  UNL1        0.1752
     17 F          -3.1484  -17.4510   23.5241 F       1  UNL1       -0.2009
     18 C          -4.5596  -18.6827   21.7237 C.2     1  UNL1        0.1706
     19 C          -4.6832  -19.2748   20.3510 C.2     1  UNL1        0.0201
     20 C          -3.5192  -19.2272   19.4061 C.3     1  UNL1        0.0751
     21 C          -2.2316  -18.5877   19.8339 C.2     1  UNL1        0.0653
     22 N          -0.9236  -18.3934   19.1258 N.2     1  UNL1       -0.2536
     23 O         -11.1878  -17.5850   20.6897 O.3     1  UNL1       -0.4703
     24 C         -12.4571  -17.9941   21.3762 C.3     1  UNL1        0.2486
     25 C         -12.4074  -18.5884   22.7526 C.3     1  UNL1        0.2123
     26 C         -13.3111  -18.0640   23.8290 C.3     1  UNL1        0.0514
     27 O         -11.4542  -19.7069   23.0526 O.3     1  UNL1       -0.4474
     28 C         -10.5512  -19.6227   24.2474 C.2     1  UNL1        0.3331
     29 O          -9.8170  -20.8423   24.7201 O.2     1  UNL1       -0.2486
     30 C         -10.3825  -18.3189   24.9696 C.3     1  UNL1        0.1764
     31 N          -9.4760  -18.2336   26.1616 N.3     1  UNL1       -0.3119
     32 H          -9.8566  -18.8004   26.9194 H       1  UNL1        0.1193
     33 H          -9.4050  -17.2626   26.4659 H       1  UNL1        0.1193
@<TRIPOS>BOND
     1    12    13    1
     2    13    14    2
     3    14    15    1
     4    15    16    2
     5    16    17    1
     6    16    18    1
     7    18    11    1
     8    11     1    1
     9     1     2   ar
    10     2     3   ar
    11     3     4   ar
    12     4     5   ar
    13     5     6   ar
    14     6     7   ar
    15     7    23    1
    16    23    24    1
    17    24    25    1
    18    25    26    1
    19    25    27    1
    20    27    28    1
    21    28    29    2
    22    28    30    1
    23    30    31    1
    24     7     8   ar
    25     8     9    1
    26     8    10   ar
    27    18    19    2
    28    19    20    1
    29    20    21    1
    30    21    22    2
    31    22    13    1
    32    21    15    1
    33    10     1   ar
    34    10     5   ar
    35    31    32    1
    36    31    33    1
@<TRIPOS>MOLECULE
*****
 33 36 0 0 0
SMALL
GASTEIGER

@<TRIPOS>ATOM
      1 C         -11.9577   -5.8451   17.5908 C.ar    1  UNL1        0.2490
      2 N         -11.0262   -6.7819   18.3013 N.ar    1  UNL1       -0.1863
      3 C          -9.8866   -6.2363   19.1099 C.ar    1  UNL1        0.2225
      4 N          -9.6785   -4.7541   19.2079 N.ar    1  UNL1       -0.1420
      5 N         -10.6100   -3.8174   18.4974 N.ar    1  UNL1       -0.2193
      6 C         -10.6550   -2.3206   18.4109 C.ar    1  UNL1        0.1371
      7 C         -11.8224   -1.9410   17.5488 C.ar    1  UNL1        0.1554
      8 C         -12.4988   -3.2032   17.1026 C.ar    1  UNL1        0.0359
      9 C         -13.7117   -3.2905   16.2243 C.3     1  UNL1        0.0360
     10 C         -11.7495   -4.3629   17.6888 C.ar    1  UNL1        0.1353
     11 O         -13.0973   -6.3906   16.7822 O.3     1  UNL1       -0.4328
     12 C         -19.5497   -8.2200   20.8617 C.3     1  UNL1        0.0521
     13 C         -18.2864   -8.1555   20.0556 C.2     1  UNL1        0.0591
     14 C         -17.5739   -6.9055   19.6314 C.2     1  UNL1        0.0182
     15 C         -16.3609   -7.3072   18.8458 C.2     1  UNL1        0.0455
     16 C         -15.2855   -6.5023   18.1784 C.2     1  UNL1        0.1752
     17 F         -15.3227   -5.0040   18.2398 F       1  UNL1       -0.2009
     18 C         -14.1727   -7.1956   17.4496 C.2     1  UNL1        0.1706
     19 C         -14.1354   -8.6939   17.3883 C.2     1  UNL1        0.0201
     20 C         -15.2109   -9.4988   18.0557 C.3     1  UNL1        0.0751
     21 C         -16.3236   -8.8055   18.7845 C.2     1  UNL1        0.0653
     22 N         -17.5136   -9.3298   19.5322 N.2     1  UNL1       -0.2536
     23 O         -12.2400   -0.5444   17.1952 O.3     1  UNL1       -0.4703
     24 C         -13.1418    0.2244   18.1148 C.3     1  UNL1        0.2486
     25 C         -14.6060   -0.0968   18.1707 C.3     1  UNL1        0.2123
     26 C         -15.4344   -0.0408   16.9214 C.3     1  UNL1        0.0514
     27 O         -15.2418   -0.4739   19.4759 O.3     1  UNL1       -0.4474
     28 C         -15.3566   -1.9180   19.8647 C.2     1  UNL1        0.3331
     29 O         -16.6824   -2.6145   19.7798 O.2     1  UNL1       -0.2486
     30 C         -14.1456   -2.6658   20.3383 C.3     1  UNL1        0.1764
     31 N         -14.2101   -3.4765   21.5987 N.3     1  UNL1       -0.3119
     32 H         -14.3497   -2.8554   22.3957 H       1  UNL1        0.1193
     33 H         -13.3373   -3.9908   21.7172 H       1  UNL1        0.1193
@<TRIPOS>BOND
     1    12    13    1
     2    13    14    2
     3    14    15    1
     4    15    16    2
     5    16    17    1
     6    16    18    1
     7    18    11    1
     8    11     1    1
     9     1     2   ar
    10     2     3   ar
    11     3     4   ar
    12     4     5   ar
    13     5     6   ar
    14     6     7   ar
    15     7    23    1
    16    23    24    1
    17    24    25    1
    18    25    26    1
    19    25    27    1
    20    27    28    1
    21    28    29    2
    22    28    30    1
    23    30    31    1
    24     7     8   ar
    25     8     9    1
    26     8    10   ar
    27    18    19    2
    28    19    20    1
    29    20    21    1
    30    21    22    2
    31    22    13    1
    32    21    15    1
    33    10     1   ar
    34    10     5   ar
    35    31    32    1
    36    31    33    1
@<TRIPOS>MOLECULE
*****
 33 36 0 0 0
SMALL
GASTEIGER

@<TRIPOS>ATOM
      1 C          -6.1631  -19.4076   20.7547 C.ar    1  UNL1        0.2490
      2 N          -5.4362  -20.5444   20.0995 N.ar    1  UNL1       -0.1863
      3 C          -3.9982  -20.8079   20.4351 C.ar    1  UNL1        0.2225
      4 N          -3.2870  -19.9347   21.4259 N.ar    1  UNL1       -0.1420
      5 N          -4.0139  -18.7979   22.0810 N.ar    1  UNL1       -0.2193
      6 C          -3.5782  -17.7755   23.0885 C.ar    1  UNL1        0.1371
      7 C          -4.7469  -16.8802   23.3756 C.ar    1  UNL1        0.1554
      8 C          -5.9049  -17.3492   22.5455 C.ar    1  UNL1        0.0359
      9 C          -7.2754  -16.7399   22.5200 C.3     1  UNL1        0.0360
     10 C          -5.4519  -18.5343   21.7454 C.ar    1  UNL1        0.1353
     11 O          -7.6011  -19.1441   20.4191 O.3     1  UNL1       -0.4328
     12 C         -14.2846  -18.0373   24.3851 C.3     1  UNL1        0.0521
     13 C         -12.9383  -18.4218   23.8468 C.2     1  UNL1        0.0591
     14 C         -12.3348  -17.9453   22.5589 C.2     1  UNL1        0.0182
     15 C         -10.9827  -18.5793   22.4180 C.2     1  UNL1        0.0455
     16 C          -9.9329  -18.4781   21.3514 C.2     1  UNL1        0.1752
     17 F         -10.1651  -17.6099   20.1505 F       1  UNL1       -0.2009
     18 C          -8.6509  -19.2452   21.4857 C.2     1  UNL1        0.1706
     19 C          -8.4187  -20.1135   22.6866 C.2     1  UNL1        0.0201
     20 C          -9.4686  -20.2146   23.7532 C.3     1  UNL1        0.0751
     21 C         -10.7505  -19.4476   23.6189 C.2     1  UNL1        0.0653
     22 N         -11.9592  -19.3502   24.5019 N.2     1  UNL1       -0.2536
     23 O          -4.7560  -15.7196   24.3259 O.3     1  UNL1       -0.4703
     24 C          -5.1972  -15.9165   25.7459 C.3     1  UNL1        0.2486
     25 C          -6.4427  -15.2454   26.2442 C.3     1  UNL1        0.2123
     26 C          -6.4962  -14.7070   27.6433 C.3     1  UNL1        0.0514
     27 O          -7.6348  -15.1126   25.3434 O.3     1  UNL1       -0.4474
     28 C          -8.7249  -16.1421   25.3854 C.2     1  UNL1        0.3331
     29 O          -9.8393  -16.0958   24.3825 O.2     1  UNL1       -0.2486
     30 C          -8.7007  -17.2179   26.4304 C.3     1  UNL1        0.1764
     31 N          -9.7986  -18.2387   26.4815 N.3     1  UNL1       -0.3119
     32 H         -10.6767  -17.7815   26.7275 H       1  UNL1        0.1193
     33 H          -9.5745  -18.9443   27.1832 H       1  UNL1        0.1193
@<TRIPOS>BOND
     1    12    13    1
     2    13    14    2
     3    14    15    1
     4    15    16    2
     5    16    17    1
     6    16    18    1
     7    18    11    1
     8    11     1    1
     9     1     2   ar
    10     2     3   ar
    11     3     4   ar
    12     4     5   ar
    13     5     6   ar
    14     6     7   ar
    15     7    23    1
    16    23    24    1
    17    24    25    1
    18    25    26    1
    19    25    27    1
    20    27    28    1
    21    28    29    2
    22    28    30    1
    23    30    31    1
    24     7     8   ar
    25     8     9    1
    26     8    10   ar
    27    18    19    2
    28    19    20    1
    29    20    21    1
    30    21    22    2
    31    22    13    1
    32    21    15    1
    33    10     1   ar
    34    10     5   ar
    35    31    32    1
    36    31    33    1
@<TRIPOS>MOLECULE
*****
 33 36 0 0 0
SMALL
GASTEIGER

@<TRIPOS>ATOM
      1 C           7.8965   -4.8872   23.7599 C.ar    1  UNL1        0.2490
      2 N           8.4768   -5.9153   22.8345 N.ar    1  UNL1       -0.1863
      3 C           8.6656   -7.3269   23.3055 C.ar    1  UNL1        0.2225
      4 N           8.2742   -7.7103   24.7018 N.ar    1  UNL1       -0.1420
      5 N           7.6940   -6.6822   25.6272 N.ar    1  UNL1       -0.2193
      6 C           7.2189   -6.7644   27.0476 C.ar    1  UNL1        0.1371
      7 C           6.7363   -5.4037   27.4544 C.ar    1  UNL1        0.1554
      8 C           6.9133   -4.4805   26.2855 C.ar    1  UNL1        0.0359
      9 C           6.5603   -3.0230   26.2518 C.3     1  UNL1        0.0360
     10 C           7.5052   -5.2707   25.1562 C.ar    1  UNL1        0.1353
     11 O           7.7077   -3.4756   23.2889 O.3     1  UNL1       -0.4328
     12 C           3.8277   -0.9275   16.9583 C.3     1  UNL1        0.0521
     13 C           4.3071   -1.4794   18.2682 C.2     1  UNL1        0.0591
     14 C           5.7356   -1.5718   18.7161 C.2     1  UNL1        0.0182
     15 C           5.7535   -2.1852   20.0849 C.2     1  UNL1        0.0455
     16 C           6.8774   -2.5198   21.0202 C.2     1  UNL1        0.1752
     17 F           8.2949   -2.2330   20.6222 F       1  UNL1       -0.2009
     18 C           6.5838   -3.1411   22.3536 C.2     1  UNL1        0.1706
     19 C           5.1662   -3.4279   22.7515 C.2     1  UNL1        0.0201
     20 C           4.0423   -3.0933   21.8161 C.3     1  UNL1        0.0751
     21 C           4.3360   -2.4720   20.4828 C.2     1  UNL1        0.0653
     22 N           3.4420   -2.0357   19.3600 N.2     1  UNL1       -0.2536
     23 O           6.1754   -5.0315   28.7949 O.3     1  UNL1       -0.4703
     24 C           6.8124   -5.5576   30.0468 C.3     1  UNL1        0.2486
     25 C           7.3516   -4.6042   31.0717 C.3     1  UNL1        0.2123
     26 C           8.7792   -4.1499   30.9958 C.3     1  UNL1        0.0514
     27 O           6.4632   -4.1050   32.1724 O.3     1  UNL1       -0.4474
     28 C           5.6999   -2.8256   31.9983 C.2     1  UNL1        0.3331
     29 O           6.0142   -1.9153   30.8483 O.2     1  UNL1       -0.2486
     30 C           4.6223   -2.4564   32.9742 C.3     1  UNL1        0.1764
     31 N           3.8151   -3.5300   33.6418 N.3     1  UNL1       -0.3119
     32 H           3.2533   -4.0168   32.9434 H       1  UNL1        0.1193
     33 H           3.2009   -3.1095   34.3392 H       1  UNL1        0.1193
@<TRIPOS>BOND
     1    12    13    1
     2    13    14    2
     3    14    15    1
     4    15    16    2
     5    16    17    1
     6    16    18    1
     7    18    11    1
     8    11     1    1
     9     1     2   ar
    10     2     3   ar
    11     3     4   ar
    12     4     5   ar
    13     5     6   ar
    14     6     7   ar
    15     7    23    1
    16    23    24    1
    17    24    25    1
    18    25    26    1
    19    25    27    1
    20    27    28    1
    21    28    29    2
    22    28    30    1
    23    30    31    1
    24     7     8   ar
    25     8     9    1
    26     8    10   ar
    27    18    19    2
    28    19    20    1
    29    20    21    1
    30    21    22    2
    31    22    13    1
    32    21    15    1
    33    10     1   ar
    34    10     5   ar
    35    31    32    1
    36    31    33    1
@<TRIPOS>MOLECULE
*****
 33 36 0 0 0
SMALL
GASTEIGER

@<TRIPOS>ATOM
      1 C          -1.6441    3.9145   19.3547 C.ar    1  UNL1        0.2490
      2 N          -1.8642    4.0129   17.8742 N.ar    1  UNL1       -0.1863
      3 C          -3.2510    3.9036   17.3132 C.ar    1  UNL1        0.2225
      4 N          -4.4178    3.6958   18.2326 N.ar    1  UNL1       -0.1420
      5 N          -4.1977    3.5974   19.7131 N.ar    1  UNL1       -0.2193
      6 C          -5.1461    3.3955   20.8576 C.ar    1  UNL1        0.1371
      7 C          -4.3455    3.3801   22.1259 C.ar    1  UNL1        0.1554
      8 C          -2.9022    3.5724   21.7653 C.ar    1  UNL1        0.0359
      9 C          -1.7522    3.6218   22.7271 C.3     1  UNL1        0.0360
     10 C          -2.8109    3.7068   20.2741 C.ar    1  UNL1        0.1353
     11 O          -0.2573    4.0239   19.9158 O.3     1  UNL1       -0.4328
     12 C           3.4769   -2.8726   19.5737 C.3     1  UNL1        0.0521
     13 C           2.9835   -1.4592   19.4800 C.2     1  UNL1        0.0591
     14 C           1.7229   -0.9230   20.0911 C.2     1  UNL1        0.0182
     15 C           1.6244    0.5338   19.7475 C.2     1  UNL1        0.0455
     16 C           0.5973    1.5757   20.0781 C.2     1  UNL1        0.1752
     17 F          -0.6024    1.2116   20.9016 F       1  UNL1       -0.2009
     18 C           0.7698    2.9820   19.5852 C.2     1  UNL1        0.1706
     19 C           1.9695    3.3461   18.7617 C.2     1  UNL1        0.0201
     20 C           2.9966    2.3041   18.4311 C.3     1  UNL1        0.0751
     21 C           2.8241    0.8980   18.9240 C.2     1  UNL1        0.0653
     22 N           3.6640   -0.3338   18.7587 N.2     1  UNL1       -0.2536
     23 O          -4.8921    3.2033   23.5115 O.3     1  UNL1       -0.4703
     24 C          -5.8239    4.2284   24.0866 C.3     1  UNL1        0.2486
     25 C          -5.4994    4.8871   25.3946 C.3     1  UNL1        0.2123
     26 C          -4.6017    4.1978   26.3791 C.3     1  UNL1        0.0514
     27 O          -6.0726    6.2349   25.7182 O.3     1  UNL1       -0.4474
     28 C          -7.2957    6.3426   26.5798 C.2     1  UNL1        0.3331
     29 O          -8.6578    6.1854   25.9715 O.2     1  UNL1       -0.2486
     30 C          -7.1568    6.6074   28.0496 C.3     1  UNL1        0.1764
     31 N          -8.0152    5.8645   29.0300 N.3     1  UNL1       -0.3119
     32 H          -8.9906    6.1329   28.8997 H       1  UNL1        0.1193
     33 H          -7.7233    6.0943   29.9800 H       1  UNL1        0.1193
@<TRIPOS>BOND
     1    12    13    1
     2    13    14    2
     3    14    15    1
     4    15    16    2
     5    16    17    1
     6    16    18    1
     7    18    11    1
     8    11     1    1
     9     1     2   ar
    10     2     3   ar
    11     3     4   ar
    12     4     5   ar
    13     5     6   ar
    14     6     7   ar
    15     7    23    1
    16    23    24    1
    17    24    25    1
    18    25    26    1
    19    25    27    1
    20    27    28    1
    21    28    29    2
    22    28    30    1
    23    30    31    1
    24     7     8   ar
    25     8     9    1
    26     8    10   ar
    27    18    19    2
    28    19    20    1
    29    20    21    1
    30    21    22    2
    31    22    13    1
    32    21    15    1
    33    10     1   ar
    34    10     5   ar
    35    31    32    1
    36    31    33    1
@<TRIPOS>MOLECULE
*****
 33 36 0 0 0
SMALL
GASTEIGER

@<TRIPOS>ATOM
      1 C           3.0821    0.2759   18.9794 C.ar    1  UNL1        0.2490
      2 N           4.3134    0.8430   18.3373 N.ar    1  UNL1       -0.1863
      3 C           4.4783    2.3287   18.2134 C.ar    1  UNL1        0.2225
      4 N           3.4118    3.2474   18.7316 N.ar    1  UNL1       -0.1420
      5 N           2.1805    2.6804   19.3737 N.ar    1  UNL1       -0.2193
      6 C           0.9697    3.3327   19.9725 C.ar    1  UNL1        0.1371
      7 C           0.0566    2.2501   20.4665 C.ar    1  UNL1        0.1554
      8 C           0.7030    0.9287   20.1730 C.ar    1  UNL1        0.0359
      9 C           0.1363   -0.4216   20.4979 C.3     1  UNL1        0.0360
     10 C           2.0157    1.1947   19.4976 C.ar    1  UNL1        0.1353
     11 O           2.9173   -1.2098   19.1033 O.3     1  UNL1       -0.4328
     12 C           6.8034   -4.4497   25.1054 C.3     1  UNL1        0.0521
     13 C           6.2522   -3.9707   23.7952 C.2     1  UNL1        0.0591
     14 C           5.0750   -3.0587   23.6144 C.2     1  UNL1        0.0182
     15 C           4.8766   -2.8439   22.1431 C.2     1  UNL1        0.0455
     16 C           3.8720   -2.0395   21.3727 C.2     1  UNL1        0.1752
     17 F           2.8174   -1.2604   22.1013 F       1  UNL1       -0.2009
     18 C           3.9219   -2.0142   19.8737 C.2     1  UNL1        0.1706
     19 C           4.9765   -2.7934   19.1452 C.2     1  UNL1        0.0201
     20 C           5.9812   -3.5978   19.9157 C.3     1  UNL1        0.0751
     21 C           5.9312   -3.6231   21.4146 C.2     1  UNL1        0.0653
     22 N           6.7813   -4.3194   22.4356 N.2     1  UNL1       -0.2536
     23 O          -1.2701    2.4531   21.1365 O.3     1  UNL1       -0.4703
     24 C          -2.1668    3.5736   20.7003 C.3     1  UNL1        0.2486
     25 C          -3.6200    3.3119   20.4365 C.3     1  UNL1        0.2123
     26 C          -4.2552    3.8136   19.1735 C.3     1  UNL1        0.0514
     27 O          -4.4381    2.5486   21.4355 O.3     1  UNL1       -0.4474
     28 C          -5.1002    3.2709   22.5712 C.2     1  UNL1        0.3331
     29 O          -4.6457    3.0297   23.9802 O.2     1  UNL1       -0.2486
     30 C          -6.2170    4.2343   22.2980 C.3     1  UNL1        0.1764
     31 N          -7.6145    3.9052   22.7322 N.3     1  UNL1       -0.3119
     32 H          -7.9526    3.0987   22.2072 H       1  UNL1        0.1193
     33 H          -8.2226    4.7050   22.5559 H       1  UNL1        0.1193
@<TRIPOS>BOND
     1    12    13    1
     2    13    14    2
     3    14    15    1
     4    15    16    2
     5    16    17    1
     6    16    18    1
     7    18    11    1
     8    11     1    1
     9     1     2   ar
    10     2     3   ar
    11     3     4   ar
    12     4     5   ar
    13     5     6   ar
    14     6     7   ar
    15     7    23    1
    16    23    24    1
    17    24    25    1
    18    25    26    1
    19    25    27    1
    20    27    28    1
    21    28    29    2
    22    28    30    1
    23    30    31    1
    24     7     8   ar
    25     8     9    1
    26     8    10   ar
    27    18    19    2
    28    19    20    1
    29    20    21    1
    30    21    22    2
    31    22    13    1
    32    21    15    1
    33    10     1   ar
    34    10     5   ar
    35    31    32    1
    36    31    33    1
