@<TRIPOS>MOLECULE
*****
 29 32 0 0 0
SMALL
GASTEIGER

@<TRIPOS>ATOM
      1 C          -7.0475  -15.5260   25.2481 C.3     1  UNL1        0.1073
      2 C          -7.2810  -15.8777   26.6875 C.2     1  UNL1        0.3169
      3 O          -8.6159  -15.9898   27.3624 O.2     1  UNL1       -0.2501
      4 O          -5.9452  -16.0975   27.3335 O.3     1  UNL1       -0.4485
      5 C          -4.8861  -15.8817   26.2933 C.3     1  UNL1        0.2092
      6 C          -5.5674  -15.5285   25.0045 C.3     1  UNL1        0.0591
      7 C          -8.1080  -15.2247   24.2309 C.3     1  UNL1        0.0378
      8 C         -10.7661  -17.5184   22.3807 C.ar    1  UNL1        0.1751
      9 C         -10.1789  -16.4096   23.2027 C.ar    1  UNL1        0.0360
     10 C          -8.6952  -16.3336   23.4088 C.ar    1  UNL1       -0.0154
     11 C          -7.7985  -17.3663   22.7929 C.ar    1  UNL1        0.0360
     12 C          -8.3856  -18.4752   21.9709 C.ar    1  UNL1        0.1751
     13 C          -9.8695  -18.5513   21.7647 C.ar    1  UNL1        0.2060
     14 C         -13.1560  -17.8646   23.3390 C.3     1  UNL1        0.2526
     15 O         -12.2499  -17.5945   22.1745 O.3     1  UNL1       -0.4683
     16 O          -7.4889  -19.5080   21.3550 O.3     1  UNL1       -0.4683
     17 C          -6.6497  -19.1573   20.1623 C.3     1  UNL1        0.2526
     18 O         -10.4566  -19.6601   20.9427 O.3     1  UNL1       -0.4654
     19 C         -10.3944  -19.5976   19.4453 C.3     1  UNL1        0.2528
     20 C          -4.8880  -15.2302   23.7009 C.3     1  UNL1        0.0307
     21 C          -4.0636  -16.2861   23.0259 C.ar    1  UNL1       -0.0188
     22 C          -4.3718  -17.7365   23.2517 C.ar    1  UNL1       -0.0009
     23 C          -3.5475  -18.7924   22.5768 C.ar    1  UNL1        0.0399
     24 C          -2.4150  -18.3978   21.6759 C.ar    1  UNL1        0.1764
     25 C          -2.1067  -16.9473   21.4501 C.ar    1  UNL1        0.1761
     26 C          -2.9310  -15.8914   22.1250 C.ar    1  UNL1        0.0359
     27 O          -0.9369  -16.8621   20.5150 O.3     1  UNL1       -0.4346
     28 C          -0.5222  -18.2600   20.1630 C.3     1  UNL1        0.4294
     29 O          -1.4357  -19.2091   20.8804 O.3     1  UNL1       -0.4346
@<TRIPOS>BOND
     1    14    15    1
     2    15     8    1
     3     8     9   ar
     4     9    10   ar
     5    10     7    1
     6     1     7    1
     7     1     2    1
     8     2     3    2
     9     2     4    1
    10     4     5    1
    11     5     6    1
    12     6    20    1
    13    20    21    1
    14    21    22   ar
    15    22    23   ar
    16    23    24   ar
    17    24    25   ar
    18    25    26   ar
    19    25    27    1
    20    27    28    1
    21    28    29    1
    22    10    11   ar
    23    11    12   ar
    24    12    16    1
    25    16    17    1
    26    12    13   ar
    27    13    18    1
    28    18    19    1
    29    13     8   ar
    30     6     1    1
    31    26    21   ar
    32    29    24    1
@<TRIPOS>MOLECULE
*****
 29 32 0 0 0
SMALL
GASTEIGER

@<TRIPOS>ATOM
      1 C          -7.0508  -15.5181   25.2904 C.3     1  UNL1        0.1073
      2 C          -7.2801  -15.8703   26.7304 C.2     1  UNL1        0.3169
      3 O          -8.6125  -15.9727   27.4116 O.2     1  UNL1       -0.2501
      4 O          -5.9430  -16.1020   27.3696 O.3     1  UNL1       -0.4485
      5 C          -4.8873  -15.8931   26.3246 C.3     1  UNL1        0.2092
      6 C          -5.5719  -15.5322   25.0396 C.3     1  UNL1        0.0591
      7 C          -8.1136  -15.2066   24.2789 C.3     1  UNL1        0.0378
      8 C          -8.4279  -18.4548   22.0206 C.ar    1  UNL1        0.1751
      9 C          -7.8283  -17.3524   22.8422 C.ar    1  UNL1        0.0360
     10 C          -8.7132  -16.3091   23.4573 C.ar    1  UNL1       -0.0154
     11 C         -10.1977  -16.3682   23.2508 C.ar    1  UNL1        0.0360
     12 C         -10.7974  -17.4708   22.4292 C.ar    1  UNL1        0.1751
     13 C          -9.9124  -18.5141   21.8140 C.ar    1  UNL1        0.2060
     14 C          -6.7226  -19.1665   20.1942 C.3     1  UNL1        0.2526
     15 O          -7.5429  -19.4982   21.4054 O.3     1  UNL1       -0.4683
     16 O         -12.2819  -17.5299   22.2227 O.3     1  UNL1       -0.4683
     17 C         -13.1795  -17.9503   23.3486 C.3     1  UNL1        0.2526
     18 O         -10.5120  -19.6165   20.9925 O.3     1  UNL1       -0.4654
     19 C         -10.4508  -19.5543   19.4950 C.3     1  UNL1        0.2528
     20 C          -4.8964  -15.2372   23.7333 C.3     1  UNL1        0.0307
     21 C          -4.0843  -16.2988   23.0523 C.ar    1  UNL1       -0.0188
     22 C          -4.4020  -17.7471   23.2791 C.ar    1  UNL1       -0.0009
     23 C          -3.5900  -18.8086   22.5982 C.ar    1  UNL1        0.0399
     24 C          -2.4602  -18.4219   21.6904 C.ar    1  UNL1        0.1764
     25 C          -2.1425  -16.9736   21.4635 C.ar    1  UNL1        0.1761
     26 C          -2.9545  -15.9120   22.1445 C.ar    1  UNL1        0.0359
     27 O          -0.9781  -16.8965   20.5211 O.3     1  UNL1       -0.4346
     28 C          -0.5762  -18.2972   20.1655 C.3     1  UNL1        0.4294
     29 O          -1.4922  -19.2400   20.8881 O.3     1  UNL1       -0.4346
@<TRIPOS>BOND
     1    14    15    1
     2    15     8    1
     3     8     9   ar
     4     9    10   ar
     5    10     7    1
     6     1     7    1
     7     1     2    1
     8     2     3    2
     9     2     4    1
    10     4     5    1
    11     5     6    1
    12     6    20    1
    13    20    21    1
    14    21    22   ar
    15    22    23   ar
    16    23    24   ar
    17    24    25   ar
    18    25    26   ar
    19    25    27    1
    20    27    28    1
    21    28    29    1
    22    10    11   ar
    23    11    12   ar
    24    12    16    1
    25    16    17    1
    26    12    13   ar
    27    13    18    1
    28    18    19    1
    29    13     8   ar
    30     6     1    1
    31    26    21   ar
    32    29    24    1
@<TRIPOS>MOLECULE
*****
 29 32 0 0 0
SMALL
GASTEIGER

@<TRIPOS>ATOM
      1 C          -6.9472  -15.3964   25.2898 C.3     1  UNL1        0.1073
      2 C          -7.1563  -15.7783   26.7252 C.2     1  UNL1        0.3169
      3 O          -8.4686  -15.7921   27.4517 O.2     1  UNL1       -0.2501
      4 O          -5.8228  -16.1440   27.3066 O.3     1  UNL1       -0.4485
      5 C          -4.7895  -15.9880   26.2304 C.3     1  UNL1        0.2092
      6 C          -5.4845  -15.5260   24.9840 C.3     1  UNL1        0.0591
      7 C          -8.0137  -14.9612   24.3288 C.3     1  UNL1        0.0378
      8 C         -10.2643  -18.1822   23.7725 C.ar    1  UNL1        0.1751
      9 C          -9.3942  -17.1593   24.4407 C.ar    1  UNL1        0.0360
     10 C          -8.8838  -15.9842   23.6607 C.ar    1  UNL1       -0.0154
     11 C          -9.2435  -15.8319   22.2125 C.ar    1  UNL1        0.0360
     12 C         -10.1137  -16.8549   21.5442 C.ar    1  UNL1        0.1751
     13 C         -10.6241  -18.0301   22.3242 C.ar    1  UNL1        0.2060
     14 C          -9.9840  -20.6315   24.5926 C.3     1  UNL1        0.2526
     15 O         -10.7747  -19.3574   24.5525 O.3     1  UNL1       -0.4683
     16 O         -10.4735  -16.7026   20.0960 O.3     1  UNL1       -0.4683
     17 C         -11.6764  -15.8975   19.7027 C.3     1  UNL1        0.2526
     18 O         -11.4942  -19.0530   21.6560 O.3     1  UNL1       -0.4654
     19 C         -10.8909  -20.0469   20.7083 C.3     1  UNL1        0.2528
     20 C          -4.8313  -15.2432   23.6636 C.3     1  UNL1        0.0307
     21 C          -4.0333  -16.3121   22.9774 C.ar    1  UNL1       -0.0188
     22 C          -4.3921  -17.7557   23.1692 C.ar    1  UNL1       -0.0009
     23 C          -3.5941  -18.8245   22.4831 C.ar    1  UNL1        0.0399
     24 C          -2.4372  -18.4496   21.6051 C.ar    1  UNL1        0.1764
     25 C          -2.0783  -17.0058   21.4132 C.ar    1  UNL1        0.1761
     26 C          -2.8763  -15.9370   22.0993 C.ar    1  UNL1        0.0359
     27 O          -0.8939  -16.9407   20.4950 O.3     1  UNL1       -0.4346
     28 C          -0.5209  -18.3441   20.1195 C.3     1  UNL1        0.4294
     29 O          -1.4746  -19.2767   20.8055 O.3     1  UNL1       -0.4346
@<TRIPOS>BOND
     1    14    15    1
     2    15     8    1
     3     8     9   ar
     4     9    10   ar
     5    10     7    1
     6     1     7    1
     7     1     2    1
     8     2     3    2
     9     2     4    1
    10     4     5    1
    11     5     6    1
    12     6    20    1
    13    20    21    1
    14    21    22   ar
    15    22    23   ar
    16    23    24   ar
    17    24    25   ar
    18    25    26   ar
    19    25    27    1
    20    27    28    1
    21    28    29    1
    22    10    11   ar
    23    11    12   ar
    24    12    16    1
    25    16    17    1
    26    12    13   ar
    27    13    18    1
    28    18    19    1
    29    13     8   ar
    30     6     1    1
    31    26    21   ar
    32    29    24    1
@<TRIPOS>MOLECULE
*****
 29 32 0 0 0
SMALL
GASTEIGER

@<TRIPOS>ATOM
      1 C          -7.4824  -15.5423   25.6737 C.3     1  UNL1        0.1073
      2 C          -7.5903  -15.7524   27.1550 C.2     1  UNL1        0.3169
      3 O          -8.8360  -15.6063   27.9778 O.2     1  UNL1       -0.2501
      4 O          -6.2338  -16.1342   27.6692 O.3     1  UNL1       -0.4485
      5 C          -5.2876  -16.1600   26.5055 C.3     1  UNL1        0.2092
      6 C          -6.0593  -15.7943   25.2723 C.3     1  UNL1        0.0591
      7 C          -8.6012  -15.1494   24.7551 C.3     1  UNL1        0.0378
      8 C         -10.1193  -16.8831   21.5241 C.ar    1  UNL1        0.1751
      9 C          -9.4874  -15.8574   22.4178 C.ar    1  UNL1        0.0360
     10 C          -9.2331  -16.1750   23.8614 C.ar    1  UNL1       -0.0154
     11 C          -9.6108  -17.5184   24.4116 C.ar    1  UNL1        0.0360
     12 C         -10.2427  -18.5443   23.5180 C.ar    1  UNL1        0.1751
     13 C         -10.4970  -18.2266   22.0742 C.ar    1  UNL1        0.2060
     14 C         -11.6530  -15.8964   19.6737 C.3     1  UNL1        0.2526
     15 O         -10.3736  -16.5655   20.0804 O.3     1  UNL1       -0.4683
     16 O         -10.6203  -19.8876   24.0681 O.3     1  UNL1       -0.4683
     17 C          -9.5524  -20.8754   24.4339 C.3     1  UNL1        0.2526
     18 O         -11.1289  -19.2523   21.1806 O.3     1  UNL1       -0.4654
     19 C         -10.3361  -19.8649   20.0642 C.3     1  UNL1        0.2528
     20 C          -5.5051  -15.6975   23.8818 C.3     1  UNL1        0.0307
     21 C          -5.1704  -16.9451   23.1192 C.ar    1  UNL1       -0.0188
     22 C          -3.7440  -17.3946   23.0054 C.ar    1  UNL1       -0.0009
     23 C          -3.4093  -18.6422   22.2428 C.ar    1  UNL1        0.0399
     24 C          -4.5012  -19.4403   21.5941 C.ar    1  UNL1        0.1764
     25 C          -5.9277  -18.9908   21.7080 C.ar    1  UNL1        0.1761
     26 C          -6.2624  -17.7432   22.4705 C.ar    1  UNL1        0.0359
     27 O          -6.7844  -19.9752   20.9682 O.3     1  UNL1       -0.4346
     28 C          -5.8872  -21.0331   20.3972 C.3     1  UNL1        0.4294
     29 O          -4.4762  -20.7025   20.7840 O.3     1  UNL1       -0.4346
@<TRIPOS>BOND
     1    14    15    1
     2    15     8    1
     3     8     9   ar
     4     9    10   ar
     5    10     7    1
     6     1     7    1
     7     1     2    1
     8     2     3    2
     9     2     4    1
    10     4     5    1
    11     5     6    1
    12     6    20    1
    13    20    21    1
    14    21    22   ar
    15    22    23   ar
    16    23    24   ar
    17    24    25   ar
    18    25    26   ar
    19    25    27    1
    20    27    28    1
    21    28    29    1
    22    10    11   ar
    23    11    12   ar
    24    12    16    1
    25    16    17    1
    26    12    13   ar
    27    13    18    1
    28    18    19    1
    29    13     8   ar
    30     6     1    1
    31    26    21   ar
    32    29    24    1
@<TRIPOS>MOLECULE
*****
 29 32 0 0 0
SMALL
GASTEIGER

@<TRIPOS>ATOM
      1 C          -6.1224  -16.2495   23.9154 C.3     1  UNL1        0.1073
      2 C          -6.7344  -15.0208   24.5201 C.2     1  UNL1        0.3169
      3 O          -7.9833  -14.3354   24.0504 O.2     1  UNL1       -0.2501
      4 O          -5.8783  -14.5976   25.6768 O.3     1  UNL1       -0.4485
      5 C          -4.7371  -15.5650   25.7871 C.3     1  UNL1        0.2092
      6 C          -4.8880  -16.5859   24.6985 C.3     1  UNL1        0.0591
      7 C          -6.6518  -17.0087   22.7350 C.3     1  UNL1        0.0378
      8 C         -10.1293  -18.8702   23.1724 C.ar    1  UNL1        0.1751
      9 C          -8.6647  -18.5618   23.2701 C.ar    1  UNL1        0.0360
     10 C          -8.1165  -17.3172   22.6374 C.ar    1  UNL1       -0.0154
     11 C          -9.0330  -16.3810   21.9070 C.ar    1  UNL1        0.0360
     12 C         -10.4977  -16.6894   21.8093 C.ar    1  UNL1        0.1751
     13 C         -11.0459  -17.9340   22.4420 C.ar    1  UNL1        0.2060
     14 C          -9.8547  -20.8735   24.8038 C.3     1  UNL1        0.2526
     15 O         -10.6775  -20.1149   23.8051 O.3     1  UNL1       -0.4683
     16 O         -11.4142  -15.7531   21.0789 O.3     1  UNL1       -0.4683
     17 C         -11.6348  -15.9178   19.6044 C.3     1  UNL1        0.2526
     18 O         -12.5106  -18.2425   22.3443 O.3     1  UNL1       -0.4654
     19 C         -13.4277  -17.8941   23.4790 C.3     1  UNL1        0.2528
     20 C          -3.9663  -17.7404   24.4386 C.3     1  UNL1        0.0307
     21 C          -3.5590  -18.0734   23.0338 C.ar    1  UNL1       -0.0188
     22 C          -4.1471  -19.2696   22.3461 C.ar    1  UNL1       -0.0009
     23 C          -3.7398  -19.6027   20.9414 C.ar    1  UNL1        0.0399
     24 C          -2.7444  -18.7394   20.2245 C.ar    1  UNL1        0.1764
     25 C          -2.1563  -17.5431   20.9123 C.ar    1  UNL1        0.1761
     26 C          -2.5636  -17.2101   22.3170 C.ar    1  UNL1        0.0359
     27 O          -1.2043  -16.8823   19.9599 O.3     1  UNL1       -0.4346
     28 C          -1.2041  -17.6701   18.6835 C.3     1  UNL1        0.4294
     29 O          -2.1559  -18.8179   18.8470 O.3     1  UNL1       -0.4346
@<TRIPOS>BOND
     1    14    15    1
     2    15     8    1
     3     8     9   ar
     4     9    10   ar
     5    10     7    1
     6     1     7    1
     7     1     2    1
     8     2     3    2
     9     2     4    1
    10     4     5    1
    11     5     6    1
    12     6    20    1
    13    20    21    1
    14    21    22   ar
    15    22    23   ar
    16    23    24   ar
    17    24    25   ar
    18    25    26   ar
    19    25    27    1
    20    27    28    1
    21    28    29    1
    22    10    11   ar
    23    11    12   ar
    24    12    16    1
    25    16    17    1
    26    12    13   ar
    27    13    18    1
    28    18    19    1
    29    13     8   ar
    30     6     1    1
    31    26    21   ar
    32    29    24    1
@<TRIPOS>MOLECULE
*****
 29 32 0 0 0
SMALL
GASTEIGER

@<TRIPOS>ATOM
      1 C         -10.0852  -18.3342   21.3496 C.3     1  UNL1        0.1073
      2 C         -10.8460  -18.0197   20.0957 C.2     1  UNL1        0.3169
      3 O         -12.0483  -17.1286   19.9939 O.2     1  UNL1       -0.2501
      4 O         -10.1935  -18.7528   18.9613 O.3     1  UNL1       -0.4485
      5 C          -9.0293  -19.5205   19.5142 C.3     1  UNL1        0.2092
      6 C          -8.9624  -19.2617   20.9902 C.3     1  UNL1        0.0591
      7 C         -10.3931  -17.8128   22.7219 C.3     1  UNL1        0.0378
      8 C          -7.2336  -15.5411   23.5008 C.ar    1  UNL1        0.1751
      9 C          -8.2715  -16.3133   22.7416 C.ar    1  UNL1        0.0360
     10 C          -9.3551  -17.0406   23.4810 C.ar    1  UNL1       -0.0154
     11 C          -9.4007  -16.9957   24.9796 C.ar    1  UNL1        0.0360
     12 C          -8.3628  -16.2234   25.7389 C.ar    1  UNL1        0.1751
     13 C          -7.2791  -15.4961   24.9994 C.ar    1  UNL1        0.2060
     14 C          -4.7111  -15.1547   23.0131 C.3     1  UNL1        0.2526
     15 O          -6.1499  -14.8138   22.7613 O.3     1  UNL1       -0.4683
     16 O          -8.4085  -16.1785   27.2375 O.3     1  UNL1       -0.4683
     17 C          -8.5990  -14.8687   27.9431 C.3     1  UNL1        0.2526
     18 O          -6.2412  -14.7239   25.7586 O.3     1  UNL1       -0.4654
     19 C          -5.1036  -15.4451   26.4188 C.3     1  UNL1        0.2528
     20 C          -7.9505  -19.8306   21.9400 C.3     1  UNL1        0.0307
     21 C          -6.4941  -19.8173   21.5808 C.ar    1  UNL1       -0.0188
     22 C          -5.9754  -20.7393   20.5176 C.ar    1  UNL1       -0.0009
     23 C          -4.5191  -20.7260   20.1584 C.ar    1  UNL1        0.0399
     24 C          -3.5815  -19.7906   20.8625 C.ar    1  UNL1        0.1764
     25 C          -4.1002  -18.8685   21.9259 C.ar    1  UNL1        0.1761
     26 C          -5.5565  -18.8818   22.2851 C.ar    1  UNL1        0.0359
     27 O          -2.9460  -18.0626   22.4439 O.3     1  UNL1       -0.4346
     28 C          -1.7140  -18.4866   21.7007 C.3     1  UNL1        0.4294
     29 O          -2.1067  -19.5546   20.7234 O.3     1  UNL1       -0.4346
@<TRIPOS>BOND
     1    14    15    1
     2    15     8    1
     3     8     9   ar
     4     9    10   ar
     5    10     7    1
     6     1     7    1
     7     1     2    1
     8     2     3    2
     9     2     4    1
    10     4     5    1
    11     5     6    1
    12     6    20    1
    13    20    21    1
    14    21    22   ar
    15    22    23   ar
    16    23    24   ar
    17    24    25   ar
    18    25    26   ar
    19    25    27    1
    20    27    28    1
    21    28    29    1
    22    10    11   ar
    23    11    12   ar
    24    12    16    1
    25    16    17    1
    26    12    13   ar
    27    13    18    1
    28    18    19    1
    29    13     8   ar
    30     6     1    1
    31    26    21   ar
    32    29    24    1
@<TRIPOS>MOLECULE
*****
 29 32 0 0 0
SMALL
GASTEIGER

@<TRIPOS>ATOM
      1 C         -10.0524  -18.3468   21.3379 C.3     1  UNL1        0.1073
      2 C         -10.8009  -18.0408   20.0745 C.2     1  UNL1        0.3169
      3 O         -12.0046  -17.1538   19.9556 O.2     1  UNL1       -0.2501
      4 O         -10.1343  -18.7778   18.9508 O.3     1  UNL1       -0.4485
      5 C          -8.9738  -19.5392   19.5197 C.3     1  UNL1        0.2092
      6 C          -8.9232  -19.2728   20.9950 C.3     1  UNL1        0.0591
      7 C         -10.3761  -17.8194   22.7043 C.3     1  UNL1        0.0378
      8 C          -8.3853  -16.2192   25.7417 C.ar    1  UNL1        0.1751
      9 C          -9.4165  -16.9895   24.9716 C.ar    1  UNL1        0.0360
     10 C          -9.3449  -17.0490   23.4745 C.ar    1  UNL1       -0.0154
     11 C          -8.2421  -16.3382   22.7476 C.ar    1  UNL1        0.0360
     12 C          -7.2108  -15.5678   23.5177 C.ar    1  UNL1        0.1751
     13 C          -7.2824  -15.5083   25.0148 C.ar    1  UNL1        0.2060
     14 C          -8.6026  -14.8369   27.9307 C.3     1  UNL1        0.2526
     15 O          -8.4569  -16.1597   27.2388 O.3     1  UNL1       -0.4683
     16 O          -6.1080  -14.8570   22.7907 O.3     1  UNL1       -0.4683
     17 C          -4.6768  -15.2064   23.0729 C.3     1  UNL1        0.2526
     18 O          -6.2512  -14.7380   25.7850 O.3     1  UNL1       -0.4654
     19 C          -5.1411  -15.4640   26.4855 C.3     1  UNL1        0.2528
     20 C          -7.9196  -19.8339   21.9584 C.3     1  UNL1        0.0307
     21 C          -6.4607  -19.8289   21.6093 C.ar    1  UNL1       -0.0188
     22 C          -5.9443  -20.7359   20.5320 C.ar    1  UNL1       -0.0009
     23 C          -4.4855  -20.7309   20.1829 C.ar    1  UNL1        0.0399
     24 C          -3.5432  -19.8190   20.9112 C.ar    1  UNL1        0.1764
     25 C          -4.0596  -18.9120   21.9885 C.ar    1  UNL1        0.1761
     26 C          -5.5184  -18.9170   22.3376 C.ar    1  UNL1        0.0359
     27 O          -2.9008  -18.1283   22.5297 O.3     1  UNL1       -0.4346
     28 C          -1.6681  -18.5509   21.7868 C.3     1  UNL1        0.4294
     29 O          -2.0651  -19.5958   20.7865 O.3     1  UNL1       -0.4346
@<TRIPOS>BOND
     1    14    15    1
     2    15     8    1
     3     8     9   ar
     4     9    10   ar
     5    10     7    1
     6     1     7    1
     7     1     2    1
     8     2     3    2
     9     2     4    1
    10     4     5    1
    11     5     6    1
    12     6    20    1
    13    20    21    1
    14    21    22   ar
    15    22    23   ar
    16    23    24   ar
    17    24    25   ar
    18    25    26   ar
    19    25    27    1
    20    27    28    1
    21    28    29    1
    22    10    11   ar
    23    11    12   ar
    24    12    16    1
    25    16    17    1
    26    12    13   ar
    27    13    18    1
    28    18    19    1
    29    13     8   ar
    30     6     1    1
    31    26    21   ar
    32    29    24    1
@<TRIPOS>MOLECULE
*****
 29 32 0 0 0
SMALL
GASTEIGER

@<TRIPOS>ATOM
      1 C         -10.7267  -17.7964   21.6471 C.3     1  UNL1        0.1073
      2 C         -11.6488  -16.6322   21.4365 C.2     1  UNL1        0.3169
      3 O         -12.0951  -15.6596   22.4876 O.2     1  UNL1       -0.2501
      4 O         -12.0463  -16.6114   19.9902 O.3     1  UNL1       -0.4485
      5 C         -11.3698  -17.7628   19.3070 C.3     1  UNL1        0.2092
      6 C         -10.5543  -18.4951   20.3310 C.3     1  UNL1        0.0591
      7 C         -10.0890  -18.1924   22.9457 C.3     1  UNL1        0.0378
      8 C          -6.6552  -16.3065   23.5802 C.ar    1  UNL1        0.1751
      9 C          -7.6916  -17.1912   22.9531 C.ar    1  UNL1        0.0360
     10 C          -9.0526  -17.3077   23.5727 C.ar    1  UNL1       -0.0154
     11 C          -9.3773  -16.5394   24.8194 C.ar    1  UNL1        0.0360
     12 C          -8.3409  -15.6546   25.4466 C.ar    1  UNL1        0.1751
     13 C          -6.9799  -15.5382   24.8269 C.ar    1  UNL1        0.2060
     14 C          -4.1524  -16.9991   23.5008 C.3     1  UNL1        0.2526
     15 O          -5.2942  -16.1900   22.9605 O.3     1  UNL1       -0.4683
     16 O          -8.6657  -14.8864   26.6933 O.3     1  UNL1       -0.4683
     17 C          -8.3105  -15.4517   28.0365 C.3     1  UNL1        0.2526
     18 O          -5.9435  -14.6534   25.4540 O.3     1  UNL1       -0.4654
     19 C          -4.9655  -15.2245   26.4375 C.3     1  UNL1        0.2528
     20 C          -9.7139  -19.7125   20.0825 C.3     1  UNL1        0.0307
     21 C          -8.2703  -19.7233   20.4903 C.ar    1  UNL1       -0.0188
     22 C          -7.8595  -20.3743   21.7776 C.ar    1  UNL1       -0.0009
     23 C          -6.4160  -20.3852   22.1853 C.ar    1  UNL1        0.0399
     24 C          -5.3834  -19.7449   21.3057 C.ar    1  UNL1        0.1764
     25 C          -5.7942  -19.0938   20.0183 C.ar    1  UNL1        0.1761
     26 C          -7.2377  -19.0830   19.6106 C.ar    1  UNL1        0.0359
     27 O          -4.5616  -18.5469   19.3614 O.3     1  UNL1       -0.4346
     28 C          -3.3889  -18.8601   20.2428 C.3     1  UNL1        0.4294
     29 O          -3.8968  -19.6004   21.4444 O.3     1  UNL1       -0.4346
@<TRIPOS>BOND
     1    14    15    1
     2    15     8    1
     3     8     9   ar
     4     9    10   ar
     5    10     7    1
     6     1     7    1
     7     1     2    1
     8     2     3    2
     9     2     4    1
    10     4     5    1
    11     5     6    1
    12     6    20    1
    13    20    21    1
    14    21    22   ar
    15    22    23   ar
    16    23    24   ar
    17    24    25   ar
    18    25    26   ar
    19    25    27    1
    20    27    28    1
    21    28    29    1
    22    10    11   ar
    23    11    12   ar
    24    12    16    1
    25    16    17    1
    26    12    13   ar
    27    13    18    1
    28    18    19    1
    29    13     8   ar
    30     6     1    1
    31    26    21   ar
    32    29    24    1
@<TRIPOS>MOLECULE
*****
 29 32 0 0 0
SMALL
GASTEIGER

@<TRIPOS>ATOM
      1 C           1.5324    0.8651   19.5143 C.3     1  UNL1        0.1073
      2 C           0.6613    1.9199   20.1295 C.2     1  UNL1        0.3169
      3 O          -0.4748    1.6815   21.0794 O.2     1  UNL1       -0.2501
      4 O           1.1257    3.2552   19.6280 O.3     1  UNL1       -0.4485
      5 C           2.2839    3.0256   18.7028 C.3     1  UNL1        0.2092
      6 C           2.5352    1.5484   18.6325 C.3     1  UNL1        0.0591
      7 C           1.4204   -0.6134   19.7410 C.3     1  UNL1        0.0378
      8 C           4.2394   -3.2025   20.7895 C.ar    1  UNL1        0.1751
      9 C           3.2037   -2.4886   19.9725 C.ar    1  UNL1        0.0360
     10 C           2.4562   -1.3274   20.5579 C.ar    1  UNL1       -0.0154
     11 C           2.7446   -0.8800   21.9603 C.ar    1  UNL1        0.0360
     12 C           3.7804   -1.5939   22.7773 C.ar    1  UNL1        0.1751
     13 C           4.5279   -2.7552   22.1919 C.ar    1  UNL1        0.2060
     14 C           4.6899   -4.8190   18.8060 C.3     1  UNL1        0.2526
     15 O           4.9869   -4.3638   20.2041 O.3     1  UNL1       -0.4683
     16 O           4.0687   -1.1465   24.1797 O.3     1  UNL1       -0.4683
     17 C           4.9960    0.0071   24.4232 C.3     1  UNL1        0.2526
     18 O           5.5637   -3.4691   23.0089 O.3     1  UNL1       -0.4654
     19 C           6.9723   -2.9553   23.0490 C.3     1  UNL1        0.2528
     20 C           3.6021    0.8731   17.8227 C.3     1  UNL1        0.0307
     21 C           4.8237    0.3255   18.4995 C.ar    1  UNL1       -0.0188
     22 C           5.2409    0.8569   19.8386 C.ar    1  UNL1       -0.0009
     23 C           6.4625    0.3093   20.5154 C.ar    1  UNL1        0.0399
     24 C           7.2668   -0.7696   19.8529 C.ar    1  UNL1        0.1764
     25 C           6.8495   -1.3010   18.5136 C.ar    1  UNL1        0.1761
     26 C           5.6280   -0.7535   17.8369 C.ar    1  UNL1        0.0359
     27 O           7.8330   -2.3584   18.1076 O.3     1  UNL1       -0.4346
     28 C           8.8580   -2.4804   19.1958 C.3     1  UNL1        0.4294
     29 O           8.5081   -1.4986   20.2745 O.3     1  UNL1       -0.4346
@<TRIPOS>BOND
     1    14    15    1
     2    15     8    1
     3     8     9   ar
     4     9    10   ar
     5    10     7    1
     6     1     7    1
     7     1     2    1
     8     2     3    2
     9     2     4    1
    10     4     5    1
    11     5     6    1
    12     6    20    1
    13    20    21    1
    14    21    22   ar
    15    22    23   ar
    16    23    24   ar
    17    24    25   ar
    18    25    26   ar
    19    25    27    1
    20    27    28    1
    21    28    29    1
    22    10    11   ar
    23    11    12   ar
    24    12    16    1
    25    16    17    1
    26    12    13   ar
    27    13    18    1
    28    18    19    1
    29    13     8   ar
    30     6     1    1
    31    26    21   ar
    32    29    24    1
