@<TRIPOS>MOLECULE
*****
 38 42 0 0 0
SMALL
GASTEIGER

@<TRIPOS>ATOM
      1 N          -1.8407    3.6781   21.0895 N.ar    1  UNL1       -0.2852
      2 C          -3.3151    3.5066   20.8732 C.ar    1  UNL1        0.1023
      3 C          -3.5947    3.6992   19.4122 C.ar    1  UNL1        0.1197
      4 N          -2.2932    3.9896   18.7254 N.ar    1  UNL1       -0.2207
      5 C          -1.2091    3.9766   19.7621 C.ar    1  UNL1        0.2024
      6 C           0.2503    4.2194   19.5148 C.2     1  UNL1        0.2837
      7 O           0.8216    5.5955   19.6885 O.2     1  UNL1       -0.2666
      8 N           1.1384    3.0863   19.0937 N.am    1  UNL1       -0.2735
      9 C           2.5977    3.3292   18.8463 C.3     1  UNL1        0.0955
     10 C           3.4859    2.1960   18.4252 C.3     1  UNL1        0.0410
     11 C           2.9145    0.8200   18.2515 C.3     1  UNL1        0.0724
     12 C           1.4551    0.5771   18.4988 C.3     1  UNL1        0.0410
     13 C           0.5671    1.7103   18.9199 C.3     1  UNL1        0.0955
     14 N           3.8026   -0.3131   17.8304 N.pl3   1  UNL1       -0.3339
     15 H           4.2528   -0.2866   16.9553 H       1  UNL1        0.1468
     16 C           4.0046   -1.4866   18.7426 C.ar    1  UNL1        0.0469
     17 C           3.9260   -1.3031   20.2293 C.ar    1  UNL1        0.0144
     18 C           4.1281   -2.4765   21.1414 C.ar    1  UNL1        0.0036
     19 C           4.4087   -3.8335   20.5670 C.ar    1  UNL1        0.0297
     20 C           4.4873   -4.0170   19.0804 C.ar    1  UNL1        0.1414
     21 F           4.7679   -5.3739   18.5060 F       1  UNL1       -0.2041
     22 C           4.2852   -2.8435   18.1682 C.ar    1  UNL1        0.0439
     23 C           0.3101    3.3538   25.0289 C.ar    1  UNL1       -0.0060
     24 C          -0.6246    4.4996   24.7769 C.ar    1  UNL1       -0.0014
     25 C          -1.3415    4.6077   23.4637 C.ar    1  UNL1        0.0173
     26 C          -1.1237    3.5700   22.4027 C.ar    1  UNL1        0.0655
     27 C          -0.1890    2.4242   22.6547 C.ar    1  UNL1        0.0173
     28 C           0.5279    2.3161   23.9679 C.ar    1  UNL1       -0.0014
     29 C           1.0271    3.2457   26.3420 C.3     1  UNL1        0.0992
     30 C           3.4643   -0.9096   28.2899 C.3     1  UNL1        0.0186
     31 C           2.2067   -0.1173   28.0882 C.3     1  UNL1        0.0702
     32 C           2.2457    1.1680   27.3160 C.3     1  UNL1        0.0882
     33 N           0.9880    1.9602   27.1143 N.3     1  UNL1       -0.2666
     34 C          -0.3086    1.4671   27.6848 C.3     1  UNL1        0.0882
     35 C          -0.3476    0.1818   28.4569 C.3     1  UNL1        0.0702
     36 C          -1.6443   -0.3114   29.0275 C.3     1  UNL1        0.0186
     37 N           0.9100   -0.6104   28.6587 N.3     1  UNL1       -0.2974
     38 H           0.7440   -1.5335   28.2577 H       1  UNL1        0.1232
@<TRIPOS>BOND
     1    31    30    1
     2    31    32    1
     3    32    33    1
     4    33    29    1
     5    29    23    1
     6    23    24   ar
     7    24    25   ar
     8    25    26   ar
     9    26     1    1
    10     1     2   ar
    11     2     3   ar
    12     3     4   ar
    13     4     5   ar
    14     5     6    1
    15     6     7    2
    16     6     8   am
    17     8     9    1
    18     9    10    1
    19    10    11    1
    20    11    14    1
    21    14    16    1
    22    16    17   ar
    23    17    18   ar
    24    18    19   ar
    25    19    20   ar
    26    20    21    1
    27    20    22   ar
    28    11    12    1
    29    12    13    1
    30    26    27   ar
    31    27    28   ar
    32    33    34    1
    33    34    35    1
    34    35    36    1
    35    35    37    1
    36    37    31    1
    37    28    23   ar
    38     5     1   ar
    39    13     8    1
    40    22    16   ar
    41    14    15    1
    42    37    38    1
@<TRIPOS>MOLECULE
*****
 38 42 0 0 0
SMALL
GASTEIGER

@<TRIPOS>ATOM
      1 N           6.2406   -2.0773   32.1816 N.ar    1  UNL1       -0.2852
      2 C           6.5404   -3.5449   32.1014 C.ar    1  UNL1        0.1023
      3 C           6.6838   -3.9103   30.6537 C.ar    1  UNL1        0.1197
      4 N           6.4726   -2.6685   29.8391 N.ar    1  UNL1       -0.2207
      5 C           6.1987   -1.5357   30.7835 C.ar    1  UNL1        0.2024
      6 C           5.9301   -0.1114   30.3974 C.2     1  UNL1        0.2837
      7 O           7.0635    0.8668   30.3036 O.2     1  UNL1       -0.2666
      8 N           4.5282    0.3350   30.1050 N.am    1  UNL1       -0.2735
      9 C           4.2596    1.7592   29.7190 C.3     1  UNL1        0.0955
     10 C           2.8577    2.2056   29.4267 C.3     1  UNL1        0.0410
     11 C           1.7243    1.2274   29.5204 C.3     1  UNL1        0.0724
     12 C           1.9929   -0.1970   29.9065 C.3     1  UNL1        0.0410
     13 C           3.3948   -0.6432   30.1988 C.3     1  UNL1        0.0955
     14 N           0.3224    1.6736   29.2281 N.pl3   1  UNL1       -0.3339
     15 H          -0.3260    1.7722   29.9624 H       1  UNL1        0.1468
     16 C          -0.0916    1.9697   27.8171 C.ar    1  UNL1        0.0469
     17 C          -1.0292    3.1056   27.5333 C.ar    1  UNL1        0.0144
     18 C          -1.4433    3.4017   26.1224 C.ar    1  UNL1        0.0036
     19 C          -0.9197    2.5618   24.9951 C.ar    1  UNL1        0.0297
     20 C           0.0178    1.4259   25.2790 C.ar    1  UNL1        0.1414
     21 F           0.5414    0.5860   24.1518 F       1  UNL1       -0.2041
     22 C           0.4319    1.1298   26.6900 C.ar    1  UNL1        0.0439
     23 C           5.5824    0.2855   35.9544 C.ar    1  UNL1       -0.0060
     24 C           6.9055    0.3496   35.2505 C.ar    1  UNL1       -0.0014
     25 C           7.1249   -0.4380   33.9929 C.ar    1  UNL1        0.0173
     26 C           6.0212   -1.2897   33.4392 C.ar    1  UNL1        0.0655
     27 C           4.6982   -1.3537   34.1431 C.ar    1  UNL1        0.0173
     28 C           4.4788   -0.5661   35.4007 C.ar    1  UNL1       -0.0014
     29 C           5.3630    1.0732   37.2120 C.3     1  UNL1        0.0992
     30 C           1.6631    4.6298   36.3989 C.3     1  UNL1        0.0186
     31 C           2.1545    3.4069   37.1151 C.3     1  UNL1        0.0702
     32 C           3.5130    2.8515   36.8055 C.3     1  UNL1        0.0882
     33 N           4.0045    1.6286   37.5217 N.3     1  UNL1       -0.2666
     34 C           3.1374    0.9611   38.5476 C.3     1  UNL1        0.0882
     35 C           1.7789    1.5165   38.8573 C.3     1  UNL1        0.0702
     36 C           0.9117    0.8489   39.8832 C.3     1  UNL1        0.0186
     37 N           1.2874    2.7394   38.1410 N.3     1  UNL1       -0.2974
     38 H           1.0860    3.4383   38.8560 H       1  UNL1        0.1232
@<TRIPOS>BOND
     1    31    30    1
     2    31    32    1
     3    32    33    1
     4    33    29    1
     5    29    23    1
     6    23    24   ar
     7    24    25   ar
     8    25    26   ar
     9    26     1    1
    10     1     2   ar
    11     2     3   ar
    12     3     4   ar
    13     4     5   ar
    14     5     6    1
    15     6     7    2
    16     6     8   am
    17     8     9    1
    18     9    10    1
    19    10    11    1
    20    11    14    1
    21    14    16    1
    22    16    17   ar
    23    17    18   ar
    24    18    19   ar
    25    19    20   ar
    26    20    21    1
    27    20    22   ar
    28    11    12    1
    29    12    13    1
    30    26    27   ar
    31    27    28   ar
    32    33    34    1
    33    34    35    1
    34    35    36    1
    35    35    37    1
    36    37    31    1
    37    28    23   ar
    38     5     1   ar
    39    13     8    1
    40    22    16   ar
    41    14    15    1
    42    37    38    1
@<TRIPOS>MOLECULE
*****
 38 42 0 0 0
SMALL
GASTEIGER

@<TRIPOS>ATOM
      1 N          -1.0252    3.2843   21.7384 N.ar    1  UNL1       -0.2852
      2 C          -2.5251    3.2770   21.7204 C.ar    1  UNL1        0.1023
      3 C          -2.9740    3.6612   20.3417 C.ar    1  UNL1        0.1197
      4 N          -1.7516    3.9059   19.5076 N.ar    1  UNL1       -0.2207
      5 C          -0.5472    3.6730   20.3708 C.ar    1  UNL1        0.2024
      6 C           0.8840    3.8055   19.9417 C.2     1  UNL1        0.2837
      7 O           1.6119    5.1009   20.1475 O.2     1  UNL1       -0.2666
      8 N           1.5875    2.6427   19.3068 N.am    1  UNL1       -0.2735
      9 C           3.0186    2.7752   18.8777 C.3     1  UNL1        0.0955
     10 C           3.7220    1.6124   18.2428 C.3     1  UNL1        0.0410
     11 C           2.9942    0.3171   18.0370 C.3     1  UNL1        0.0724
     12 C           1.5630    0.1845   18.4661 C.3     1  UNL1        0.0410
     13 C           0.8596    1.3473   19.1010 C.3     1  UNL1        0.0955
     14 N           3.6975   -0.8458   17.4021 N.pl3   1  UNL1       -0.3339
     15 H           3.6877   -0.9524   16.4234 H       1  UNL1        0.1468
     16 C           4.4159   -1.8462   18.2583 C.ar    1  UNL1        0.0469
     17 C           5.8975   -1.7318   18.4627 C.ar    1  UNL1        0.0144
     18 C           6.6159   -2.7322   19.3189 C.ar    1  UNL1        0.0036
     19 C           5.8527   -3.8471   19.9706 C.ar    1  UNL1        0.0297
     20 C           4.3711   -3.9615   19.7662 C.ar    1  UNL1        0.1414
     21 F           3.6080   -5.0763   20.4179 F       1  UNL1       -0.2041
     22 C           3.6527   -2.9610   18.9100 C.ar    1  UNL1        0.0439
     23 C           1.5824    2.3110   25.2744 C.ar    1  UNL1       -0.0060
     24 C           0.8726    3.6308   25.2066 C.ar    1  UNL1       -0.0014
     25 C           0.0034    3.9552   24.0280 C.ar    1  UNL1        0.0173
     26 C          -0.1560    2.9599   22.9171 C.ar    1  UNL1        0.0655
     27 C           0.5538    1.6402   22.9849 C.ar    1  UNL1        0.0173
     28 C           1.4230    1.3158   24.1636 C.ar    1  UNL1       -0.0014
     29 C           2.4516    1.9866   26.4530 C.3     1  UNL1        0.0992
     30 C           3.2061   -0.6960   30.8388 C.3     1  UNL1        0.0186
     31 C           2.2836   -0.1760   29.7764 C.3     1  UNL1        0.0702
     32 C           2.8288    0.6453   28.6459 C.3     1  UNL1        0.0882
     33 N           1.9063    1.1652   27.5836 N.3     1  UNL1       -0.2666
     34 C           0.4385    0.8639   27.6518 C.3     1  UNL1        0.0882
     35 C          -0.1068    0.0425   28.7823 C.3     1  UNL1        0.0702
     36 C          -1.5746   -0.2589   28.8505 C.3     1  UNL1        0.0186
     37 N           0.8158   -0.4774   29.8446 N.3     1  UNL1       -0.2974
     38 H           0.7234   -1.4932   29.8434 H       1  UNL1        0.1232
@<TRIPOS>BOND
     1    31    30    1
     2    31    32    1
     3    32    33    1
     4    33    29    1
     5    29    23    1
     6    23    24   ar
     7    24    25   ar
     8    25    26   ar
     9    26     1    1
    10     1     2   ar
    11     2     3   ar
    12     3     4   ar
    13     4     5   ar
    14     5     6    1
    15     6     7    2
    16     6     8   am
    17     8     9    1
    18     9    10    1
    19    10    11    1
    20    11    14    1
    21    14    16    1
    22    16    17   ar
    23    17    18   ar
    24    18    19   ar
    25    19    20   ar
    26    20    21    1
    27    20    22   ar
    28    11    12    1
    29    12    13    1
    30    26    27   ar
    31    27    28   ar
    32    33    34    1
    33    34    35    1
    34    35    36    1
    35    35    37    1
    36    37    31    1
    37    28    23   ar
    38     5     1   ar
    39    13     8    1
    40    22    16   ar
    41    14    15    1
    42    37    38    1
@<TRIPOS>MOLECULE
*****
 38 42 0 0 0
SMALL
GASTEIGER

@<TRIPOS>ATOM
      1 N          -2.5309    4.1964   18.5560 N.ar    1  UNL1       -0.2852
      2 C          -2.9133    4.2910   17.1086 C.ar    1  UNL1        0.1023
      3 C          -1.6610    4.1821   16.2902 C.ar    1  UNL1        0.1197
      4 N          -0.5045    4.0203   17.2317 N.ar    1  UNL1       -0.2207
      5 C          -1.0422    4.0291   18.6320 C.ar    1  UNL1        0.2024
      6 C          -0.2331    3.8943   19.8879 C.2     1  UNL1        0.2837
      7 O          -0.1434    5.0424   20.8492 O.2     1  UNL1       -0.2666
      8 N           0.4864    2.6115   20.1826 N.am    1  UNL1       -0.2735
      9 C           1.2954    2.4767   21.4384 C.3     1  UNL1        0.0955
     10 C           2.0149    1.1939   21.7331 C.3     1  UNL1        0.0410
     11 C           1.9252    0.0459   20.7718 C.3     1  UNL1        0.0724
     12 C           1.1161    0.1806   19.5159 C.3     1  UNL1        0.0410
     13 C           0.3967    1.4634   19.2213 C.3     1  UNL1        0.0955
     14 N           2.6446   -1.2369   21.0665 N.pl3   1  UNL1       -0.3339
     15 H           2.4394   -1.7389   21.8882 H       1  UNL1        0.1468
     16 C           3.6766   -1.7550   20.1091 C.ar    1  UNL1        0.0469
     17 C           4.7392   -0.8366   19.5824 C.ar    1  UNL1        0.0144
     18 C           5.7711   -1.3547   18.6251 C.ar    1  UNL1        0.0036
     19 C           5.7406   -2.7913   18.1944 C.ar    1  UNL1        0.0297
     20 C           4.6780   -3.7097   18.7211 C.ar    1  UNL1        0.1414
     21 F           4.6475   -5.1462   18.2904 F       1  UNL1       -0.2041
     22 C           3.6460   -3.1916   19.6784 C.ar    1  UNL1        0.0439
     23 C          -5.3539    4.3821   22.0554 C.ar    1  UNL1       -0.0060
     24 C          -5.0227    5.6302   21.2919 C.ar    1  UNL1       -0.0014
     25 C          -4.0816    5.5683   20.1255 C.ar    1  UNL1        0.0173
     26 C          -3.4719    4.2583   19.7224 C.ar    1  UNL1        0.0655
     27 C          -3.8031    3.0104   20.4859 C.ar    1  UNL1        0.0173
     28 C          -4.7441    3.0723   21.6524 C.ar    1  UNL1       -0.0014
     29 C          -6.2949    4.4440   23.2219 C.3     1  UNL1        0.0992
     30 C          -6.6539    6.5973   27.9372 C.3     1  UNL1        0.0186
     31 C          -5.9369    5.7050   26.9678 C.3     1  UNL1        0.0702
     32 C          -6.4743    5.5206   25.5796 C.3     1  UNL1        0.0882
     33 N          -5.7574    4.6284   24.6101 N.3     1  UNL1       -0.2666
     34 C          -4.5031    3.9204   25.0289 C.3     1  UNL1        0.0882
     35 C          -3.9656    4.1048   26.4171 C.3     1  UNL1        0.0702
     36 C          -2.7112    3.3969   26.8359 C.3     1  UNL1        0.0186
     37 N          -4.6826    4.9971   27.3865 N.3     1  UNL1       -0.2974
     38 H          -4.0185    5.7175   27.6701 H       1  UNL1        0.1232
@<TRIPOS>BOND
     1    31    30    1
     2    31    32    1
     3    32    33    1
     4    33    29    1
     5    29    23    1
     6    23    24   ar
     7    24    25   ar
     8    25    26   ar
     9    26     1    1
    10     1     2   ar
    11     2     3   ar
    12     3     4   ar
    13     4     5   ar
    14     5     6    1
    15     6     7    2
    16     6     8   am
    17     8     9    1
    18     9    10    1
    19    10    11    1
    20    11    14    1
    21    14    16    1
    22    16    17   ar
    23    17    18   ar
    24    18    19   ar
    25    19    20   ar
    26    20    21    1
    27    20    22   ar
    28    11    12    1
    29    12    13    1
    30    26    27   ar
    31    27    28   ar
    32    33    34    1
    33    34    35    1
    34    35    36    1
    35    35    37    1
    36    37    31    1
    37    28    23   ar
    38     5     1   ar
    39    13     8    1
    40    22    16   ar
    41    14    15    1
    42    37    38    1
@<TRIPOS>MOLECULE
*****
 38 42 0 0 0
SMALL
GASTEIGER

@<TRIPOS>ATOM
      1 N           4.7258    0.7413   26.2997 N.ar    1  UNL1       -0.2852
      2 C           6.1316    1.2138   26.5244 C.ar    1  UNL1        0.1023
      3 C           6.2980    1.4940   27.9886 C.ar    1  UNL1        0.1197
      4 N           4.9951    1.1946   28.6688 N.ar    1  UNL1       -0.2207
      5 C           4.0234    0.7294   27.6250 C.ar    1  UNL1        0.2024
      6 C           2.5994    0.3236   27.8645 C.2     1  UNL1        0.2837
      7 O           2.2849   -1.0630   28.3428 O.2     1  UNL1       -0.2666
      8 N           1.4897    1.3042   27.6259 N.am    1  UNL1       -0.2735
      9 C           0.0657    0.8984   27.8654 C.3     1  UNL1        0.0955
     10 C          -1.0440    1.8791   27.6267 C.3     1  UNL1        0.0410
     11 C          -0.7296    3.2656   27.1484 C.3     1  UNL1        0.0724
     12 C           0.6945    3.6715   26.9089 C.3     1  UNL1        0.0410
     13 C           1.8041    2.6908   27.1476 C.3     1  UNL1        0.0955
     14 N          -1.8392    4.2463   26.9097 N.pl3   1  UNL1       -0.3339
     15 H          -1.9030    5.0607   27.4591 H       1  UNL1        0.1468
     16 C          -2.8516    3.9861   25.8339 C.ar    1  UNL1        0.0469
     17 C          -4.3142    3.9774   26.1667 C.ar    1  UNL1        0.0144
     18 C          -5.3266    3.7172   25.0910 C.ar    1  UNL1        0.0036
     19 C          -4.8764    3.4656   23.6823 C.ar    1  UNL1        0.0297
     20 C          -3.4139    3.4743   23.3496 C.ar    1  UNL1        0.1414
     21 F          -2.9637    3.2228   21.9410 F       1  UNL1       -0.2041
     22 C          -2.4014    3.7345   24.4253 C.ar    1  UNL1        0.0439
     23 C           2.9308   -0.4342   22.3441 C.ar    1  UNL1       -0.0060
     24 C           2.9130    1.0014   22.7789 C.ar    1  UNL1       -0.0014
     25 C           3.5113    1.3932   24.0974 C.ar    1  UNL1        0.0173
     26 C           4.1275    0.3495   24.9812 C.ar    1  UNL1        0.0655
     27 C           4.1453   -1.0860   24.5464 C.ar    1  UNL1        0.0173
     28 C           3.5470   -1.4778   23.2279 C.ar    1  UNL1       -0.0014
     29 C           2.3325   -0.8260   21.0256 C.3     1  UNL1        0.0992
     30 C           5.3294   -0.0416   16.8539 C.3     1  UNL1        0.0186
     31 C           4.7076   -0.9753   17.8497 C.3     1  UNL1        0.0702
     32 C           3.8310   -0.4338   18.9397 C.3     1  UNL1        0.0882
     33 N           3.2092   -1.3675   19.9355 N.3     1  UNL1       -0.2666
     34 C           3.4640   -2.8427   19.8412 C.3     1  UNL1        0.0882
     35 C           4.3406   -3.3841   18.7511 C.3     1  UNL1        0.0702
     36 C           4.5955   -4.8594   18.6567 C.3     1  UNL1        0.0186
     37 N           4.9624   -2.4504   17.7553 N.3     1  UNL1       -0.2974
     38 H           4.6411   -2.7464   16.8336 H       1  UNL1        0.1232
@<TRIPOS>BOND
     1    31    30    1
     2    31    32    1
     3    32    33    1
     4    33    29    1
     5    29    23    1
     6    23    24   ar
     7    24    25   ar
     8    25    26   ar
     9    26     1    1
    10     1     2   ar
    11     2     3   ar
    12     3     4   ar
    13     4     5   ar
    14     5     6    1
    15     6     7    2
    16     6     8   am
    17     8     9    1
    18     9    10    1
    19    10    11    1
    20    11    14    1
    21    14    16    1
    22    16    17   ar
    23    17    18   ar
    24    18    19   ar
    25    19    20   ar
    26    20    21    1
    27    20    22   ar
    28    11    12    1
    29    12    13    1
    30    26    27   ar
    31    27    28   ar
    32    33    34    1
    33    34    35    1
    34    35    36    1
    35    35    37    1
    36    37    31    1
    37    28    23   ar
    38     5     1   ar
    39    13     8    1
    40    22    16   ar
    41    14    15    1
    42    37    38    1
@<TRIPOS>MOLECULE
*****
 38 42 0 0 0
SMALL
GASTEIGER

@<TRIPOS>ATOM
      1 N           6.4224   -2.3527   32.1701 N.ar    1  UNL1       -0.2852
      2 C           6.6147   -3.8402   32.1942 C.ar    1  UNL1        0.1023
      3 C           6.7874   -4.3083   30.7796 C.ar    1  UNL1        0.1197
      4 N           6.7018   -3.1101   29.8812 N.ar    1  UNL1       -0.2207
      5 C           6.4762   -1.9016   30.7406 C.ar    1  UNL1        0.2024
      6 C           6.3302   -0.4897   30.2555 C.2     1  UNL1        0.2837
      7 O           7.5484    0.3144   29.9098 O.2     1  UNL1       -0.2666
      8 N           4.9660    0.1183   30.1162 N.am    1  UNL1       -0.2735
      9 C           4.8200    1.5301   29.6312 C.3     1  UNL1        0.0955
     10 C           3.4557    2.1380   29.4919 C.3     1  UNL1        0.0410
     11 C           2.2375    1.3339   29.8376 C.3     1  UNL1        0.0724
     12 C           2.3835   -0.0780   30.3226 C.3     1  UNL1        0.0410
     13 C           3.7477   -0.6858   30.4619 C.3     1  UNL1        0.0955
     14 N           0.8733    1.9418   29.6983 N.pl3   1  UNL1       -0.3339
     15 H           0.1632    1.4536   29.2222 H       1  UNL1        0.1468
     16 C           0.5910    3.2933   30.2844 C.ar    1  UNL1        0.0469
     17 C           0.5349    4.4998   29.3948 C.ar    1  UNL1        0.0144
     18 C           0.2526    5.8513   29.9809 C.ar    1  UNL1        0.0036
     19 C           0.0264    5.9965   31.4566 C.ar    1  UNL1        0.0297
     20 C           0.0825    4.7901   32.3462 C.ar    1  UNL1        0.1414
     21 F          -0.1438    4.9353   33.8219 F       1  UNL1       -0.2041
     22 C           0.3648    3.4385   31.7601 C.ar    1  UNL1        0.0439
     23 C           5.7943    0.2916   35.7566 C.ar    1  UNL1       -0.0060
     24 C           4.6650   -0.5476   35.2365 C.ar    1  UNL1       -0.0014
     25 C           4.8744   -1.4291   34.0410 C.ar    1  UNL1        0.0173
     26 C           6.2131   -1.4713   33.3656 C.ar    1  UNL1        0.0655
     27 C           7.3423   -0.6321   33.8856 C.ar    1  UNL1        0.0173
     28 C           7.1329    0.2494   35.0811 C.ar    1  UNL1       -0.0014
     29 C           5.5850    1.1731   36.9520 C.3     1  UNL1        0.0992
     30 C           1.1895    0.3899   39.6103 C.3     1  UNL1        0.0186
     31 C           2.0023    1.2168   38.6587 C.3     1  UNL1        0.0702
     32 C           3.3872    0.7815   38.2812 C.3     1  UNL1        0.0882
     33 N           4.2000    1.6084   37.3296 N.3     1  UNL1       -0.2666
     34 C           3.6280    2.8706   36.7555 C.3     1  UNL1        0.0882
     35 C           2.2431    3.3059   37.1330 C.3     1  UNL1        0.0702
     36 C           1.6710    4.5682   36.5589 C.3     1  UNL1        0.0186
     37 N           1.4303    2.4790   38.0846 N.3     1  UNL1       -0.2974
     38 H           0.5761    2.2178   37.5921 H       1  UNL1        0.1232
@<TRIPOS>BOND
     1    31    30    1
     2    31    32    1
     3    32    33    1
     4    33    29    1
     5    29    23    1
     6    23    24   ar
     7    24    25   ar
     8    25    26   ar
     9    26     1    1
    10     1     2   ar
    11     2     3   ar
    12     3     4   ar
    13     4     5   ar
    14     5     6    1
    15     6     7    2
    16     6     8   am
    17     8     9    1
    18     9    10    1
    19    10    11    1
    20    11    14    1
    21    14    16    1
    22    16    17   ar
    23    17    18   ar
    24    18    19   ar
    25    19    20   ar
    26    20    21    1
    27    20    22   ar
    28    11    12    1
    29    12    13    1
    30    26    27   ar
    31    27    28   ar
    32    33    34    1
    33    34    35    1
    34    35    36    1
    35    35    37    1
    36    37    31    1
    37    28    23   ar
    38     5     1   ar
    39    13     8    1
    40    22    16   ar
    41    14    15    1
    42    37    38    1
@<TRIPOS>MOLECULE
*****
 38 42 0 0 0
SMALL
GASTEIGER

@<TRIPOS>ATOM
      1 N           3.6365   -1.5600   19.7968 N.ar    1  UNL1       -0.2852
      2 C           3.5590   -2.9172   19.1627 C.ar    1  UNL1        0.1023
      3 C           4.7931   -3.6790   19.5455 C.ar    1  UNL1        0.1197
      4 N           5.6335   -2.7926   20.4163 N.ar    1  UNL1       -0.2207
      5 C           4.9186   -1.4831   20.5716 C.ar    1  UNL1        0.2024
      6 C           5.4012   -0.3036   21.3628 C.2     1  UNL1        0.2837
      7 O           6.3274    0.6941   20.7325 O.2     1  UNL1       -0.2666
      8 N           4.9578   -0.1216   22.7841 N.am    1  UNL1       -0.2735
      9 C           5.4404    1.0578   23.5752 C.3     1  UNL1        0.0955
     10 C           4.9970    1.2397   24.9967 C.3     1  UNL1        0.0410
     11 C           4.0709    0.2421   25.6268 C.3     1  UNL1        0.0724
     12 C           3.5882   -0.9374   24.8357 C.3     1  UNL1        0.0410
     13 C           4.0317   -1.1193   23.4143 C.3     1  UNL1        0.0955
     14 N           3.6274    0.4239   27.0482 N.pl3   1  UNL1       -0.3339
     15 H           4.2963    0.5043   27.7661 H       1  UNL1        0.1468
     16 C           2.1648    0.4833   27.3757 C.ar    1  UNL1        0.0469
     17 C           1.6397   -0.2191   28.5926 C.ar    1  UNL1        0.0144
     18 C           0.1772   -0.1597   28.9202 C.ar    1  UNL1        0.0036
     19 C          -0.7604    0.6020   28.0309 C.ar    1  UNL1        0.0297
     20 C          -0.2352    1.3044   26.8140 C.ar    1  UNL1        0.1414
     21 F          -1.1727    2.0662   25.9247 F       1  UNL1       -0.2041
     22 C           1.2274    1.2451   26.4864 C.ar    1  UNL1        0.0439
     23 C           0.5626    1.7068   19.4381 C.ar    1  UNL1       -0.0060
     24 C           0.2995    0.5231   20.3212 C.ar    1  UNL1       -0.0014
     25 C           1.3241   -0.5658   20.4408 C.ar    1  UNL1        0.0173
     26 C           2.6119   -0.4711   19.6772 C.ar    1  UNL1        0.0655
     27 C           2.8749    0.7125   18.7942 C.ar    1  UNL1        0.0173
     28 C           1.8502    1.8015   18.6746 C.ar    1  UNL1       -0.0014
     29 C          -0.4621    2.7957   19.3185 C.3     1  UNL1        0.0992
     30 C          -0.5645    4.7658   24.1256 C.3     1  UNL1        0.0186
     31 C          -1.2869    4.2186   22.9303 C.3     1  UNL1        0.0702
     32 C          -0.5133    3.7808   21.7220 C.3     1  UNL1        0.0882
     33 N          -1.2357    3.2336   20.5267 N.3     1  UNL1       -0.2666
     34 C          -2.7316    3.1242   20.5397 C.3     1  UNL1        0.0882
     35 C          -3.5052    3.5621   21.7479 C.3     1  UNL1        0.0702
     36 C          -5.0012    3.4527   21.7609 C.3     1  UNL1        0.0186
     37 N          -2.7828    4.1093   22.9432 N.3     1  UNL1       -0.2974
     38 H          -3.0276    3.5129   23.7337 H       1  UNL1        0.1232
@<TRIPOS>BOND
     1    31    30    1
     2    31    32    1
     3    32    33    1
     4    33    29    1
     5    29    23    1
     6    23    24   ar
     7    24    25   ar
     8    25    26   ar
     9    26     1    1
    10     1     2   ar
    11     2     3   ar
    12     3     4   ar
    13     4     5   ar
    14     5     6    1
    15     6     7    2
    16     6     8   am
    17     8     9    1
    18     9    10    1
    19    10    11    1
    20    11    14    1
    21    14    16    1
    22    16    17   ar
    23    17    18   ar
    24    18    19   ar
    25    19    20   ar
    26    20    21    1
    27    20    22   ar
    28    11    12    1
    29    12    13    1
    30    26    27   ar
    31    27    28   ar
    32    33    34    1
    33    34    35    1
    34    35    36    1
    35    35    37    1
    36    37    31    1
    37    28    23   ar
    38     5     1   ar
    39    13     8    1
    40    22    16   ar
    41    14    15    1
    42    37    38    1
@<TRIPOS>MOLECULE
*****
 38 42 0 0 0
SMALL
GASTEIGER

@<TRIPOS>ATOM
      1 N           1.3619    0.4397   27.9240 N.ar    1  UNL1       -0.2852
      2 C           0.1757   -0.0223   28.7173 C.ar    1  UNL1        0.1023
      3 C          -0.9638    0.9110   28.4334 C.ar    1  UNL1        0.1197
      4 N          -0.4818    1.9498   27.4646 N.ar    1  UNL1       -0.2207
      5 C           0.9556    1.6585   27.1497 C.ar    1  UNL1        0.2024
      6 C           1.8326    2.4475   26.2233 C.2     1  UNL1        0.2837
      7 O           2.7688    3.4813   26.7756 O.2     1  UNL1       -0.2666
      8 N           1.7737    2.2028   24.7446 N.am    1  UNL1       -0.2735
      9 C           2.6507    2.9918   23.8182 C.3     1  UNL1        0.0955
     10 C           2.5916    2.7471   22.3394 C.3     1  UNL1        0.0410
     11 C           1.6555    1.7134   21.7871 C.3     1  UNL1        0.0724
     12 C           0.7784    0.9243   22.7135 C.3     1  UNL1        0.0410
     13 C           0.8375    1.1690   24.1922 C.3     1  UNL1        0.0955
     14 N           1.5964    1.4686   20.3084 N.pl3   1  UNL1       -0.3339
     15 H           1.0547    2.0562   19.7335 H       1  UNL1        0.1468
     16 C           2.3627    0.3286   19.7057 C.ar    1  UNL1        0.0469
     17 C           2.6809   -0.8816   20.5327 C.ar    1  UNL1        0.0144
     18 C           3.4471   -2.0215   19.9301 C.ar    1  UNL1        0.0036
     19 C           3.8951   -1.9514   18.5002 C.ar    1  UNL1        0.0297
     20 C           3.5769   -0.7411   17.6731 C.ar    1  UNL1        0.1414
     21 F           4.0249   -0.6709   16.2433 F       1  UNL1       -0.2041
     22 C           2.8106    0.3989   18.2759 C.ar    1  UNL1        0.0439
     23 C           5.4261   -1.4917   27.8752 C.ar    1  UNL1       -0.0060
     24 C           4.6146   -1.4202   26.6157 C.ar    1  UNL1       -0.0014
     25 C           3.2598   -0.7764   26.6319 C.ar    1  UNL1        0.0173
     26 C           2.7167   -0.2041   27.9077 C.ar    1  UNL1        0.0655
     27 C           3.5282   -0.2756   29.1672 C.ar    1  UNL1        0.0173
     28 C           4.8829   -0.9194   29.1509 C.ar    1  UNL1       -0.0014
     29 C           6.7808   -2.1355   27.8590 C.3     1  UNL1        0.0992
     30 C           7.1326   -5.8861   31.4379 C.3     1  UNL1        0.0186
     31 C           7.1018   -5.4619   29.9995 C.3     1  UNL1        0.0702
     32 C           6.9567   -4.0109   29.6484 C.3     1  UNL1        0.0882
     33 N           6.9259   -3.5866   28.2100 N.3     1  UNL1       -0.2666
     34 C           7.0400   -4.6135   27.1226 C.3     1  UNL1        0.0882
     35 C           7.1850   -6.0646   27.4737 C.3     1  UNL1        0.0702
     36 C           7.2991   -7.0916   26.3862 C.3     1  UNL1        0.0186
     37 N           7.2159   -6.4888   28.9121 N.3     1  UNL1       -0.2974
     38 H           8.1013   -6.9740   29.0570 H       1  UNL1        0.1232
@<TRIPOS>BOND
     1    31    30    1
     2    31    32    1
     3    32    33    1
     4    33    29    1
     5    29    23    1
     6    23    24   ar
     7    24    25   ar
     8    25    26   ar
     9    26     1    1
    10     1     2   ar
    11     2     3   ar
    12     3     4   ar
    13     4     5   ar
    14     5     6    1
    15     6     7    2
    16     6     8   am
    17     8     9    1
    18     9    10    1
    19    10    11    1
    20    11    14    1
    21    14    16    1
    22    16    17   ar
    23    17    18   ar
    24    18    19   ar
    25    19    20   ar
    26    20    21    1
    27    20    22   ar
    28    11    12    1
    29    12    13    1
    30    26    27   ar
    31    27    28   ar
    32    33    34    1
    33    34    35    1
    34    35    36    1
    35    35    37    1
    36    37    31    1
    37    28    23   ar
    38     5     1   ar
    39    13     8    1
    40    22    16   ar
    41    14    15    1
    42    37    38    1
@<TRIPOS>MOLECULE
*****
 38 42 0 0 0
SMALL
GASTEIGER

@<TRIPOS>ATOM
      1 N           6.5027   -3.6103   26.8510 N.ar    1  UNL1       -0.2852
      2 C           6.4620   -4.8724   27.6605 C.ar    1  UNL1        0.1023
      3 C           7.3495   -5.8805   26.9924 C.ar    1  UNL1        0.1197
      4 N           7.9387   -5.2413   25.7700 N.ar    1  UNL1       -0.2207
      5 C           7.4153   -3.8383   25.6826 C.ar    1  UNL1        0.2024
      6 C           7.7465   -2.8387   24.6143 C.2     1  UNL1        0.2837
      7 O           8.8840   -1.8806   24.8102 O.2     1  UNL1       -0.2666
      8 N           6.9403   -2.7971   23.3500 N.am    1  UNL1       -0.2735
      9 C           7.2715   -1.7977   22.2818 C.3     1  UNL1        0.0955
     10 C           6.4653   -1.7561   21.0175 C.3     1  UNL1        0.0410
     11 C           5.3278   -2.7142   20.8216 C.3     1  UNL1        0.0724
     12 C           4.9966   -3.7138   21.8899 C.3     1  UNL1        0.0410
     13 C           5.8028   -3.7553   23.1541 C.3     1  UNL1        0.0955
     14 N           4.5216   -2.6727   19.5574 N.pl3   1  UNL1       -0.3339
     15 H           4.6252   -3.3833   18.8840 H       1  UNL1        0.1468
     16 C           3.5576   -1.5484   19.3192 C.ar    1  UNL1        0.0469
     17 C           3.8653   -0.5021   18.2895 C.ar    1  UNL1        0.0144
     18 C           2.9013    0.6221   18.0513 C.ar    1  UNL1        0.0036
     19 C           1.6295    0.7000   18.8429 C.ar    1  UNL1        0.0297
     20 C           1.3218   -0.3463   19.8726 C.ar    1  UNL1        0.1414
     21 F           0.0500   -0.2685   20.6642 F       1  UNL1       -0.2041
     22 C           2.2858   -1.4706   20.1108 C.ar    1  UNL1        0.0439
     23 C           4.2776    0.1924   27.7667 C.ar    1  UNL1       -0.0060
     24 C           5.2113   -0.3938   28.7840 C.ar    1  UNL1       -0.0014
     25 C           5.9530   -1.6614   28.4787 C.ar    1  UNL1        0.0173
     26 C           5.7610   -2.3427   27.1562 C.ar    1  UNL1        0.0655
     27 C           4.8274   -1.7566   26.1391 C.ar    1  UNL1        0.0173
     28 C           4.0857   -0.4890   26.4443 C.ar    1  UNL1       -0.0014
     29 C           3.5359    1.4599   28.0720 C.3     1  UNL1        0.0992
     30 C          -1.2646   -0.3785   28.8306 C.3     1  UNL1        0.0186
     31 C          -0.1247    0.4952   29.2634 C.3     1  UNL1        0.0702
     32 C           1.1356    0.5407   28.4513 C.3     1  UNL1        0.0882
     33 N           2.2755    1.4144   28.8841 N.3     1  UNL1       -0.2666
     34 C           2.1551    2.2425   30.1290 C.3     1  UNL1        0.0882
     35 C           0.8948    2.1969   30.9411 C.3     1  UNL1        0.0702
     36 C           0.7744    3.0250   32.1860 C.3     1  UNL1        0.0186
     37 N          -0.2451    1.3232   30.5083 N.3     1  UNL1       -0.2974
     38 H          -1.0516    1.9342   30.3787 H       1  UNL1        0.1232
@<TRIPOS>BOND
     1    31    30    1
     2    31    32    1
     3    32    33    1
     4    33    29    1
     5    29    23    1
     6    23    24   ar
     7    24    25   ar
     8    25    26   ar
     9    26     1    1
    10     1     2   ar
    11     2     3   ar
    12     3     4   ar
    13     4     5   ar
    14     5     6    1
    15     6     7    2
    16     6     8   am
    17     8     9    1
    18     9    10    1
    19    10    11    1
    20    11    14    1
    21    14    16    1
    22    16    17   ar
    23    17    18   ar
    24    18    19   ar
    25    19    20   ar
    26    20    21    1
    27    20    22   ar
    28    11    12    1
    29    12    13    1
    30    26    27   ar
    31    27    28   ar
    32    33    34    1
    33    34    35    1
    34    35    36    1
    35    35    37    1
    36    37    31    1
    37    28    23   ar
    38     5     1   ar
    39    13     8    1
    40    22    16   ar
    41    14    15    1
    42    37    38    1
