@<TRIPOS>MOLECULE
*****
 26 29 0 0 0
SMALL
GASTEIGER

@<TRIPOS>ATOM
      1 C          -8.4696  -15.3718   26.9890 C.3     1  UNL1        0.1538
      2 N          -8.3111  -15.9099   25.5978 N.ar    1  UNL1       -0.2461
      3 C          -7.0118  -16.2170   24.9141 C.ar    1  UNL1        0.1113
      4 C          -7.3217  -16.7323   23.5398 C.ar    1  UNL1        0.0891
      5 C          -8.8125  -16.7436   23.3743 C.ar    1  UNL1        0.1158
      6 N          -9.4239  -16.2353   24.6462 N.ar    1  UNL1       -0.1679
      7 C          -9.5605  -17.1855   22.1515 C.ar    1  UNL1        0.0215
      8 C          -9.5744  -18.6345   21.7637 C.ar    1  UNL1        0.0016
      9 C         -10.3225  -19.0765   20.5410 C.ar    1  UNL1        0.0009
     10 C         -11.0565  -18.0695   19.7060 C.ar    1  UNL1        0.0114
     11 C         -11.0426  -16.6206   20.0938 C.ar    1  UNL1        0.0577
     12 CL        -11.7767  -15.6135   19.2588 Cl      1  UNL1       -0.0822
     13 C         -10.2946  -16.1786   21.3166 C.ar    1  UNL1        0.0130
     14 N          -6.3172  -17.1610   22.5117 N.am    1  UNL1       -0.2778
     15 C          -6.0932  -18.6199   22.2446 C.2     1  UNL1        0.2541
     16 O          -6.8737  -19.6502   23.0057 O.2     1  UNL1       -0.2696
     17 H          -5.8049  -16.4848   22.0121 H       1  UNL1        0.1553
     18 C          -5.0886  -19.0485   21.2164 C.ar    1  UNL1        0.1102
     19 C          -5.2145  -20.2285   20.2991 C.ar    1  UNL1        0.1281
     20 N          -3.9854  -20.2816   19.4408 N.ar    1  UNL1       -0.1619
     21 N          -3.0999  -19.1344   19.8277 N.ar    1  UNL1       -0.2105
     22 C          -1.7609  -18.6852   19.3226 C.ar    1  UNL1        0.1037
     23 C          -1.1036  -17.4739   19.9149 C.ar    1  UNL1        0.0414
     24 C          -1.7854  -16.7118   21.0123 C.ar    1  UNL1        0.1022
     25 N          -3.1245  -17.1609   21.5175 N.ar    1  UNL1       -0.2248
     26 C          -3.7818  -18.3722   20.9252 C.ar    1  UNL1        0.1697
@<TRIPOS>BOND
     1     1     2    1
     2     2     3   ar
     3     3     4   ar
     4     4    14    1
     5    14    15   am
     6    15    16    2
     7    15    18    1
     8    18    19   ar
     9    19    20   ar
    10    20    21   ar
    11    21    22   ar
    12    22    23   ar
    13    23    24   ar
    14    24    25   ar
    15    25    26   ar
    16     4     5   ar
    17     5     7    1
    18     7     8   ar
    19     8     9   ar
    20     9    10   ar
    21    10    11   ar
    22    11    12    1
    23    11    13   ar
    24     5     6   ar
    25     6     2   ar
    26    26    18   ar
    27    13     7   ar
    28    26    21   ar
    29    14    17    1
@<TRIPOS>MOLECULE
*****
 26 29 0 0 0
SMALL
GASTEIGER

@<TRIPOS>ATOM
      1 C          -2.1500  -20.0056   21.2156 C.3     1  UNL1        0.1538
      2 N          -3.3962  -19.2532   21.5774 N.ar    1  UNL1       -0.2461
      3 C          -4.6775  -19.2427   20.7976 C.ar    1  UNL1        0.1113
      4 C          -5.6530  -18.3621   21.5208 C.ar    1  UNL1        0.0891
      5 C          -4.9747  -17.8284   22.7475 C.ar    1  UNL1        0.1158
      6 N          -3.5799  -18.3791   22.7825 N.ar    1  UNL1       -0.1679
      7 C          -5.5841  -16.9060   23.7613 C.ar    1  UNL1        0.0215
      8 C          -4.7099  -16.2041   24.7579 C.ar    1  UNL1        0.0016
      9 C          -5.3193  -15.2817   25.7717 C.ar    1  UNL1        0.0009
     10 C          -6.8029  -15.0611   25.7888 C.ar    1  UNL1        0.0114
     11 C          -7.6771  -15.7629   24.7922 C.ar    1  UNL1        0.0577
     12 CL         -9.1607  -15.5423   24.8094 Cl      1  UNL1       -0.0822
     13 C          -7.0677  -16.6854   23.7785 C.ar    1  UNL1        0.0130
     14 N          -7.0600  -18.0671   21.0924 N.am    1  UNL1       -0.2778
     15 C          -8.1922  -18.9055   21.6073 C.2     1  UNL1        0.2541
     16 O          -7.9176  -20.0390   22.5505 O.2     1  UNL1       -0.2696
     17 H          -7.2403  -17.3232   20.4733 H       1  UNL1        0.1553
     18 C          -9.5991  -18.6104   21.1788 C.ar    1  UNL1        0.1102
     19 C         -10.0747  -18.4480   19.7656 C.ar    1  UNL1        0.1281
     20 N         -11.5470  -18.1632   19.8018 N.ar    1  UNL1       -0.1619
     21 N         -11.9813  -18.1495   21.2374 N.ar    1  UNL1       -0.2105
     22 C         -13.3175  -17.9211   21.8797 C.ar    1  UNL1        0.1037
     23 C         -13.4498  -17.9692   23.3731 C.ar    1  UNL1        0.0414
     24 C         -12.2459  -18.2456   24.2242 C.ar    1  UNL1        0.1022
     25 N         -10.9097  -18.4740   23.5819 N.ar    1  UNL1       -0.2248
     26 C         -10.7774  -18.4260   22.0885 C.ar    1  UNL1        0.1697
@<TRIPOS>BOND
     1     1     2    1
     2     2     3   ar
     3     3     4   ar
     4     4    14    1
     5    14    15   am
     6    15    16    2
     7    15    18    1
     8    18    19   ar
     9    19    20   ar
    10    20    21   ar
    11    21    22   ar
    12    22    23   ar
    13    23    24   ar
    14    24    25   ar
    15    25    26   ar
    16     4     5   ar
    17     5     7    1
    18     7     8   ar
    19     8     9   ar
    20     9    10   ar
    21    10    11   ar
    22    11    12    1
    23    11    13   ar
    24     5     6   ar
    25     6     2   ar
    26    26    18   ar
    27    13     7   ar
    28    26    21   ar
    29    14    17    1
@<TRIPOS>MOLECULE
*****
 26 29 0 0 0
SMALL
GASTEIGER

@<TRIPOS>ATOM
      1 C          -8.3240  -14.8253   27.7017 C.3     1  UNL1        0.1538
      2 N          -8.1075  -15.4126   26.3386 N.ar    1  UNL1       -0.2461
      3 C          -6.8093  -15.4434   25.5878 C.ar    1  UNL1        0.1113
      4 C          -7.0507  -16.1221   24.2721 C.ar    1  UNL1        0.0891
      5 C          -8.4980  -16.5109   24.2097 C.ar    1  UNL1        0.1158
      6 N          -9.1512  -16.0724   25.4868 N.ar    1  UNL1       -0.1679
      7 C          -9.1737  -17.2146   23.0702 C.ar    1  UNL1        0.0215
      8 C          -8.9246  -18.6753   22.8374 C.ar    1  UNL1        0.0016
      9 C          -9.6002  -19.3790   21.6979 C.ar    1  UNL1        0.0009
     10 C         -10.5249  -18.6219   20.7913 C.ar    1  UNL1        0.0114
     11 C         -10.7739  -17.1612   21.0242 C.ar    1  UNL1        0.0577
     12 CL        -11.6985  -16.4041   20.1176 Cl      1  UNL1       -0.0822
     13 C         -10.0983  -16.4575   22.1636 C.ar    1  UNL1        0.0130
     14 N          -6.0247  -16.3688   23.2060 N.am    1  UNL1       -0.2778
     15 C          -4.6656  -16.8831   23.5777 C.2     1  UNL1        0.2541
     16 O          -4.3323  -17.1508   25.0155 O.2     1  UNL1       -0.2696
     17 H          -6.2434  -16.1931   22.2623 H       1  UNL1        0.1553
     18 C          -3.6396  -17.1298   22.5115 C.ar    1  UNL1        0.1102
     19 C          -2.4070  -16.3107   22.2677 C.ar    1  UNL1        0.1281
     20 N          -1.6719  -16.9136   21.1074 N.ar    1  UNL1       -0.1619
     21 N          -2.4502  -18.1052   20.6341 N.ar    1  UNL1       -0.2105
     22 C          -2.2087  -19.0860   19.5252 C.ar    1  UNL1        0.1037
     23 C          -3.1834  -20.2003   19.2839 C.ar    1  UNL1        0.0414
     24 C          -4.3996  -20.3340   20.1517 C.ar    1  UNL1        0.1022
     25 N          -4.6412  -19.3532   21.2607 N.ar    1  UNL1       -0.2248
     26 C          -3.6665  -18.2389   21.5020 C.ar    1  UNL1        0.1697
@<TRIPOS>BOND
     1     1     2    1
     2     2     3   ar
     3     3     4   ar
     4     4    14    1
     5    14    15   am
     6    15    16    2
     7    15    18    1
     8    18    19   ar
     9    19    20   ar
    10    20    21   ar
    11    21    22   ar
    12    22    23   ar
    13    23    24   ar
    14    24    25   ar
    15    25    26   ar
    16     4     5   ar
    17     5     7    1
    18     7     8   ar
    19     8     9   ar
    20     9    10   ar
    21    10    11   ar
    22    11    12    1
    23    11    13   ar
    24     5     6   ar
    25     6     2   ar
    26    26    18   ar
    27    13     7   ar
    28    26    21   ar
    29    14    17    1
@<TRIPOS>MOLECULE
*****
 26 29 0 0 0
SMALL
GASTEIGER

@<TRIPOS>ATOM
      1 C          -2.4510  -18.8296   18.8284 C.3     1  UNL1        0.1538
      2 N          -3.3551  -18.6842   20.0165 N.ar    1  UNL1       -0.2461
      3 C          -4.6916  -19.3418   20.1932 C.ar    1  UNL1        0.1113
      4 C          -5.2438  -18.9196   21.5224 C.ar    1  UNL1        0.0891
      5 C          -4.2486  -18.0010   22.1672 C.ar    1  UNL1        0.1158
      6 N          -3.0813  -17.8555   21.2365 N.ar    1  UNL1       -0.1679
      7 C          -4.3950  -17.3433   23.5074 C.ar    1  UNL1        0.0215
      8 C          -5.1860  -16.0755   23.6383 C.ar    1  UNL1        0.0016
      9 C          -5.3324  -15.4179   24.9785 C.ar    1  UNL1        0.0009
     10 C          -4.6878  -16.0281   26.1878 C.ar    1  UNL1        0.0114
     11 C          -3.8969  -17.2959   26.0568 C.ar    1  UNL1        0.0577
     12 CL         -3.2524  -17.9061   27.2661 Cl      1  UNL1       -0.0822
     13 C          -3.7505  -17.9535   24.7166 C.ar    1  UNL1        0.0130
     14 N          -6.5602  -19.3418   22.1046 N.am    1  UNL1       -0.2778
     15 C          -7.7415  -18.4201   22.0344 C.2     1  UNL1        0.2541
     16 O          -7.6065  -17.0761   21.3822 O.2     1  UNL1       -0.2696
     17 H          -6.6488  -20.2239   22.5327 H       1  UNL1        0.1553
     18 C          -9.0578  -18.8424   22.6166 C.ar    1  UNL1        0.1102
     19 C          -9.3436  -20.1500   23.2936 C.ar    1  UNL1        0.1281
     20 N         -10.7819  -20.1470   23.7194 N.ar    1  UNL1       -0.1619
     21 N         -11.3851  -18.8375   23.3056 N.ar    1  UNL1       -0.2105
     22 C         -12.7669  -18.2750   23.4613 C.ar    1  UNL1        0.1037
     23 C         -13.0832  -16.9063   22.9354 C.ar    1  UNL1        0.0414
     24 C         -12.0177  -16.1000   22.2538 C.ar    1  UNL1        0.1022
     25 N         -10.6358  -16.6624   22.0981 N.ar    1  UNL1       -0.2248
     26 C         -10.3195  -18.0312   22.6240 C.ar    1  UNL1        0.1697
@<TRIPOS>BOND
     1     1     2    1
     2     2     3   ar
     3     3     4   ar
     4     4    14    1
     5    14    15   am
     6    15    16    2
     7    15    18    1
     8    18    19   ar
     9    19    20   ar
    10    20    21   ar
    11    21    22   ar
    12    22    23   ar
    13    23    24   ar
    14    24    25   ar
    15    25    26   ar
    16     4     5   ar
    17     5     7    1
    18     7     8   ar
    19     8     9   ar
    20     9    10   ar
    21    10    11   ar
    22    11    12    1
    23    11    13   ar
    24     5     6   ar
    25     6     2   ar
    26    26    18   ar
    27    13     7   ar
    28    26    21   ar
    29    14    17    1
@<TRIPOS>MOLECULE
*****
 26 29 0 0 0
SMALL
GASTEIGER

@<TRIPOS>ATOM
      1 C           0.3243  -17.7645   19.7574 C.3     1  UNL1        0.1538
      2 N          -1.0528  -18.0097   20.2989 N.ar    1  UNL1       -0.2461
      3 C          -1.6205  -17.4293   21.5602 C.ar    1  UNL1        0.1113
      4 C          -3.0227  -17.9393   21.7151 C.ar    1  UNL1        0.0891
      5 C          -3.3215  -18.8350   20.5495 C.ar    1  UNL1        0.1158
      6 N          -2.1041  -18.8784   19.6743 N.ar    1  UNL1       -0.1679
      7 C          -4.6113  -19.5598   20.3025 C.ar    1  UNL1        0.0215
      8 C          -4.6120  -21.0489   20.1213 C.ar    1  UNL1        0.0016
      9 C          -5.9018  -21.7738   19.8744 C.ar    1  UNL1        0.0009
     10 C          -7.1909  -21.0096   19.8086 C.ar    1  UNL1        0.0114
     11 C          -7.1902  -19.5206   19.9898 C.ar    1  UNL1        0.0577
     12 CL         -8.4793  -18.7564   19.9240 Cl      1  UNL1       -0.0822
     13 C          -5.9004  -18.7957   20.2367 C.ar    1  UNL1        0.0130
     14 N          -3.9611  -17.6113   22.8383 N.am    1  UNL1       -0.2778
     15 C          -4.2542  -16.1797   23.1770 C.2     1  UNL1        0.2541
     16 O          -3.6088  -15.0761   22.3925 O.2     1  UNL1       -0.2696
     17 H          -4.3848  -18.3356   23.3532 H       1  UNL1        0.1553
     18 C          -5.1927  -15.8518   24.3002 C.ar    1  UNL1        0.1102
     19 C          -4.8004  -15.3595   25.6617 C.ar    1  UNL1        0.1281
     20 N          -6.0536  -15.1620   26.4620 N.ar    1  UNL1       -0.1619
     21 N          -7.2204  -15.5323   25.5953 N.ar    1  UNL1       -0.2105
     22 C          -8.6986  -15.5364   25.8500 C.ar    1  UNL1        0.1037
     23 C          -9.6448  -15.9668   24.7685 C.ar    1  UNL1        0.0414
     24 C          -9.1128  -16.3931   23.4324 C.ar    1  UNL1        0.1022
     25 N          -7.6345  -16.3890   23.1777 N.ar    1  UNL1       -0.2248
     26 C          -6.6883  -15.9586   24.2591 C.ar    1  UNL1        0.1697
@<TRIPOS>BOND
     1     1     2    1
     2     2     3   ar
     3     3     4   ar
     4     4    14    1
     5    14    15   am
     6    15    16    2
     7    15    18    1
     8    18    19   ar
     9    19    20   ar
    10    20    21   ar
    11    21    22   ar
    12    22    23   ar
    13    23    24   ar
    14    24    25   ar
    15    25    26   ar
    16     4     5   ar
    17     5     7    1
    18     7     8   ar
    19     8     9   ar
    20     9    10   ar
    21    10    11   ar
    22    11    12    1
    23    11    13   ar
    24     5     6   ar
    25     6     2   ar
    26    26    18   ar
    27    13     7   ar
    28    26    21   ar
    29    14    17    1
@<TRIPOS>MOLECULE
*****
 26 29 0 0 0
SMALL
GASTEIGER

@<TRIPOS>ATOM
      1 C          -3.1986  -20.3900   20.2764 C.3     1  UNL1        0.1538
      2 N          -4.2508  -19.5638   20.9549 N.ar    1  UNL1       -0.2461
      3 C          -5.6967  -19.4835   20.5639 C.ar    1  UNL1        0.1113
      4 C          -6.3814  -18.5430   21.5108 C.ar    1  UNL1        0.0891
      5 C          -5.3586  -18.0421   22.4871 C.ar    1  UNL1        0.1158
      6 N          -4.0419  -18.6730   22.1435 N.ar    1  UNL1       -0.1679
      7 C          -5.6087  -17.0793   23.6098 C.ar    1  UNL1        0.0215
      8 C          -4.4695  -16.6173   24.4694 C.ar    1  UNL1        0.0016
      9 C          -4.7197  -15.6545   25.5922 C.ar    1  UNL1        0.0009
     10 C          -6.1090  -15.1538   25.8553 C.ar    1  UNL1        0.0114
     11 C          -7.2481  -15.6158   24.9957 C.ar    1  UNL1        0.0577
     12 CL         -8.6374  -15.1150   25.2588 Cl      1  UNL1       -0.0822
     13 C          -6.9980  -16.5785   23.8730 C.ar    1  UNL1        0.0130
     14 N          -7.8338  -18.1690   21.4859 N.am    1  UNL1       -0.2778
     15 C          -8.8252  -18.9574   22.2894 C.2     1  UNL1        0.2541
     16 O          -8.3642  -20.1197   23.1179 O.2     1  UNL1       -0.2696
     17 H          -8.1364  -17.4062   20.9421 H       1  UNL1        0.1553
     18 C         -10.2776  -18.5834   22.2644 C.ar    1  UNL1        0.1102
     19 C         -11.3477  -19.1436   23.1536 C.ar    1  UNL1        0.1281
     20 N         -12.6464  -18.4899   22.7844 N.ar    1  UNL1       -0.1619
     21 N         -12.3788  -17.5257   21.6671 N.ar    1  UNL1       -0.2105
     22 C         -13.2791  -16.6025   20.9007 C.ar    1  UNL1        0.1037
     23 C         -12.7154  -15.7371   19.8129 C.ar    1  UNL1        0.0414
     24 C         -11.2514  -15.7948   19.4915 C.ar    1  UNL1        0.1022
     25 N         -10.3510  -16.7180   20.2578 N.ar    1  UNL1       -0.2248
     26 C         -10.9148  -17.5835   21.3456 C.ar    1  UNL1        0.1697
@<TRIPOS>BOND
     1     1     2    1
     2     2     3   ar
     3     3     4   ar
     4     4    14    1
     5    14    15   am
     6    15    16    2
     7    15    18    1
     8    18    19   ar
     9    19    20   ar
    10    20    21   ar
    11    21    22   ar
    12    22    23   ar
    13    23    24   ar
    14    24    25   ar
    15    25    26   ar
    16     4     5   ar
    17     5     7    1
    18     7     8   ar
    19     8     9   ar
    20     9    10   ar
    21    10    11   ar
    22    11    12    1
    23    11    13   ar
    24     5     6   ar
    25     6     2   ar
    26    26    18   ar
    27    13     7   ar
    28    26    21   ar
    29    14    17    1
@<TRIPOS>MOLECULE
*****
 26 29 0 0 0
SMALL
GASTEIGER

@<TRIPOS>ATOM
      1 C           6.3407   -1.5681   30.2279 C.3     1  UNL1        0.1538
      2 N           5.2645   -1.3292   29.2108 N.ar    1  UNL1       -0.2461
      3 C           5.2516   -1.8460   27.8028 C.ar    1  UNL1        0.1113
      4 C           3.9912   -1.3677   27.1449 C.ar    1  UNL1        0.0891
      5 C           3.2252   -0.5552   28.1464 C.ar    1  UNL1        0.1158
      6 N           4.0121   -0.5314   29.4232 N.ar    1  UNL1       -0.1679
      7 C           1.9042    0.1157   27.9123 C.ar    1  UNL1        0.0215
      8 C           1.7833    1.1926   26.8750 C.ar    1  UNL1        0.0016
      9 C           0.4623    1.8635   26.6409 C.ar    1  UNL1        0.0009
     10 C          -0.7379    1.4575   27.4439 C.ar    1  UNL1        0.0114
     11 C          -0.6170    0.3807   28.4811 C.ar    1  UNL1        0.0577
     12 CL         -1.8172   -0.0253   29.2841 Cl      1  UNL1       -0.0822
     13 C           0.7040   -0.2902   28.7152 C.ar    1  UNL1        0.0130
     14 N           3.5708   -1.6520   25.7334 N.am    1  UNL1       -0.2778
     15 C           4.0103   -0.7446   24.6227 C.2     1  UNL1        0.2541
     16 O           4.8702    0.4470   24.9235 O.2     1  UNL1       -0.2696
     17 H           3.0063   -2.4341   25.5359 H       1  UNL1        0.1553
     18 C           3.5897   -1.0290   23.2112 C.ar    1  UNL1        0.1102
     19 C           4.2056   -2.0447   22.2954 C.ar    1  UNL1        0.1281
     20 N           3.4760   -1.9910   20.9859 N.ar    1  UNL1       -0.1619
     21 N           2.4092   -0.9419   21.0924 N.ar    1  UNL1       -0.2105
     22 C           1.3828   -0.4512   20.1147 C.ar    1  UNL1        0.1037
     23 C           0.4267    0.6340   20.5124 C.ar    1  UNL1        0.0414
     24 C           0.4970    1.2286   21.8878 C.ar    1  UNL1        0.1022
     25 N           1.5234    0.7379   22.8655 N.ar    1  UNL1       -0.2248
     26 C           2.4795   -0.3474   22.4678 C.ar    1  UNL1        0.1697
@<TRIPOS>BOND
     1     1     2    1
     2     2     3   ar
     3     3     4   ar
     4     4    14    1
     5    14    15   am
     6    15    16    2
     7    15    18    1
     8    18    19   ar
     9    19    20   ar
    10    20    21   ar
    11    21    22   ar
    12    22    23   ar
    13    23    24   ar
    14    24    25   ar
    15    25    26   ar
    16     4     5   ar
    17     5     7    1
    18     7     8   ar
    19     8     9   ar
    20     9    10   ar
    21    10    11   ar
    22    11    12    1
    23    11    13   ar
    24     5     6   ar
    25     6     2   ar
    26    26    18   ar
    27    13     7   ar
    28    26    21   ar
    29    14    17    1
@<TRIPOS>MOLECULE
*****
 26 29 0 0 0
SMALL
GASTEIGER

@<TRIPOS>ATOM
      1 C           6.3427   -1.9667   30.1883 C.3     1  UNL1        0.1538
      2 N           5.2602   -1.5720   29.2279 N.ar    1  UNL1       -0.2461
      3 C           5.1753   -1.9682   27.7837 C.ar    1  UNL1        0.1113
      4 C           3.9351   -1.3529   27.2063 C.ar    1  UNL1        0.0891
      5 C           3.2536   -0.5763   28.2937 C.ar    1  UNL1        0.1158
      6 N           4.0725   -0.7117   29.5430 N.ar    1  UNL1       -0.1679
      7 C           1.9772    0.1995   28.1558 C.ar    1  UNL1        0.0215
      8 C           1.9675    1.5013   27.4105 C.ar    1  UNL1        0.0016
      9 C           0.6911    2.2771   27.2727 C.ar    1  UNL1        0.0009
     10 C          -0.5756    1.7511   27.8802 C.ar    1  UNL1        0.0114
     11 C          -0.5658    0.4494   28.6254 C.ar    1  UNL1        0.0577
     12 CL         -1.8325   -0.0765   29.2329 Cl      1  UNL1       -0.0822
     13 C           0.7106   -0.3264   28.7633 C.ar    1  UNL1        0.0130
     14 N           3.4600   -1.4900   25.7902 N.am    1  UNL1       -0.2778
     15 C           3.7735   -0.4199   24.7869 C.2     1  UNL1        0.2541
     16 O           4.5621    0.7874   25.1997 O.2     1  UNL1       -0.2696
     17 H           2.9424   -2.2824   25.5192 H       1  UNL1        0.1553
     18 C           3.2983   -0.5572   23.3708 C.ar    1  UNL1        0.1102
     19 C           2.3484    0.3653   22.6662 C.ar    1  UNL1        0.1281
     20 N           2.1526   -0.1485   21.2706 N.ar    1  UNL1       -0.1619
     21 N           2.9816   -1.3885   21.1126 N.ar    1  UNL1       -0.2105
     22 C           3.1832   -2.3203   19.9545 C.ar    1  UNL1        0.1037
     23 C           4.0929   -3.5047   20.0945 C.ar    1  UNL1        0.0414
     24 C           4.8010   -3.7574   21.3925 C.ar    1  UNL1        0.1022
     25 N           4.5994   -2.8255   22.5506 N.ar    1  UNL1       -0.2248
     26 C           3.6897   -1.6411   22.4107 C.ar    1  UNL1        0.1697
@<TRIPOS>BOND
     1     1     2    1
     2     2     3   ar
     3     3     4   ar
     4     4    14    1
     5    14    15   am
     6    15    16    2
     7    15    18    1
     8    18    19   ar
     9    19    20   ar
    10    20    21   ar
    11    21    22   ar
    12    22    23   ar
    13    23    24   ar
    14    24    25   ar
    15    25    26   ar
    16     4     5   ar
    17     5     7    1
    18     7     8   ar
    19     8     9   ar
    20     9    10   ar
    21    10    11   ar
    22    11    12    1
    23    11    13   ar
    24     5     6   ar
    25     6     2   ar
    26    26    18   ar
    27    13     7   ar
    28    26    21   ar
    29    14    17    1
@<TRIPOS>MOLECULE
*****
 26 29 0 0 0
SMALL
GASTEIGER

@<TRIPOS>ATOM
      1 C           6.3481   -2.9725   27.6385 C.3     1  UNL1        0.1538
      2 N           5.3286   -2.0030   28.1587 N.ar    1  UNL1       -0.2461
      3 C           5.4036   -1.2572   29.4579 C.ar    1  UNL1        0.1113
      4 C           4.1764   -0.4024   29.5732 C.ar    1  UNL1        0.0891
      5 C           3.3429   -0.6199   28.3452 C.ar    1  UNL1        0.1158
      6 N           4.0550   -1.6092   27.4710 N.ar    1  UNL1       -0.1679
      7 C           2.0282    0.0365   28.0442 C.ar    1  UNL1        0.0215
      8 C           1.9420    1.0894   26.9793 C.ar    1  UNL1        0.0016
      9 C           0.6273    1.7459   26.6783 C.ar    1  UNL1        0.0009
     10 C          -0.6013    1.3494   27.4423 C.ar    1  UNL1        0.0114
     11 C          -0.5150    0.2966   28.5072 C.ar    1  UNL1        0.0577
     12 CL         -1.7436   -0.0999   29.2711 Cl      1  UNL1       -0.0822
     13 C           0.7997   -0.3599   28.8081 C.ar    1  UNL1        0.0130
     14 N           3.8414    0.5098   30.7159 N.am    1  UNL1       -0.2778
     15 C           3.4599   -0.0653   32.0476 C.2     1  UNL1        0.2541
     16 O           3.4132   -1.5525   32.2368 O.2     1  UNL1       -0.2696
     17 H           3.8721    1.4860   30.5917 H       1  UNL1        0.1553
     18 C           3.1249    0.8470   33.1903 C.ar    1  UNL1        0.1102
     19 C           2.1443    1.9814   33.1546 C.ar    1  UNL1        0.1281
     20 N           2.1252    2.6205   34.5115 N.ar    1  UNL1       -0.1619
     21 N           3.0941    1.8811   35.3859 N.ar    1  UNL1       -0.2105
     22 C           3.4936    2.0643   36.8200 C.ar    1  UNL1        0.1037
     23 C           4.5110    1.1513   37.4376 C.ar    1  UNL1        0.0414
     24 C           5.1289    0.0552   36.6211 C.ar    1  UNL1        0.1022
     25 N           4.7294   -0.1280   35.1868 N.ar    1  UNL1       -0.2248
     26 C           3.7120    0.7850   34.5692 C.ar    1  UNL1        0.1697
@<TRIPOS>BOND
     1     1     2    1
     2     2     3   ar
     3     3     4   ar
     4     4    14    1
     5    14    15   am
     6    15    16    2
     7    15    18    1
     8    18    19   ar
     9    19    20   ar
    10    20    21   ar
    11    21    22   ar
    12    22    23   ar
    13    23    24   ar
    14    24    25   ar
    15    25    26   ar
    16     4     5   ar
    17     5     7    1
    18     7     8   ar
    19     8     9   ar
    20     9    10   ar
    21    10    11   ar
    22    11    12    1
    23    11    13   ar
    24     5     6   ar
    25     6     2   ar
    26    26    18   ar
    27    13     7   ar
    28    26    21   ar
    29    14    17    1
