@<TRIPOS>MOLECULE
*****
 31 34 0 0 0
SMALL
GASTEIGER

@<TRIPOS>ATOM
      1 C          -8.7217  -18.2139   21.1021 C.ar    1  UNL1        0.0951
      2 C          -9.5920  -18.7818   20.0205 C.ar    1  UNL1        0.1454
      3 F         -10.9843  -18.2587   19.8261 F       1  UNL1       -0.2040
      4 C          -9.0701  -19.8729   19.1333 C.ar    1  UNL1        0.0312
      5 C          -7.6778  -20.3960   19.3277 C.ar    1  UNL1        0.0204
      6 C          -6.8074  -19.8280   20.4094 C.ar    1  UNL1        0.0924
      7 C          -7.3293  -18.7369   21.2966 C.ar    1  UNL1        0.1598
      8 F          -6.4590  -18.1690   22.3782 F       1  UNL1       -0.2026
      9 C          -9.2437  -17.1228   21.9893 C.2     1  UNL1        0.2036
     10 O          -9.5268  -15.7642   21.4200 O.2     1  UNL1       -0.2863
     11 C          -5.6035  -14.7526   25.9797 C.3     1  UNL1        0.0307
     12 C          -6.8201  -15.6292   25.9405 C.2     1  UNL1        0.0074
     13 C          -7.4158  -16.1429   27.2176 C.2     1  UNL1        0.2278
     14 N          -8.6324  -17.0195   27.1784 N.2     1  UNL1       -0.0314
     15 C          -9.2533  -17.3823   25.8621 C.2     1  UNL1        0.3720
     16 N         -10.4463  -18.2216   25.5123 N.2     1  UNL1       -0.0307
     17 C         -10.5879  -18.2266   24.0190 C.2     1  UNL1        0.2390
     18 C          -9.4824  -17.3903   23.4458 C.2     1  UNL1        0.0896
     19 C          -8.6576  -16.8686   24.5849 C.2     1  UNL1        0.0771
     20 C          -7.4410  -15.9920   24.6242 C.3     1  UNL1        0.0602
     21 N          -5.4151  -20.3511   20.6037 N.pl3   1  UNL1       -0.2128
     22 H          -5.2662  -21.3140   20.7448 H       1  UNL1        0.1738
     23 S          -4.2495  -19.4072   20.5832 S.O2    1  UNL1        0.0751
     24 O          -4.7465  -18.8214   19.2949 O.2     1  UNL1       -0.1499
     25 O          -3.7525  -19.9929   21.8715 O.2     1  UNL1       -0.1499
     26 C          -3.0839  -18.4632   20.5627 C.ar    1  UNL1        0.1442
     27 C          -2.9266  -17.4422   21.6503 C.ar    1  UNL1        0.0234
     28 C          -1.7610  -16.4983   21.6299 C.ar    1  UNL1        0.0221
     29 C          -0.7528  -16.5753   20.5219 C.ar    1  UNL1        0.0990
     30 N          -0.9102  -17.5962   19.4343 N.ar    1  UNL1       -0.2409
     31 C          -2.0757  -18.5402   19.4547 C.ar    1  UNL1        0.1190
@<TRIPOS>BOND
     1    11    12    1
     2    12    13    2
     3    13    14    1
     4    14    15    2
     5    15    16    1
     6    16    17    2
     7    17    18    1
     8    18     9    1
     9     9    10    2
    10     9     1    1
    11     1     2   ar
    12     2     3    1
    13     2     4   ar
    14     4     5   ar
    15     5     6   ar
    16     6    21    1
    17    21    23    1
    18    23    24    2
    19    23    25    2
    20    23    26    1
    21    26    27   ar
    22    27    28   ar
    23    28    29   ar
    24    29    30   ar
    25    30    31   ar
    26     6     7   ar
    27     7     8    1
    28    18    19    2
    29    19    20    1
    30    20    12    1
    31    19    15    1
    32     7     1   ar
    33    31    26   ar
    34    21    22    1
@<TRIPOS>MOLECULE
*****
 31 34 0 0 0
SMALL
GASTEIGER

@<TRIPOS>ATOM
      1 C          -4.9469  -19.5016   21.4683 C.ar    1  UNL1        0.0951
      2 C          -3.6378  -19.9121   20.8619 C.ar    1  UNL1        0.1454
      3 F          -3.5329  -21.2047   20.1082 F       1  UNL1       -0.2040
      4 C          -2.4335  -19.0300   21.0093 C.ar    1  UNL1        0.0312
      5 C          -2.5384  -17.7374   21.7631 C.ar    1  UNL1        0.0204
      6 C          -3.8476  -17.3269   22.3695 C.ar    1  UNL1        0.0924
      7 C          -5.0518  -18.2090   22.2221 C.ar    1  UNL1        0.1598
      8 F          -6.3609  -17.7984   22.8284 F       1  UNL1       -0.2026
      9 C          -6.1511  -20.3837   21.3209 C.2     1  UNL1        0.2036
     10 O          -6.0867  -21.8191   21.7516 O.2     1  UNL1       -0.2863
     11 C         -10.7778  -19.4967   24.8704 C.3     1  UNL1        0.0307
     12 C         -10.4159  -19.3325   23.4240 C.2     1  UNL1        0.0074
     13 C         -11.4248  -18.7907   22.4553 C.2     1  UNL1        0.2278
     14 N         -11.0629  -18.6265   21.0089 N.2     1  UNL1       -0.0314
     15 C          -9.6921  -19.0040   20.5312 C.2     1  UNL1        0.3720
     16 N          -9.0524  -18.9537   19.1754 N.2     1  UNL1       -0.0307
     17 C          -7.6481  -19.4645   19.3062 C.2     1  UNL1        0.2390
     18 C          -7.4198  -19.8304   20.7428 C.2     1  UNL1        0.0896
     19 C          -8.6831  -19.5458   21.4999 C.2     1  UNL1        0.0771
     20 C          -9.0451  -19.7100   22.9463 C.3     1  UNL1        0.0602
     21 N          -3.9524  -16.0343   23.1232 N.pl3   1  UNL1       -0.2128
     22 H          -3.2970  -15.3172   22.9641 H       1  UNL1        0.1738
     23 S          -5.0559  -15.8343   24.1193 S.O2    1  UNL1        0.0751
     24 O          -4.3919  -16.8053   25.0500 O.2     1  UNL1       -0.1499
     25 O          -5.7200  -14.8633   23.1887 O.2     1  UNL1       -0.1499
     26 C          -6.1595  -15.6343   25.1154 C.ar    1  UNL1        0.1442
     27 C          -5.8554  -15.6468   26.5842 C.ar    1  UNL1        0.0234
     28 C          -6.9589  -15.4468   27.5803 C.ar    1  UNL1        0.0221
     29 C          -8.3666  -15.2343   27.1077 C.ar    1  UNL1        0.0990
     30 N          -8.6707  -15.2218   25.6389 N.ar    1  UNL1       -0.2409
     31 C          -7.5672  -15.4218   24.6428 C.ar    1  UNL1        0.1190
@<TRIPOS>BOND
     1    11    12    1
     2    12    13    2
     3    13    14    1
     4    14    15    2
     5    15    16    1
     6    16    17    2
     7    17    18    1
     8    18     9    1
     9     9    10    2
    10     9     1    1
    11     1     2   ar
    12     2     3    1
    13     2     4   ar
    14     4     5   ar
    15     5     6   ar
    16     6    21    1
    17    21    23    1
    18    23    24    2
    19    23    25    2
    20    23    26    1
    21    26    27   ar
    22    27    28   ar
    23    28    29   ar
    24    29    30   ar
    25    30    31   ar
    26     6     7   ar
    27     7     8    1
    28    18    19    2
    29    19    20    1
    30    20    12    1
    31    19    15    1
    32     7     1   ar
    33    31    26   ar
    34    21    22    1
@<TRIPOS>MOLECULE
*****
 31 34 0 0 0
SMALL
GASTEIGER

@<TRIPOS>ATOM
      1 C          -7.9247  -15.8285   24.9986 C.ar    1  UNL1        0.0951
      2 C          -7.6138  -15.8142   26.4659 C.ar    1  UNL1        0.1454
      3 F          -8.7152  -15.9968   27.4677 F       1  UNL1       -0.2040
      4 C          -6.2015  -15.6174   26.9314 C.ar    1  UNL1        0.0312
      5 C          -5.1001  -15.4349   25.9296 C.ar    1  UNL1        0.0204
      6 C          -5.4111  -15.4492   24.4622 C.ar    1  UNL1        0.0924
      7 C          -6.8234  -15.6460   23.9967 C.ar    1  UNL1        0.1598
      8 F          -7.1342  -15.6602   22.5293 F       1  UNL1       -0.2026
      9 C          -9.3370  -16.0253   24.5330 C.2     1  UNL1        0.2036
     10 O         -10.3634  -14.9596   24.7797 O.2     1  UNL1       -0.2863
     11 C         -11.5572  -15.6831   19.0791 C.3     1  UNL1        0.0307
     12 C         -11.2156  -16.7316   20.0959 C.2     1  UNL1        0.0074
     13 C         -11.4493  -18.1806   19.7865 C.2     1  UNL1        0.2278
     14 N         -11.1077  -19.2292   20.8033 N.2     1  UNL1       -0.0314
     15 C         -10.5323  -18.8287   22.1294 C.2     1  UNL1        0.3720
     16 N         -10.1010  -19.6323   23.3203 N.2     1  UNL1       -0.0307
     17 C          -9.6008  -18.6800   24.3657 C.2     1  UNL1        0.2390
     18 C          -9.7229  -17.2878   23.8209 C.2     1  UNL1        0.0896
     19 C         -10.2986  -17.3797   22.4387 C.2     1  UNL1        0.0771
     20 C         -10.6403  -16.3312   21.4220 C.3     1  UNL1        0.0602
     21 N          -4.3097  -15.2666   23.4604 N.pl3   1  UNL1       -0.2128
     22 H          -3.9539  -14.3669   23.2785 H       1  UNL1        0.1738
     23 S          -3.7504  -16.4550   22.7358 S.O2    1  UNL1        0.0751
     24 O          -4.5614  -17.3679   23.6068 O.2     1  UNL1       -0.1499
     25 O          -2.9394  -15.5421   21.8647 O.2     1  UNL1       -0.1499
     26 C          -3.1910  -17.6433   22.0111 C.ar    1  UNL1        0.1442
     27 C          -4.0022  -18.8995   21.8926 C.ar    1  UNL1        0.0234
     28 C          -3.4429  -20.0878   21.1680 C.ar    1  UNL1        0.0221
     29 C          -2.0725  -20.0199   20.5618 C.ar    1  UNL1        0.0990
     30 N          -1.2614  -18.7637   20.6803 N.ar    1  UNL1       -0.2409
     31 C          -1.8206  -17.5754   21.4050 C.ar    1  UNL1        0.1190
@<TRIPOS>BOND
     1    11    12    1
     2    12    13    2
     3    13    14    1
     4    14    15    2
     5    15    16    1
     6    16    17    2
     7    17    18    1
     8    18     9    1
     9     9    10    2
    10     9     1    1
    11     1     2   ar
    12     2     3    1
    13     2     4   ar
    14     4     5   ar
    15     5     6   ar
    16     6    21    1
    17    21    23    1
    18    23    24    2
    19    23    25    2
    20    23    26    1
    21    26    27   ar
    22    27    28   ar
    23    28    29   ar
    24    29    30   ar
    25    30    31   ar
    26     6     7   ar
    27     7     8    1
    28    18    19    2
    29    19    20    1
    30    20    12    1
    31    19    15    1
    32     7     1   ar
    33    31    26   ar
    34    21    22    1
@<TRIPOS>MOLECULE
*****
 31 34 0 0 0
SMALL
GASTEIGER

@<TRIPOS>ATOM
      1 C          -8.4495  -16.9751   25.2210 C.ar    1  UNL1        0.0951
      2 C          -8.4033  -16.7321   26.7005 C.ar    1  UNL1        0.1454
      3 F          -9.4506  -17.3310   27.5918 F       1  UNL1       -0.2040
      4 C          -7.3099  -15.8904   27.2886 C.ar    1  UNL1        0.0312
      5 C          -6.2627  -15.2914   26.3972 C.ar    1  UNL1        0.0204
      6 C          -6.3089  -15.5344   24.9177 C.ar    1  UNL1        0.0924
      7 C          -7.4022  -16.3762   24.3296 C.ar    1  UNL1        0.1598
      8 F          -7.4483  -16.6191   22.8501 F       1  UNL1       -0.2026
      9 C          -9.5429  -17.8169   24.6329 C.2     1  UNL1        0.2036
     10 O          -9.7717  -19.2101   25.1395 O.2     1  UNL1       -0.2863
     11 C          -9.2161  -20.1907   19.2432 C.3     1  UNL1        0.0307
     12 C          -9.9605  -19.0993   19.9535 C.2     1  UNL1        0.0074
     13 C         -10.9611  -18.2662   19.2086 C.2     1  UNL1        0.2278
     14 N         -11.7055  -17.1748   19.9189 N.2     1  UNL1       -0.0314
     15 C         -11.4493  -16.9163   21.3741 C.2     1  UNL1        0.3720
     16 N         -12.0265  -15.9176   22.3330 N.2     1  UNL1       -0.0307
     17 C         -11.3826  -16.1334   23.6705 C.2     1  UNL1        0.2390
     18 C         -10.4075  -17.2654   23.5382 C.2     1  UNL1        0.0896
     19 C         -10.4487  -17.7493   22.1189 C.2     1  UNL1        0.0771
     20 C          -9.7043  -18.8408   21.4086 C.3     1  UNL1        0.0602
     21 N          -5.2616  -14.9355   24.0263 N.pl3   1  UNL1       -0.2128
     22 H          -5.1998  -13.9579   23.9274 H       1  UNL1        0.1738
     23 S          -4.3084  -15.8260   23.2858 S.O2    1  UNL1        0.0751
     24 O          -4.0199  -14.7147   22.3206 O.2     1  UNL1       -0.1499
     25 O          -4.5969  -16.9374   24.2509 O.2     1  UNL1       -0.1499
     26 C          -3.3552  -16.7166   22.5452 C.ar    1  UNL1        0.1442
     27 C          -3.5138  -18.2066   22.6139 C.ar    1  UNL1        0.0234
     28 C          -2.5607  -19.0972   21.8734 C.ar    1  UNL1        0.0221
     29 C          -1.4490  -18.4978   21.0642 C.ar    1  UNL1        0.0990
     30 N          -1.2903  -17.0079   20.9955 N.ar    1  UNL1       -0.2409
     31 C          -2.2435  -16.1172   21.7360 C.ar    1  UNL1        0.1190
@<TRIPOS>BOND
     1    11    12    1
     2    12    13    2
     3    13    14    1
     4    14    15    2
     5    15    16    1
     6    16    17    2
     7    17    18    1
     8    18     9    1
     9     9    10    2
    10     9     1    1
    11     1     2   ar
    12     2     3    1
    13     2     4   ar
    14     4     5   ar
    15     5     6   ar
    16     6    21    1
    17    21    23    1
    18    23    24    2
    19    23    25    2
    20    23    26    1
    21    26    27   ar
    22    27    28   ar
    23    28    29   ar
    24    29    30   ar
    25    30    31   ar
    26     6     7   ar
    27     7     8    1
    28    18    19    2
    29    19    20    1
    30    20    12    1
    31    19    15    1
    32     7     1   ar
    33    31    26   ar
    34    21    22    1
@<TRIPOS>MOLECULE
*****
 31 34 0 0 0
SMALL
GASTEIGER

@<TRIPOS>ATOM
      1 C          -6.1255  -19.3017   21.2731 C.ar    1  UNL1        0.0951
      2 C          -4.9496  -20.1417   20.8708 C.ar    1  UNL1        0.1454
      3 F          -5.1586  -21.3819   20.0535 F       1  UNL1       -0.2040
      4 C          -3.5649  -19.7414   21.2859 C.ar    1  UNL1        0.0312
      5 C          -3.3559  -18.5012   22.1033 C.ar    1  UNL1        0.0204
      6 C          -4.5318  -17.6612   22.5055 C.ar    1  UNL1        0.0924
      7 C          -5.9166  -18.0614   22.0905 C.ar    1  UNL1        0.1598
      8 F          -7.0924  -17.2214   22.4928 F       1  UNL1       -0.2026
      9 C          -7.5102  -19.7019   20.8580 C.2     1  UNL1        0.2036
     10 O          -7.7599  -20.2070   19.4678 O.2     1  UNL1       -0.2863
     11 C         -12.0037  -16.0748   19.6566 C.3     1  UNL1        0.0307
     12 C         -11.5790  -17.0288   20.7333 C.2     1  UNL1        0.0074
     13 C         -12.4497  -17.2374   21.9368 C.2     1  UNL1        0.2278
     14 N         -12.0250  -18.1914   23.0135 N.2     1  UNL1       -0.0314
     15 C         -10.7295  -18.9369   22.8868 C.2     1  UNL1        0.3720
     16 N         -10.0540  -19.9346   23.7803 N.2     1  UNL1       -0.0307
     17 C          -8.7658  -20.3426   23.1291 C.2     1  UNL1        0.2390
     18 C          -8.6452  -19.5971   21.8331 C.2     1  UNL1        0.0896
     19 C          -9.8588  -18.7283   21.6834 C.2     1  UNL1        0.0771
     20 C         -10.2836  -17.7743   20.6066 C.3     1  UNL1        0.0602
     21 N          -4.3229  -16.4209   23.3229 N.pl3   1  UNL1       -0.2128
     22 H          -3.5272  -15.8609   23.1731 H       1  UNL1        0.1738
     23 S          -5.3263  -16.0339   24.3686 S.O2    1  UNL1        0.0751
     24 O          -4.7963  -17.1058   25.2740 O.2     1  UNL1       -0.1499
     25 O          -5.8564  -14.9619   23.4631 O.2     1  UNL1       -0.1499
     26 C          -6.3298  -15.6468   25.4142 C.ar    1  UNL1        0.1442
     27 C          -5.8748  -15.3204   26.8058 C.ar    1  UNL1        0.0234
     28 C          -6.8782  -14.9333   27.8514 C.ar    1  UNL1        0.0221
     29 C          -8.3365  -14.8726   27.5055 C.ar    1  UNL1        0.0990
     30 N          -8.7915  -15.1991   26.1139 N.ar    1  UNL1       -0.2409
     31 C          -7.7881  -15.5861   25.0683 C.ar    1  UNL1        0.1190
@<TRIPOS>BOND
     1    11    12    1
     2    12    13    2
     3    13    14    1
     4    14    15    2
     5    15    16    1
     6    16    17    2
     7    17    18    1
     8    18     9    1
     9     9    10    2
    10     9     1    1
    11     1     2   ar
    12     2     3    1
    13     2     4   ar
    14     4     5   ar
    15     5     6   ar
    16     6    21    1
    17    21    23    1
    18    23    24    2
    19    23    25    2
    20    23    26    1
    21    26    27   ar
    22    27    28   ar
    23    28    29   ar
    24    29    30   ar
    25    30    31   ar
    26     6     7   ar
    27     7     8    1
    28    18    19    2
    29    19    20    1
    30    20    12    1
    31    19    15    1
    32     7     1   ar
    33    31    26   ar
    34    21    22    1
@<TRIPOS>MOLECULE
*****
 31 34 0 0 0
SMALL
GASTEIGER

@<TRIPOS>ATOM
      1 C          -7.7141  -19.5410   20.3169 C.ar    1  UNL1        0.0951
      2 C          -8.7760  -20.0636   19.3955 C.ar    1  UNL1        0.1454
      3 F          -8.5108  -21.2801   18.5589 F       1  UNL1       -0.2040
      4 C         -10.1032  -19.3698   19.3105 C.ar    1  UNL1        0.0312
      5 C         -10.3685  -18.1533   20.1471 C.ar    1  UNL1        0.0204
      6 C          -9.3065  -17.6307   21.0686 C.ar    1  UNL1        0.0924
      7 C          -7.9793  -18.3245   21.1535 C.ar    1  UNL1        0.1598
      8 F          -6.9174  -17.8018   22.0750 F       1  UNL1       -0.2026
      9 C          -6.3869  -20.2348   20.4019 C.2     1  UNL1        0.2036
     10 O          -6.1718  -21.5330   19.6818 O.2     1  UNL1       -0.2863
     11 C          -1.9578  -17.5261   17.6024 C.3     1  UNL1        0.0307
     12 C          -2.3814  -17.8423   19.0062 C.2     1  UNL1        0.0074
     13 C          -1.5307  -17.4071   20.1624 C.2     1  UNL1        0.2278
     14 N          -1.9544  -17.7232   21.5661 N.2     1  UNL1       -0.0314
     15 C          -3.2288  -18.4746   21.8137 C.2     1  UNL1        0.3720
     16 N          -3.8983  -18.9263   23.0777 N.2     1  UNL1       -0.0307
     17 C          -5.1629  -19.6407   22.7027 C.2     1  UNL1        0.2390
     18 C          -5.2749  -19.6305   21.2069 C.2     1  UNL1        0.0896
     19 C          -4.0795  -18.9098   20.6575 C.2     1  UNL1        0.0771
     20 C          -3.6558  -18.5936   19.2537 C.3     1  UNL1        0.0602
     21 N          -9.5717  -16.4142   21.9051 N.pl3   1  UNL1       -0.2128
     22 H         -10.2969  -15.7957   21.6584 H       1  UNL1        0.1738
     23 S          -8.7322  -16.1401   23.1176 S.O2    1  UNL1        0.0751
     24 O          -9.5641  -17.1031   23.9115 O.2     1  UNL1       -0.1499
     25 O          -7.9002  -15.1770   22.3237 O.2     1  UNL1       -0.1499
     26 C          -7.8926  -15.8659   24.3300 C.ar    1  UNL1        0.1442
     27 C          -8.4336  -16.1573   25.6984 C.ar    1  UNL1        0.0234
     28 C          -7.5940  -15.8831   26.9108 C.ar    1  UNL1        0.0221
     29 C          -6.2135  -15.3176   26.7549 C.ar    1  UNL1        0.0990
     30 N          -5.6725  -15.0262   25.3866 N.ar    1  UNL1       -0.2409
     31 C          -6.5120  -15.3004   24.1741 C.ar    1  UNL1        0.1190
@<TRIPOS>BOND
     1    11    12    1
     2    12    13    2
     3    13    14    1
     4    14    15    2
     5    15    16    1
     6    16    17    2
     7    17    18    1
     8    18     9    1
     9     9    10    2
    10     9     1    1
    11     1     2   ar
    12     2     3    1
    13     2     4   ar
    14     4     5   ar
    15     5     6   ar
    16     6    21    1
    17    21    23    1
    18    23    24    2
    19    23    25    2
    20    23    26    1
    21    26    27   ar
    22    27    28   ar
    23    28    29   ar
    24    29    30   ar
    25    30    31   ar
    26     6     7   ar
    27     7     8    1
    28    18    19    2
    29    19    20    1
    30    20    12    1
    31    19    15    1
    32     7     1   ar
    33    31    26   ar
    34    21    22    1
@<TRIPOS>MOLECULE
*****
 31 34 0 0 0
SMALL
GASTEIGER

@<TRIPOS>ATOM
      1 C          -5.8790  -15.7499   24.4032 C.ar    1  UNL1        0.0951
      2 C          -5.5821  -15.7626   25.8735 C.ar    1  UNL1        0.1454
      3 F          -4.1605  -15.7424   26.3517 F       1  UNL1       -0.2040
      4 C          -6.7067  -15.7956   26.8655 C.ar    1  UNL1        0.0312
      5 C          -8.1283  -15.8158   26.3873 C.ar    1  UNL1        0.0204
      6 C          -8.4252  -15.8031   24.9170 C.ar    1  UNL1        0.0924
      7 C          -7.3006  -15.7702   23.9249 C.ar    1  UNL1        0.1598
      8 F          -7.5976  -15.7575   22.4547 F       1  UNL1       -0.2026
      9 C          -4.7544  -15.7170   23.4112 C.2     1  UNL1        0.2036
     10 O          -4.3055  -14.4093   22.8295 O.2     1  UNL1       -0.2863
     11 C          -7.7125  -19.5987   20.0986 C.3     1  UNL1        0.0307
     12 C          -6.3610  -19.4535   20.7329 C.2     1  UNL1        0.0074
     13 C          -5.3359  -20.5363   20.5700 C.2     1  UNL1        0.2278
     14 N          -3.9843  -20.3911   21.2043 N.2     1  UNL1       -0.0314
     15 C          -3.6580  -19.1632   22.0015 C.2     1  UNL1        0.3720
     16 N          -2.4200  -18.7438   22.7372 N.2     1  UNL1       -0.0307
     17 C          -2.6800  -17.4017   23.3549 C.2     1  UNL1        0.2390
     18 C          -4.0787  -16.9917   23.0009 C.2     1  UNL1        0.0896
     19 C          -4.6832  -18.0804   22.1644 C.2     1  UNL1        0.0771
     20 C          -6.0347  -18.2256   21.5301 C.3     1  UNL1        0.0602
     21 N          -9.8468  -15.8233   24.4388 N.pl3   1  UNL1       -0.2128
     22 H         -10.5195  -15.2484   24.8703 H       1  UNL1        0.1738
     23 S         -10.2435  -16.7195   23.3032 S.O2    1  UNL1        0.0751
     24 O         -10.7164  -15.5265   22.5268 O.2     1  UNL1       -0.1499
     25 O          -9.7705  -17.9126   24.0796 O.2     1  UNL1       -0.1499
     26 C         -10.6401  -17.6158   22.1677 C.ar    1  UNL1        0.1442
     27 C         -10.7048  -19.1005   22.3715 C.ar    1  UNL1        0.0234
     28 C         -11.1014  -19.9968   21.2360 C.ar    1  UNL1        0.0221
     29 C         -11.4333  -19.4084   19.8967 C.ar    1  UNL1        0.0990
     30 N         -11.3686  -17.9238   19.6929 N.ar    1  UNL1       -0.2409
     31 C         -10.9720  -17.0275   20.8284 C.ar    1  UNL1        0.1190
@<TRIPOS>BOND
     1    11    12    1
     2    12    13    2
     3    13    14    1
     4    14    15    2
     5    15    16    1
     6    16    17    2
     7    17    18    1
     8    18     9    1
     9     9    10    2
    10     9     1    1
    11     1     2   ar
    12     2     3    1
    13     2     4   ar
    14     4     5   ar
    15     5     6   ar
    16     6    21    1
    17    21    23    1
    18    23    24    2
    19    23    25    2
    20    23    26    1
    21    26    27   ar
    22    27    28   ar
    23    28    29   ar
    24    29    30   ar
    25    30    31   ar
    26     6     7   ar
    27     7     8    1
    28    18    19    2
    29    19    20    1
    30    20    12    1
    31    19    15    1
    32     7     1   ar
    33    31    26   ar
    34    21    22    1
@<TRIPOS>MOLECULE
*****
 31 34 0 0 0
SMALL
GASTEIGER

@<TRIPOS>ATOM
      1 C          -5.8637  -15.7165   24.3715 C.ar    1  UNL1        0.0951
      2 C          -5.5958  -15.4658   25.8259 C.ar    1  UNL1        0.1454
      3 F          -4.1837  -15.3639   26.3216 F       1  UNL1       -0.2040
      4 C          -6.7398  -15.3169   26.7845 C.ar    1  UNL1        0.0312
      5 C          -8.1518  -15.4188   26.2888 C.ar    1  UNL1        0.0204
      6 C          -8.4198  -15.6695   24.8343 C.ar    1  UNL1        0.0924
      7 C          -7.2757  -15.8184   23.8756 C.ar    1  UNL1        0.1598
      8 F          -7.5437  -16.0691   22.4212 F       1  UNL1       -0.2026
      9 C          -4.7197  -15.8654   23.4128 C.2     1  UNL1        0.2036
     10 O          -4.0046  -14.6491   22.9037 O.2     1  UNL1       -0.2863
     11 C           0.0665  -16.3961   20.0066 C.3     1  UNL1        0.0307
     12 C          -0.9734  -17.2734   20.6381 C.2     1  UNL1        0.0074
     13 C          -0.9221  -18.7593   20.4396 C.2     1  UNL1        0.2278
     14 N          -1.9620  -19.6367   21.0711 N.2     1  UNL1       -0.0314
     15 C          -3.0532  -19.0282   21.9010 C.2     1  UNL1        0.3720
     16 N          -4.2076  -19.6349   22.6422 N.2     1  UNL1       -0.0307
     17 C          -4.9723  -18.5240   23.2987 C.2     1  UNL1        0.2390
     18 C          -4.2906  -17.2307   22.9634 C.2     1  UNL1        0.0896
     19 C          -3.1045  -17.5423   22.0995 C.2     1  UNL1        0.0771
     20 C          -2.0646  -16.6649   21.4680 C.3     1  UNL1        0.0602
     21 N          -9.8318  -15.7713   24.3385 N.pl3   1  UNL1       -0.2128
     22 H         -10.5323  -15.1986   24.7266 H       1  UNL1        0.1738
     23 S         -10.1766  -16.7458   23.2515 S.O2    1  UNL1        0.0751
     24 O         -10.5981  -15.6101   22.3670 O.2     1  UNL1       -0.1499
     25 O          -9.7552  -17.8816   24.1360 O.2     1  UNL1       -0.1499
     26 C         -10.5214  -17.7203   22.1645 C.ar    1  UNL1        0.1442
     27 C         -10.7012  -19.1736   22.4896 C.ar    1  UNL1        0.0234
     28 C         -11.0460  -20.1481   21.4027 C.ar    1  UNL1        0.0221
     29 C         -11.2110  -19.6694   19.9907 C.ar    1  UNL1        0.0990
     30 N         -11.0313  -18.2161   19.6657 N.ar    1  UNL1       -0.2409
     31 C         -10.6865  -17.2416   20.7526 C.ar    1  UNL1        0.1190
@<TRIPOS>BOND
     1    11    12    1
     2    12    13    2
     3    13    14    1
     4    14    15    2
     5    15    16    1
     6    16    17    2
     7    17    18    1
     8    18     9    1
     9     9    10    2
    10     9     1    1
    11     1     2   ar
    12     2     3    1
    13     2     4   ar
    14     4     5   ar
    15     5     6   ar
    16     6    21    1
    17    21    23    1
    18    23    24    2
    19    23    25    2
    20    23    26    1
    21    26    27   ar
    22    27    28   ar
    23    28    29   ar
    24    29    30   ar
    25    30    31   ar
    26     6     7   ar
    27     7     8    1
    28    18    19    2
    29    19    20    1
    30    20    12    1
    31    19    15    1
    32     7     1   ar
    33    31    26   ar
    34    21    22    1
@<TRIPOS>MOLECULE
*****
 31 34 0 0 0
SMALL
GASTEIGER

@<TRIPOS>ATOM
      1 C         -12.2343   -5.3122   18.8966 C.ar    1  UNL1        0.0951
      2 C         -10.7927   -5.7245   18.8549 C.ar    1  UNL1        0.1454
      3 F          -9.7488   -4.8691   19.5096 F       1  UNL1       -0.2040
      4 C         -10.3949   -6.9922   18.1587 C.ar    1  UNL1        0.0312
      5 C         -11.4388   -7.8476   17.5040 C.ar    1  UNL1        0.0204
      6 C         -12.8805   -7.4352   17.5457 C.ar    1  UNL1        0.0924
      7 C         -13.2782   -6.1676   18.2419 C.ar    1  UNL1        0.1598
      8 F         -14.7199   -5.7553   18.2835 F       1  UNL1       -0.2026
      9 C         -12.6320   -4.0445   19.5929 C.2     1  UNL1        0.2036
     10 O         -13.3845   -4.1051   20.8891 O.2     1  UNL1       -0.2863
     11 C         -16.6281    0.2937   19.6524 C.3     1  UNL1        0.0307
     12 C         -15.2227    0.0588   19.1835 C.2     1  UNL1        0.0074
     13 C         -14.4647    1.1605   18.5043 C.2     1  UNL1        0.2278
     14 N         -13.0594    0.9256   18.0354 N.2     1  UNL1       -0.0314
     15 C         -12.4121   -0.4110   18.2457 C.2     1  UNL1        0.3720
     16 N         -11.0508   -0.9335   17.8939 N.2     1  UNL1       -0.0307
     17 C         -10.9674   -2.3582   18.3557 C.2     1  UNL1        0.2390
     18 C         -12.2773   -2.7163   18.9930 C.2     1  UNL1        0.0896
     19 C         -13.1701   -1.5128   18.9250 C.2     1  UNL1        0.0771
     20 C         -14.5754   -1.2779   19.3939 C.3     1  UNL1        0.0602
     21 N         -13.9244   -8.2906   16.8910 N.pl3   1  UNL1       -0.2128
     22 H         -13.7464   -8.6991   16.0131 H       1  UNL1        0.1738
     23 S         -15.2394   -8.5237   17.5739 S.O2    1  UNL1        0.0751
     24 O         -14.5366   -9.2583   18.6767 O.2     1  UNL1       -0.1499
     25 O         -15.9423   -7.7890   16.4711 O.2     1  UNL1       -0.1499
     26 C         -16.5545   -8.7567   18.2567 C.ar    1  UNL1        0.1442
     27 C         -16.8169   -8.1533   19.6047 C.ar    1  UNL1        0.0234
     28 C         -18.1319   -8.3863   20.2876 C.ar    1  UNL1        0.0221
     29 C         -19.1846   -9.2226   19.6225 C.ar    1  UNL1        0.0990
     30 N         -18.9223   -9.8260   18.2745 N.ar    1  UNL1       -0.2409
     31 C         -17.6073   -9.5930   17.5916 C.ar    1  UNL1        0.1190
@<TRIPOS>BOND
     1    11    12    1
     2    12    13    2
     3    13    14    1
     4    14    15    2
     5    15    16    1
     6    16    17    2
     7    17    18    1
     8    18     9    1
     9     9    10    2
    10     9     1    1
    11     1     2   ar
    12     2     3    1
    13     2     4   ar
    14     4     5   ar
    15     5     6   ar
    16     6    21    1
    17    21    23    1
    18    23    24    2
    19    23    25    2
    20    23    26    1
    21    26    27   ar
    22    27    28   ar
    23    28    29   ar
    24    29    30   ar
    25    30    31   ar
    26     6     7   ar
    27     7     8    1
    28    18    19    2
    29    19    20    1
    30    20    12    1
    31    19    15    1
    32     7     1   ar
    33    31    26   ar
    34    21    22    1
