@<TRIPOS>MOLECULE
*****
 36 40 0 0 0
SMALL
GASTEIGER

@<TRIPOS>ATOM
      1 C           4.1702   -1.2254   26.3393 C.ar    1  UNL1        0.1527
      2 C           5.2391   -1.5359   27.3447 C.ar    1  UNL1        0.1332
      3 N           4.9680   -1.3521   28.8085 N.ar    1  UNL1       -0.2355
      4 C           3.6280   -0.8579   29.2668 C.ar    1  UNL1        0.1459
      5 C           3.0737   -0.5815   30.6330 C.ar    1  UNL1        0.1892
      6 N           1.6622   -0.1002   30.4719 N.ar    1  UNL1       -0.1556
      7 N           1.3441   -0.0791   29.0061 N.ar    1  UNL1       -0.2298
      8 C           2.5591   -0.5474   28.2614 C.ar    1  UNL1        0.1811
      9 N           2.8302   -0.7311   26.7976 N.ar    1  UNL1       -0.2090
     10 C           2.6396   -0.8035   21.3916 C.3     1  UNL1        0.0031
     11 C           3.6760   -1.1982   22.4015 C.3     1  UNL1        0.0345
     12 C           3.4049   -1.0144   23.8654 C.3     1  UNL1        0.0935
     13 N           4.4412   -1.4091   24.8754 N.pl3   1  UNL1       -0.2919
     14 C           5.7487   -1.9876   24.4216 C.3     1  UNL1        0.0936
     15 C           6.0198   -2.1713   22.9578 C.3     1  UNL1        0.0375
     16 C           4.9834   -1.7766   21.9478 C.3     1  UNL1        0.0608
     17 N           5.2545   -1.9604   20.4840 N.3     1  UNL1       -0.2729
     18 C           5.9643   -0.9874   19.5898 C.3     1  UNL1        0.0721
     19 C           6.0119   -1.5751   18.2105 C.3     1  UNL1        0.0188
     20 C           5.3315   -2.9113   18.2523 C.3     1  UNL1        0.0199
     21 C           4.8635   -3.1494   19.6574 C.3     1  UNL1        0.0870
     22 C           4.1327   -4.3634   20.1494 C.3     1  UNL1        0.1530
     23 O           4.2521   -5.6623   19.4086 O.3     1  UNL1       -0.3806
     24 H           3.8466   -5.5730   18.5320 H       1  UNL1        0.2105
     25 C           3.8028   -0.7559   31.9322 C.1     1  UNL1        0.1232
     26 N           4.5320   -0.9303   33.2314 N.1     1  UNL1       -0.1891
     27 C           0.0401    0.3371   28.3928 C.3     1  UNL1        0.1299
     28 C          -1.2213   -0.3950   28.7434 C.3     1  UNL1        0.0313
     29 C          -0.0026    1.4856   27.4288 C.ar    1  UNL1        0.0106
     30 C          -0.2846    1.2359   25.9768 C.ar    1  UNL1       -0.0007
     31 C          -0.3273    2.3844   25.0128 C.ar    1  UNL1        0.0112
     32 C          -0.0881    3.7824   25.5008 C.ar    1  UNL1        0.0585
     33 CL         -0.1308    4.9310   24.5368 Cl      1  UNL1       -0.0822
     34 C           0.1939    4.0321   26.9527 C.ar    1  UNL1        0.0225
     35 C           0.2366    2.8837   27.9167 C.ar    1  UNL1        0.0563
     36 CL          0.5185    3.1333   29.3687 Cl      1  UNL1       -0.0825
@<TRIPOS>BOND
     1    11    10    1
     2    11    12    1
     3    12    13    1
     4    13     1    1
     5     1     2   ar
     6     2     3   ar
     7     3     4   ar
     8     4     5   ar
     9     5    25    1
    10    25    26    3
    11     5     6   ar
    12     6     7   ar
    13     7    27    1
    14    27    28    1
    15    27    29    1
    16    29    30   ar
    17    30    31   ar
    18    31    32   ar
    19    32    33    1
    20    32    34   ar
    21    34    35   ar
    22    35    36    1
    23     7     8   ar
    24     8     9   ar
    25    13    14    1
    26    14    15    1
    27    15    16    1
    28    16    17    1
    29    17    18    1
    30    18    19    1
    31    19    20    1
    32    20    21    1
    33    21    22    1
    34    22    23    1
    35    16    11    1
    36    21    17    1
    37     9     1   ar
    38     8     4   ar
    39    35    29   ar
    40    23    24    1
@<TRIPOS>MOLECULE
*****
 36 40 0 0 0
SMALL
GASTEIGER

@<TRIPOS>ATOM
      1 C           1.8626    0.8164   26.2587 C.ar    1  UNL1        0.1527
      2 C           0.5337    1.4820   26.0563 C.ar    1  UNL1        0.1332
      3 N           0.0556    1.7958   24.6696 N.ar    1  UNL1       -0.2355
      4 C           0.9064    1.4441   23.4854 C.ar    1  UNL1        0.1459
      5 C           0.7003    1.6290   22.0111 C.ar    1  UNL1        0.1892
      6 N           1.9019    1.0776   21.3024 N.ar    1  UNL1       -0.1556
      7 N           2.8505    0.5520   22.3387 N.ar    1  UNL1       -0.2298
      8 C           2.2353    0.7785   23.6878 C.ar    1  UNL1        0.1811
      9 N           2.7134    0.4647   25.0745 N.ar    1  UNL1       -0.2090
     10 C           5.5622    1.0368   29.9008 C.3     1  UNL1        0.0031
     11 C           4.1905    0.6127   29.4665 C.3     1  UNL1        0.0345
     12 C           3.7124    0.9266   28.0798 C.3     1  UNL1        0.0935
     13 N           2.3407    0.5025   27.6454 N.pl3   1  UNL1       -0.2919
     14 C           1.4471   -0.2354   28.5978 C.3     1  UNL1        0.0936
     15 C           1.9252   -0.5493   29.9845 C.3     1  UNL1        0.0375
     16 C           3.2969   -0.1252   30.4188 C.3     1  UNL1        0.0608
     17 N           3.7750   -0.4391   31.8055 N.3     1  UNL1       -0.2729
     18 C           4.5380   -1.6624   32.2193 C.3     1  UNL1        0.0721
     19 C           4.8086   -1.5642   33.6914 C.3     1  UNL1        0.0188
     20 C           4.2128   -0.2800   34.1874 C.3     1  UNL1        0.0199
     21 C           3.5740    0.4153   33.0219 C.3     1  UNL1        0.0870
     22 C           2.8597    1.7336   33.0652 C.3     1  UNL1        0.1530
     23 O           1.5276    1.8429   33.7460 O.3     1  UNL1       -0.3806
     24 H           0.8719    1.3190   33.2597 H       1  UNL1        0.2105
     25 C          -0.4970    2.2552   21.3599 C.1     1  UNL1        0.1232
     26 N          -1.6944    2.8814   20.7086 N.1     1  UNL1       -0.1891
     27 C           4.1809   -0.0878   22.0726 C.3     1  UNL1        0.1299
     28 C           5.4345    0.5372   22.6091 C.3     1  UNL1        0.0313
     29 C           4.2577   -1.3526   21.2699 C.ar    1  UNL1        0.0106
     30 C           4.1869   -1.2961   19.7726 C.ar    1  UNL1       -0.0007
     31 C           4.2637   -2.5610   18.9699 C.ar    1  UNL1        0.0112
     32 C           4.4113   -3.8822   19.6644 C.ar    1  UNL1        0.0585
     33 CL          4.4882   -5.1471   18.8618 Cl      1  UNL1       -0.0822
     34 C           4.4822   -3.9387   21.1617 C.ar    1  UNL1        0.0225
     35 C           4.4054   -2.6739   21.9644 C.ar    1  UNL1        0.0563
     36 CL          4.4763   -2.7303   23.4617 Cl      1  UNL1       -0.0825
@<TRIPOS>BOND
     1    11    10    1
     2    11    12    1
     3    12    13    1
     4    13     1    1
     5     1     2   ar
     6     2     3   ar
     7     3     4   ar
     8     4     5   ar
     9     5    25    1
    10    25    26    3
    11     5     6   ar
    12     6     7   ar
    13     7    27    1
    14    27    28    1
    15    27    29    1
    16    29    30   ar
    17    30    31   ar
    18    31    32   ar
    19    32    33    1
    20    32    34   ar
    21    34    35   ar
    22    35    36    1
    23     7     8   ar
    24     8     9   ar
    25    13    14    1
    26    14    15    1
    27    15    16    1
    28    16    17    1
    29    17    18    1
    30    18    19    1
    31    19    20    1
    32    20    21    1
    33    21    22    1
    34    22    23    1
    35    16    11    1
    36    21    17    1
    37     9     1   ar
    38     8     4   ar
    39    35    29   ar
    40    23    24    1
@<TRIPOS>MOLECULE
*****
 36 40 0 0 0
SMALL
GASTEIGER

@<TRIPOS>ATOM
      1 C           6.5317   -3.5083   31.3393 C.ar    1  UNL1        0.1527
      2 C           6.7427   -4.9545   31.6770 C.ar    1  UNL1        0.1332
      3 N           7.2153   -5.9098   30.6216 N.ar    1  UNL1       -0.2355
      4 C           7.4770   -5.4190   29.2286 C.ar    1  UNL1        0.1459
      5 C           7.9454   -6.1211   27.9885 C.ar    1  UNL1        0.1892
      6 N           8.0239   -5.1088   26.8844 N.ar    1  UNL1       -0.1556
      7 N           7.6040   -3.7812   27.4421 N.ar    1  UNL1       -0.2298
      8 C           7.2660   -3.9729   28.8908 C.ar    1  UNL1        0.1811
      9 N           6.7933   -3.0175   29.9462 N.ar    1  UNL1       -0.2090
     10 C           7.3593    0.6536   34.3383 C.3     1  UNL1        0.0031
     11 C           6.4728   -0.4719   33.8942 C.3     1  UNL1        0.0345
     12 C           6.9455   -1.4274   32.8388 C.3     1  UNL1        0.0935
     13 N           6.0590   -2.5529   32.3947 N.pl3   1  UNL1       -0.2919
     14 C           4.6998   -2.7230   33.0059 C.3     1  UNL1        0.0936
     15 C           4.2271   -1.7677   34.0612 C.3     1  UNL1        0.0375
     16 C           5.1136   -0.6421   34.5054 C.3     1  UNL1        0.0608
     17 N           4.6409    0.3133   35.5607 N.3     1  UNL1       -0.2729
     18 C           5.0160    0.2794   37.0127 C.3     1  UNL1        0.0721
     19 C           4.3170    1.4155   37.6987 C.3     1  UNL1        0.0188
     20 C           3.5098    2.1515   36.6707 C.3     1  UNL1        0.0199
     21 C           3.7100    1.4703   35.3494 C.3     1  UNL1        0.0870
     22 C           3.0883    1.8752   34.0457 C.3     1  UNL1        0.1530
     23 O           1.5953    1.9271   33.9107 O.3     1  UNL1       -0.3806
     24 H           1.2319    1.0315   33.9925 H       1  UNL1        0.2105
     25 C           8.2771   -7.5794   27.8729 C.1     1  UNL1        0.1232
     26 N           8.6087   -9.0377   27.7573 N.1     1  UNL1       -0.1891
     27 C           7.5343   -2.4887   26.6841 C.3     1  UNL1        0.1299
     28 C           8.4961   -1.3816   26.9992 C.3     1  UNL1        0.0313
     29 C           6.5028   -2.3032   25.6109 C.ar    1  UNL1        0.0106
     30 C           6.7882   -2.7566   24.2099 C.ar    1  UNL1       -0.0007
     31 C           5.7567   -2.5712   23.1368 C.ar    1  UNL1        0.0112
     32 C           4.4398   -1.9322   23.4647 C.ar    1  UNL1        0.0585
     33 CL          3.4082   -1.7467   22.3916 Cl      1  UNL1       -0.0822
     34 C           4.1544   -1.4788   24.8657 C.ar    1  UNL1        0.0225
     35 C           5.1859   -1.6643   25.9389 C.ar    1  UNL1        0.0563
     36 CL          4.9006   -1.2108   27.3399 Cl      1  UNL1       -0.0825
@<TRIPOS>BOND
     1    11    10    1
     2    11    12    1
     3    12    13    1
     4    13     1    1
     5     1     2   ar
     6     2     3   ar
     7     3     4   ar
     8     4     5   ar
     9     5    25    1
    10    25    26    3
    11     5     6   ar
    12     6     7   ar
    13     7    27    1
    14    27    28    1
    15    27    29    1
    16    29    30   ar
    17    30    31   ar
    18    31    32   ar
    19    32    33    1
    20    32    34   ar
    21    34    35   ar
    22    35    36    1
    23     7     8   ar
    24     8     9   ar
    25    13    14    1
    26    14    15    1
    27    15    16    1
    28    16    17    1
    29    17    18    1
    30    18    19    1
    31    19    20    1
    32    20    21    1
    33    21    22    1
    34    22    23    1
    35    16    11    1
    36    21    17    1
    37     9     1   ar
    38     8     4   ar
    39    35    29   ar
    40    23    24    1
@<TRIPOS>MOLECULE
*****
 36 40 0 0 0
SMALL
GASTEIGER

@<TRIPOS>ATOM
      1 C           5.7710   -2.7270   25.0220 C.ar    1  UNL1        0.1527
      2 C           6.4236   -4.0628   25.2210 C.ar    1  UNL1        0.1332
      3 N           6.8056   -4.5129   26.5999 N.ar    1  UNL1       -0.2355
      4 C           6.5349   -3.6273   27.7798 C.ar    1  UNL1        0.1459
      5 C           6.7977   -3.8011   29.2464 C.ar    1  UNL1        0.1892
      6 N           6.3074   -2.5726   29.9539 N.ar    1  UNL1       -0.1556
      7 N           5.7416   -1.6397   28.9245 N.ar    1  UNL1       -0.2298
      8 C           5.8822   -2.2915   27.5809 C.ar    1  UNL1        0.1811
      9 N           5.5003   -1.8413   26.2020 N.ar    1  UNL1       -0.2090
     10 C           4.1162   -3.8364   20.2229 C.3     1  UNL1        0.0031
     11 C           4.5616   -2.8314   21.2435 C.3     1  UNL1        0.0345
     12 C           4.9436   -3.2817   22.6225 C.3     1  UNL1        0.0935
     13 N           5.3890   -2.2767   23.6431 N.pl3   1  UNL1       -0.2919
     14 C           5.4524   -0.8215   23.2848 C.3     1  UNL1        0.0936
     15 C           5.0705   -0.3712   21.9059 C.3     1  UNL1        0.0375
     16 C           4.6251   -1.3762   20.8853 C.3     1  UNL1        0.0608
     17 N           4.2431   -0.9259   19.5064 N.3     1  UNL1       -0.2729
     18 C           2.8859   -0.4524   19.0778 C.3     1  UNL1        0.0721
     19 C           2.9553   -0.1039   17.6205 C.3     1  UNL1        0.0188
     20 C           4.3555   -0.3622   17.1484 C.3     1  UNL1        0.0199
     21 C           5.1514   -0.8702   18.3139 C.3     1  UNL1        0.0870
     22 C           6.6010   -1.2549   18.2910 C.3     1  UNL1        0.1530
     23 O           7.0718   -2.3513   17.3820 O.3     1  UNL1       -0.3806
     24 H           6.6846   -3.1945   17.6650 H       1  UNL1        0.2105
     25 C           7.4382   -4.9938   29.8921 C.1     1  UNL1        0.1232
     26 N           8.0789   -6.1866   30.5378 N.1     1  UNL1       -0.1891
     27 C           5.1407   -0.2915   29.1919 C.3     1  UNL1        0.1299
     28 C           5.9740    0.7919   29.8097 C.3     1  UNL1        0.0313
     29 C           3.7065   -0.0268   28.8413 C.ar    1  UNL1        0.0106
     30 C           3.3591    0.5896   27.5187 C.ar    1  UNL1       -0.0007
     31 C           1.9249    0.8544   27.1682 C.ar    1  UNL1        0.0112
     32 C           0.8380    0.5027   28.1403 C.ar    1  UNL1        0.0585
     33 CL         -0.5963    0.7674   27.7898 Cl      1  UNL1       -0.0822
     34 C           1.1854   -0.1137   29.4629 C.ar    1  UNL1        0.0225
     35 C           2.6196   -0.3784   29.8134 C.ar    1  UNL1        0.0563
     36 CL          2.9670   -0.9949   31.1361 Cl      1  UNL1       -0.0825
@<TRIPOS>BOND
     1    11    10    1
     2    11    12    1
     3    12    13    1
     4    13     1    1
     5     1     2   ar
     6     2     3   ar
     7     3     4   ar
     8     4     5   ar
     9     5    25    1
    10    25    26    3
    11     5     6   ar
    12     6     7   ar
    13     7    27    1
    14    27    28    1
    15    27    29    1
    16    29    30   ar
    17    30    31   ar
    18    31    32   ar
    19    32    33    1
    20    32    34   ar
    21    34    35   ar
    22    35    36    1
    23     7     8   ar
    24     8     9   ar
    25    13    14    1
    26    14    15    1
    27    15    16    1
    28    16    17    1
    29    17    18    1
    30    18    19    1
    31    19    20    1
    32    20    21    1
    33    21    22    1
    34    22    23    1
    35    16    11    1
    36    21    17    1
    37     9     1   ar
    38     8     4   ar
    39    35    29   ar
    40    23    24    1
@<TRIPOS>MOLECULE
*****
 36 40 0 0 0
SMALL
GASTEIGER

@<TRIPOS>ATOM
      1 C           5.7942   -2.7460   25.0289 C.ar    1  UNL1        0.1527
      2 C           6.4507   -4.0753   25.2570 C.ar    1  UNL1        0.1332
      3 N           6.8259   -4.4978   26.6464 N.ar    1  UNL1       -0.2355
      4 C           6.5446   -3.5910   27.8078 C.ar    1  UNL1        0.1459
      5 C           6.7991   -3.7360   29.2790 C.ar    1  UNL1        0.1892
      6 N           6.2998   -2.4963   29.9600 N.ar    1  UNL1       -0.1556
      7 N           5.7368   -1.5852   28.9098 N.ar    1  UNL1       -0.2298
      8 C           5.8881   -2.2618   27.5797 C.ar    1  UNL1        0.1811
      9 N           5.5129   -1.8393   26.1902 N.ar    1  UNL1       -0.2090
     10 C           5.8155    0.8200   21.2495 C.3     1  UNL1        0.0031
     11 C           5.4296   -0.5405   21.7497 C.3     1  UNL1        0.0345
     12 C           5.8048   -0.9630   23.1392 C.3     1  UNL1        0.0935
     13 N           5.4189   -2.3235   23.6393 N.pl3   1  UNL1       -0.2919
     14 C           4.6577   -3.2614   22.7500 C.3     1  UNL1        0.0936
     15 C           4.2825   -2.8389   21.3606 C.3     1  UNL1        0.0375
     16 C           4.6684   -1.4784   20.8604 C.3     1  UNL1        0.0608
     17 N           4.2932   -1.0559   19.4709 N.3     1  UNL1       -0.2729
     18 C           5.1164   -1.2620   18.2341 C.3     1  UNL1        0.0721
     19 C           4.3609   -0.6866   17.0730 C.3     1  UNL1        0.0188
     20 C           3.0705   -0.1249   17.5924 C.3     1  UNL1        0.0199
     21 C           3.0287   -0.3531   19.0743 C.3     1  UNL1        0.0870
     22 C           1.9176    0.0505   19.9975 C.3     1  UNL1        0.1530
     23 O           0.6694   -0.7778   20.0762 O.3     1  UNL1       -0.3806
     24 H           0.1996   -0.7358   19.2286 H       1  UNL1        0.2105
     25 C           7.4402   -4.9138   29.9510 C.1     1  UNL1        0.1232
     26 N           8.0813   -6.0916   30.6230 N.1     1  UNL1       -0.1891
     27 C           5.1291   -0.2346   29.1479 C.3     1  UNL1        0.1299
     28 C           5.9607    0.8700   29.7293 C.3     1  UNL1        0.0313
     29 C           3.6898    0.0113   28.8046 C.ar    1  UNL1        0.0106
     30 C           3.3286    0.6367   27.4899 C.ar    1  UNL1       -0.0007
     31 C           1.8893    0.8826   27.1466 C.ar    1  UNL1        0.0112
     32 C           0.8111    0.5032   28.1180 C.ar    1  UNL1        0.0585
     33 CL         -0.6282    0.7491   27.7747 Cl      1  UNL1       -0.0822
     34 C           1.1723   -0.1222   29.4326 C.ar    1  UNL1        0.0225
     35 C           2.6117   -0.3681   29.7760 C.ar    1  UNL1        0.0563
     36 CL          2.9728   -0.9935   31.0907 Cl      1  UNL1       -0.0825
@<TRIPOS>BOND
     1    11    10    1
     2    11    12    1
     3    12    13    1
     4    13     1    1
     5     1     2   ar
     6     2     3   ar
     7     3     4   ar
     8     4     5   ar
     9     5    25    1
    10    25    26    3
    11     5     6   ar
    12     6     7   ar
    13     7    27    1
    14    27    28    1
    15    27    29    1
    16    29    30   ar
    17    30    31   ar
    18    31    32   ar
    19    32    33    1
    20    32    34   ar
    21    34    35   ar
    22    35    36    1
    23     7     8   ar
    24     8     9   ar
    25    13    14    1
    26    14    15    1
    27    15    16    1
    28    16    17    1
    29    17    18    1
    30    18    19    1
    31    19    20    1
    32    20    21    1
    33    21    22    1
    34    22    23    1
    35    16    11    1
    36    21    17    1
    37     9     1   ar
    38     8     4   ar
    39    35    29   ar
    40    23    24    1
@<TRIPOS>MOLECULE
*****
 36 40 0 0 0
SMALL
GASTEIGER

@<TRIPOS>ATOM
      1 C           6.3673   -3.4788   31.1535 C.ar    1  UNL1        0.1527
      2 C           6.9091   -4.8360   31.4919 C.ar    1  UNL1        0.1332
      3 N           7.3135   -5.7767   30.3959 N.ar    1  UNL1       -0.2355
      4 C           7.1763   -5.3603   28.9614 C.ar    1  UNL1        0.1459
      5 C           7.4905   -6.0677   27.6764 C.ar    1  UNL1        0.1892
      6 N           7.1429   -5.1477   26.5439 N.ar    1  UNL1       -0.1556
      7 N           6.6140   -3.8717   27.1289 N.ar    1  UNL1       -0.2298
      8 C           6.6346   -4.0031   28.6229 C.ar    1  UNL1        0.1811
      9 N           6.2301   -3.0624   29.7190 N.ar    1  UNL1       -0.2090
     10 C           7.3032    0.7445   34.0324 C.3     1  UNL1        0.0031
     11 C           6.4308   -0.4263   33.6890 C.3     1  UNL1        0.0345
     12 C           6.8353   -1.3672   32.5929 C.3     1  UNL1        0.0935
     13 N           5.9628   -2.5380   32.2495 N.pl3   1  UNL1       -0.2919
     14 C           4.6859   -2.7681   33.0021 C.3     1  UNL1        0.0936
     15 C           4.2813   -1.8273   34.0982 C.3     1  UNL1        0.0375
     16 C           5.1538   -0.6564   34.4416 C.3     1  UNL1        0.0608
     17 N           4.7493    0.2843   35.5376 N.3     1  UNL1       -0.2729
     18 C           5.1892    0.2108   36.9698 C.3     1  UNL1        0.0721
     19 C           4.5456    1.3448   37.7112 C.3     1  UNL1        0.0188
     20 C           3.7079    2.1193   36.7372 C.3     1  UNL1        0.0199
     21 C           3.8338    1.4638   35.3939 C.3     1  UNL1        0.0870
     22 C           3.1621    1.9096   34.1290 C.3     1  UNL1        0.1530
     23 O           1.6670    1.8630   34.0170 O.3     1  UNL1       -0.3806
     24 H           1.3695    0.9400   34.0420 H       1  UNL1        0.2105
     25 C           8.0534   -7.4520   27.5469 C.1     1  UNL1        0.1232
     26 N           8.6163   -8.8363   27.4173 N.1     1  UNL1       -0.1891
     27 C           6.1464   -2.6745   26.3555 C.3     1  UNL1        0.1299
     28 C           6.4216   -2.5777   24.8842 C.3     1  UNL1        0.0313
     29 C           5.4037   -1.5740   27.0535 C.ar    1  UNL1        0.0106
     30 C           3.9161   -1.6638   27.2238 C.ar    1  UNL1       -0.0007
     31 C           3.1733   -0.5633   27.9218 C.ar    1  UNL1        0.0112
     32 C           3.9181    0.6270   28.4495 C.ar    1  UNL1        0.0585
     33 CL          3.1754    1.7276   29.1476 Cl      1  UNL1       -0.0822
     34 C           5.4057    0.7168   28.2792 C.ar    1  UNL1        0.0225
     35 C           6.1485   -0.3837   27.5812 C.ar    1  UNL1        0.0563
     36 CL          7.6360   -0.2939   27.4109 Cl      1  UNL1       -0.0825
@<TRIPOS>BOND
     1    11    10    1
     2    11    12    1
     3    12    13    1
     4    13     1    1
     5     1     2   ar
     6     2     3   ar
     7     3     4   ar
     8     4     5   ar
     9     5    25    1
    10    25    26    3
    11     5     6   ar
    12     6     7   ar
    13     7    27    1
    14    27    28    1
    15    27    29    1
    16    29    30   ar
    17    30    31   ar
    18    31    32   ar
    19    32    33    1
    20    32    34   ar
    21    34    35   ar
    22    35    36    1
    23     7     8   ar
    24     8     9   ar
    25    13    14    1
    26    14    15    1
    27    15    16    1
    28    16    17    1
    29    17    18    1
    30    18    19    1
    31    19    20    1
    32    20    21    1
    33    21    22    1
    34    22    23    1
    35    16    11    1
    36    21    17    1
    37     9     1   ar
    38     8     4   ar
    39    35    29   ar
    40    23    24    1
@<TRIPOS>MOLECULE
*****
 36 40 0 0 0
SMALL
GASTEIGER

@<TRIPOS>ATOM
      1 C           3.2659   -0.0874   27.0233 C.ar    1  UNL1        0.1527
      2 C           3.7509   -1.2341   26.1869 C.ar    1  UNL1        0.1332
      3 N           3.5046   -1.2400   24.7073 N.ar    1  UNL1       -0.2355
      4 C           2.7734   -0.0991   24.0641 C.ar    1  UNL1        0.1459
      5 C           2.3865    0.1698   22.6400 C.ar    1  UNL1        0.1892
      6 N           1.6624    1.4827   22.5963 N.ar    1  UNL1       -0.1556
      7 N           1.6018    2.0252   23.9935 N.ar    1  UNL1       -0.2298
      8 C           2.2884    1.0477   24.9006 C.ar    1  UNL1        0.1811
      9 N           2.5347    1.0535   26.3802 N.ar    1  UNL1       -0.2090
     10 C           6.4832    0.5894   31.0472 C.3     1  UNL1        0.0031
     11 C           5.1208    0.2569   30.5149 C.3     1  UNL1        0.0345
     12 C           4.8746    0.2510   29.0353 C.3     1  UNL1        0.0935
     13 N           3.5122   -0.0815   28.5030 N.pl3   1  UNL1       -0.2919
     14 C           2.3960   -0.4081   29.4504 C.3     1  UNL1        0.0936
     15 C           2.6422   -0.4022   30.9300 C.3     1  UNL1        0.0375
     16 C           4.0047   -0.0697   31.4623 C.3     1  UNL1        0.0608
     17 N           4.2509   -0.0638   32.9419 N.3     1  UNL1       -0.2729
     18 C           4.2774    1.1473   33.8265 C.3     1  UNL1        0.0721
     19 C           4.5567    0.6916   35.2281 C.3     1  UNL1        0.0188
     20 C           4.7028   -0.8012   35.2096 C.3     1  UNL1        0.0199
     21 C           4.5138   -1.2680   33.7967 C.3     1  UNL1        0.0870
     22 C           4.5767   -2.6895   33.3220 C.3     1  UNL1        0.1530
     23 O           3.5165   -3.6663   33.7365 O.3     1  UNL1       -0.3806
     24 H           3.5680   -3.8126   34.6940 H       1  UNL1        0.2105
     25 C           2.6733   -0.7184   21.4657 C.1     1  UNL1        0.1232
     26 N           2.9602   -1.6065   20.2914 N.1     1  UNL1       -0.1891
     27 C           0.9662    3.3184   24.4103 C.3     1  UNL1        0.1299
     28 C           1.8179    4.5292   24.6518 C.3     1  UNL1        0.0313
     29 C          -0.5213    3.4007   24.5857 C.ar    1  UNL1        0.0106
     30 C          -1.4061    3.6180   23.3942 C.ar    1  UNL1       -0.0007
     31 C          -2.8936    3.7003   23.5696 C.ar    1  UNL1        0.0112
     32 C          -3.4962    3.5653   24.9365 C.ar    1  UNL1        0.0585
     33 CL         -4.9836    3.6476   25.1120 Cl      1  UNL1       -0.0822
     34 C          -2.6113    3.3480   26.1281 C.ar    1  UNL1        0.0225
     35 C          -1.1239    3.2657   25.9527 C.ar    1  UNL1        0.0563
     36 CL         -0.2390    3.0484   27.1442 Cl      1  UNL1       -0.0825
@<TRIPOS>BOND
     1    11    10    1
     2    11    12    1
     3    12    13    1
     4    13     1    1
     5     1     2   ar
     6     2     3   ar
     7     3     4   ar
     8     4     5   ar
     9     5    25    1
    10    25    26    3
    11     5     6   ar
    12     6     7   ar
    13     7    27    1
    14    27    28    1
    15    27    29    1
    16    29    30   ar
    17    30    31   ar
    18    31    32   ar
    19    32    33    1
    20    32    34   ar
    21    34    35   ar
    22    35    36    1
    23     7     8   ar
    24     8     9   ar
    25    13    14    1
    26    14    15    1
    27    15    16    1
    28    16    17    1
    29    17    18    1
    30    18    19    1
    31    19    20    1
    32    20    21    1
    33    21    22    1
    34    22    23    1
    35    16    11    1
    36    21    17    1
    37     9     1   ar
    38     8     4   ar
    39    35    29   ar
    40    23    24    1
@<TRIPOS>MOLECULE
*****
 36 40 0 0 0
SMALL
GASTEIGER

@<TRIPOS>ATOM
      1 C           6.5075   -3.1672   29.9295 C.ar    1  UNL1        0.1527
      2 C           6.7411   -4.5335   30.5029 C.ar    1  UNL1        0.1332
      3 N           7.0635   -5.6828   29.5946 N.ar    1  UNL1       -0.2355
      4 C           7.1523   -5.4659   28.1131 C.ar    1  UNL1        0.1459
      5 C           7.4503   -6.4003   26.9780 C.ar    1  UNL1        0.1892
      6 N           7.4010   -5.6114   25.7032 N.ar    1  UNL1       -0.1556
      7 N           7.0724   -4.1896   26.0503 N.ar    1  UNL1       -0.2298
      8 C           6.9188   -4.0997   27.5397 C.ar    1  UNL1        0.1811
      9 N           6.5963   -2.9503   28.4480 N.ar    1  UNL1       -0.2090
     10 C           4.3270   -1.3430   34.2791 C.3     1  UNL1        0.0031
     11 C           5.0948   -1.1057   33.0126 C.3     1  UNL1        0.0345
     12 C           5.4173   -2.2551   32.1043 C.3     1  UNL1        0.0935
     13 N           6.1850   -2.0178   30.8378 N.pl3   1  UNL1       -0.2919
     14 C           6.6304   -0.6309   30.4795 C.3     1  UNL1        0.0936
     15 C           6.3080    0.5185   31.3876 C.3     1  UNL1        0.0375
     16 C           5.5402    0.2811   32.6542 C.3     1  UNL1        0.0608
     17 N           5.2178    1.4306   33.5624 N.3     1  UNL1       -0.2729
     18 C           6.0559    1.9089   34.7108 C.3     1  UNL1        0.0721
     19 C           5.3568    3.0775   35.3398 C.3     1  UNL1        0.0188
     20 C           4.0865    3.3213   34.5801 C.3     1  UNL1        0.0199
     21 C           4.0007    2.3035   33.4817 C.3     1  UNL1        0.0870
     22 C           2.8922    2.1803   32.4786 C.3     1  UNL1        0.1530
     23 O           1.7016    1.3185   32.7784 O.3     1  UNL1       -0.3806
     24 H           1.9788    0.3903   32.8288 H       1  UNL1        0.2105
     25 C           7.7459   -7.8660   27.0969 C.1     1  UNL1        0.1232
     26 N           8.0413   -9.3318   27.2158 N.1     1  UNL1       -0.1891
     27 C           6.9236   -3.0565   25.0787 C.3     1  UNL1        0.1299
     28 C           7.2323   -1.6534   25.5098 C.3     1  UNL1        0.0313
     29 C           6.4662   -3.3266   23.6759 C.ar    1  UNL1        0.0106
     30 C           5.0019   -3.3223   23.3507 C.ar    1  UNL1       -0.0007
     31 C           4.5444   -3.5924   21.9479 C.ar    1  UNL1        0.0112
     32 C           5.5512   -3.8668   20.8704 C.ar    1  UNL1        0.0585
     33 CL          5.0938   -4.1369   19.4675 Cl      1  UNL1       -0.0822
     34 C           7.0155   -3.8711   21.1957 C.ar    1  UNL1        0.0225
     35 C           7.4730   -3.6010   22.5984 C.ar    1  UNL1        0.0563
     36 CL          8.9373   -3.6053   22.9237 Cl      1  UNL1       -0.0825
@<TRIPOS>BOND
     1    11    10    1
     2    11    12    1
     3    12    13    1
     4    13     1    1
     5     1     2   ar
     6     2     3   ar
     7     3     4   ar
     8     4     5   ar
     9     5    25    1
    10    25    26    3
    11     5     6   ar
    12     6     7   ar
    13     7    27    1
    14    27    28    1
    15    27    29    1
    16    29    30   ar
    17    30    31   ar
    18    31    32   ar
    19    32    33    1
    20    32    34   ar
    21    34    35   ar
    22    35    36    1
    23     7     8   ar
    24     8     9   ar
    25    13    14    1
    26    14    15    1
    27    15    16    1
    28    16    17    1
    29    17    18    1
    30    18    19    1
    31    19    20    1
    32    20    21    1
    33    21    22    1
    34    22    23    1
    35    16    11    1
    36    21    17    1
    37     9     1   ar
    38     8     4   ar
    39    35    29   ar
    40    23    24    1
@<TRIPOS>MOLECULE
*****
 36 40 0 0 0
SMALL
GASTEIGER

@<TRIPOS>ATOM
      1 C           1.1745    1.5704   29.1004 C.ar    1  UNL1        0.1527
      2 C           1.3194    0.0816   29.2121 C.ar    1  UNL1        0.1332
      3 N           2.0718   -0.5143   30.3648 N.ar    1  UNL1       -0.2355
      4 C           2.6794    0.3786   31.4057 C.ar    1  UNL1        0.1459
      5 C           3.4709    0.0815   32.6448 C.ar    1  UNL1        0.1892
      6 N           3.8153    1.3867   33.2989 N.ar    1  UNL1       -0.1556
      7 N           3.2365    2.4904   32.4641 N.ar    1  UNL1       -0.2298
      8 C           2.5345    1.8674   31.2940 C.ar    1  UNL1        0.1811
      9 N           1.7821    2.4633   30.1414 N.ar    1  UNL1       -0.2090
     10 C          -1.1559    5.6455   26.8725 C.3     1  UNL1        0.0031
     11 C          -0.7431    4.2039   26.8337 C.3     1  UNL1        0.0345
     12 C           0.0093    3.6080   27.9864 C.3     1  UNL1        0.0935
     13 N           0.4221    2.1664   27.9477 N.pl3   1  UNL1       -0.2919
     14 C           0.0824    1.3208   26.7562 C.3     1  UNL1        0.0936
     15 C          -0.6700    1.9167   25.6035 C.3     1  UNL1        0.0375
     16 C          -1.0828    3.3583   25.6423 C.3     1  UNL1        0.0608
     17 N          -1.8352    3.9542   24.4896 N.3     1  UNL1       -0.2729
     18 C          -1.2354    4.4513   23.2077 C.3     1  UNL1        0.0721
     19 C          -2.3490    4.9620   22.3422 C.3     1  UNL1        0.0188
     20 C          -3.6371    4.7805   23.0893 C.3     1  UNL1        0.0199
     21 C          -3.3195    4.1577   24.4163 C.3     1  UNL1        0.0870
     22 C          -4.3120    3.8009   25.4829 C.3     1  UNL1        0.1530
     23 O          -5.6398    3.2136   25.1058 O.3     1  UNL1       -0.3806
     24 H          -6.1573    3.8720   24.6163 H       1  UNL1        0.2105
     25 C           3.8513   -1.2815   33.1424 C.1     1  UNL1        0.1232
     26 N           4.2316   -2.6444   33.6400 N.1     1  UNL1       -0.1891
     27 C           3.3414    3.9593   32.7492 C.3     1  UNL1        0.1299
     28 C           4.3621    4.7917   32.0314 C.3     1  UNL1        0.0313
     29 C           2.4255    4.5959   33.7521 C.ar    1  UNL1        0.0106
     30 C           1.1242    5.1937   33.3060 C.ar    1  UNL1       -0.0007
     31 C           0.2083    5.8303   34.3089 C.ar    1  UNL1        0.0112
     32 C           0.5937    5.8691   35.7580 C.ar    1  UNL1        0.0585
     33 CL         -0.3221    6.5057   36.7611 Cl      1  UNL1       -0.0822
     34 C           1.8951    5.2713   36.2042 C.ar    1  UNL1        0.0225
     35 C           2.8110    4.6347   35.2012 C.ar    1  UNL1        0.0563
     36 CL          4.1124    4.0369   35.6474 Cl      1  UNL1       -0.0825
@<TRIPOS>BOND
     1    11    10    1
     2    11    12    1
     3    12    13    1
     4    13     1    1
     5     1     2   ar
     6     2     3   ar
     7     3     4   ar
     8     4     5   ar
     9     5    25    1
    10    25    26    3
    11     5     6   ar
    12     6     7   ar
    13     7    27    1
    14    27    28    1
    15    27    29    1
    16    29    30   ar
    17    30    31   ar
    18    31    32   ar
    19    32    33    1
    20    32    34   ar
    21    34    35   ar
    22    35    36    1
    23     7     8   ar
    24     8     9   ar
    25    13    14    1
    26    14    15    1
    27    15    16    1
    28    16    17    1
    29    17    18    1
    30    18    19    1
    31    19    20    1
    32    20    21    1
    33    21    22    1
    34    22    23    1
    35    16    11    1
    36    21    17    1
    37     9     1   ar
    38     8     4   ar
    39    35    29   ar
    40    23    24    1
