@<TRIPOS>MOLECULE
*****
 25 27 0 0 0
SMALL
GASTEIGER

@<TRIPOS>ATOM
      1 C           0.3466    1.9933   20.5457 C.2     1  UNL1        0.0412
      2 C           0.0390    2.1666   22.0035 C.2     1  UNL1       -0.0326
      3 C           0.7140    1.2955   23.0211 C.3     1  UNL1        0.0442
      4 C           0.4064    1.4687   24.4790 C.3     1  UNL1        0.0981
      5 N          -0.5762    2.5131   24.9193 N.am    1  UNL1       -0.2754
      6 C          -0.8837    2.6864   26.3771 C.2     1  UNL1        0.2491
      7 O          -1.8663    3.7308   26.8173 O.2     1  UNL1       -0.2699
      8 C          -1.2512    3.3842   23.9016 C.3     1  UNL1        0.0981
      9 C          -0.9436    3.2109   22.4437 C.3     1  UNL1        0.0442
     10 C          -0.2087    1.8153   27.3947 C.ar    1  UNL1        0.0544
     11 C          -0.8999    0.5865   27.9068 C.ar    1  UNL1        0.0046
     12 C          -0.2249   -0.2847   28.9244 C.ar    1  UNL1        0.0010
     13 C           1.1412    0.0731   29.4300 C.ar    1  UNL1        0.0114
     14 C           1.8324    1.3019   28.9179 C.ar    1  UNL1        0.0578
     15 CL          3.1986    1.6596   29.4234 Cl      1  UNL1       -0.0822
     16 C           1.1574    2.1730   27.9003 C.ar    1  UNL1        0.0159
     17 C           2.3117   -0.0955   19.6651 C.1     1  UNL1       -0.0405
     18 C           1.3292    0.9489   20.1054 C.1     1  UNL1       -0.0583
     19 C           3.8055   -5.0682   19.4634 C.3     1  UNL1        0.0521
     20 C           4.0412   -3.6262   19.1240 C.ar    1  UNL1        0.0600
     21 C           5.2593   -3.2286   18.3444 C.ar    1  UNL1        0.0148
     22 C           5.4950   -1.7867   18.0050 C.ar    1  UNL1        0.0034
     23 C           4.5125   -0.7423   18.4452 C.ar    1  UNL1        0.0276
     24 C           3.2943   -1.1399   19.2249 C.ar    1  UNL1        0.1224
     25 N           3.0586   -2.5818   19.5643 N.ar    1  UNL1       -0.2414
@<TRIPOS>BOND
     1    19    20    1
     2    20    21   ar
     3    21    22   ar
     4    22    23   ar
     5    23    24   ar
     6    24    17    1
     7    17    18    3
     8    18     1    1
     9     1     2    2
    10     2     3    1
    11     3     4    1
    12     4     5    1
    13     5     6   am
    14     6     7    2
    15     6    10    1
    16    10    11   ar
    17    11    12   ar
    18    12    13   ar
    19    13    14   ar
    20    14    15    1
    21    14    16   ar
    22     5     8    1
    23     8     9    1
    24    24    25   ar
    25    25    20   ar
    26     9     2    1
    27    16    10   ar
@<TRIPOS>MOLECULE
*****
 25 27 0 0 0
SMALL
GASTEIGER

@<TRIPOS>ATOM
      1 C           0.6199    1.3078   20.2646 C.2     1  UNL1        0.0412
      2 C           0.1950    1.8226   21.6078 C.2     1  UNL1       -0.0326
      3 C           0.7386    1.1959   22.8575 C.3     1  UNL1        0.0442
      4 C           0.3137    1.7107   24.2008 C.3     1  UNL1        0.0981
      5 N          -0.6549    2.8524   24.2944 N.am    1  UNL1       -0.2754
      6 C          -1.0798    3.3672   25.6376 C.2     1  UNL1        0.2491
      7 O          -2.0483    4.5088   25.7312 O.2     1  UNL1       -0.2699
      8 C          -1.1985    3.4791   23.0447 C.3     1  UNL1        0.0981
      9 C          -0.7735    2.9642   21.7014 C.3     1  UNL1        0.0442
     10 C          -0.5362    2.7405   26.8873 C.ar    1  UNL1        0.0544
     11 C           0.5720    3.4124   27.6425 C.ar    1  UNL1        0.0046
     12 C           1.1156    2.7857   28.8921 C.ar    1  UNL1        0.0010
     13 C           0.5510    1.4871   29.3867 C.ar    1  UNL1        0.0114
     14 C          -0.5572    0.8151   28.6315 C.ar    1  UNL1        0.0578
     15 CL         -1.1219   -0.4837   29.1260 Cl      1  UNL1       -0.0822
     16 C          -1.1008    1.4418   27.3818 C.ar    1  UNL1        0.0159
     17 C           2.5569   -0.9754   20.0773 C.1     1  UNL1       -0.0405
     18 C           1.5884    0.1662   20.1710 C.1     1  UNL1       -0.0583
     19 C           7.0947   -3.1453   21.3813 C.3     1  UNL1        0.0521
     20 C           5.7944   -3.2019   20.6357 C.ar    1  UNL1        0.0600
     21 C           5.4626   -4.4001   19.7966 C.ar    1  UNL1        0.0148
     22 C           4.1622   -4.4567   19.0510 C.ar    1  UNL1        0.0034
     23 C           3.1937   -3.3152   19.1446 C.ar    1  UNL1        0.0276
     24 C           3.5255   -2.1170   19.9837 C.ar    1  UNL1        0.1224
     25 N           4.8258   -2.0604   20.7293 N.ar    1  UNL1       -0.2414
@<TRIPOS>BOND
     1    19    20    1
     2    20    21   ar
     3    21    22   ar
     4    22    23   ar
     5    23    24   ar
     6    24    17    1
     7    17    18    3
     8    18     1    1
     9     1     2    2
    10     2     3    1
    11     3     4    1
    12     4     5    1
    13     5     6   am
    14     6     7    2
    15     6    10    1
    16    10    11   ar
    17    11    12   ar
    18    12    13   ar
    19    13    14   ar
    20    14    15    1
    21    14    16   ar
    22     5     8    1
    23     8     9    1
    24    24    25   ar
    25    25    20   ar
    26     9     2    1
    27    16    10   ar
@<TRIPOS>MOLECULE
*****
 25 27 0 0 0
SMALL
GASTEIGER

@<TRIPOS>ATOM
      1 C           0.1664    2.5585   21.4956 C.2     1  UNL1        0.0412
      2 C           1.0084    1.6513   20.6482 C.2     1  UNL1       -0.0326
      3 C           1.8480    0.5885   21.2927 C.3     1  UNL1        0.0442
      4 C           2.6900   -0.3187   20.4454 C.3     1  UNL1        0.0981
      5 N           2.6924   -0.1630   18.9534 N.am    1  UNL1       -0.2754
      6 C           3.5344   -1.0702   18.1061 C.2     1  UNL1        0.2491
      7 O           3.5368   -0.9146   16.6142 O.2     1  UNL1       -0.2699
      8 C           1.8528    0.8998   18.3089 C.3     1  UNL1        0.0981
      9 C           1.0108    1.8070   19.1563 C.3     1  UNL1        0.0442
     10 C           4.3740   -2.1331   18.7506 C.ar    1  UNL1        0.0544
     11 C           3.7959   -3.4934   19.0058 C.ar    1  UNL1        0.0046
     12 C           4.6356   -4.5563   19.6503 C.ar    1  UNL1        0.0010
     13 C           6.0532   -4.2588   20.0397 C.ar    1  UNL1        0.0114
     14 C           6.6313   -2.8984   19.7845 C.ar    1  UNL1        0.0578
     15 CL          8.0490   -2.6008   20.1738 Cl      1  UNL1       -0.0822
     16 C           5.7917   -1.8355   19.1399 C.ar    1  UNL1        0.0159
     17 C           0.1617    2.2472   24.4794 C.1     1  UNL1       -0.0405
     18 C           0.1640    2.4029   22.9875 C.1     1  UNL1       -0.0583
     19 C          -1.3386   -0.3342   28.7321 C.3     1  UNL1        0.0521
     20 C          -0.5909    0.8009   28.0976 C.ar    1  UNL1        0.0600
     21 C           0.1544    1.7803   28.9551 C.ar    1  UNL1        0.0148
     22 C           0.9021    2.9154   28.3206 C.ar    1  UNL1        0.0034
     23 C           0.9045    3.0710   26.8288 C.ar    1  UNL1        0.0276
     24 C           0.1593    2.0916   25.9713 C.ar    1  UNL1        0.1224
     25 N          -0.5885    0.9565   26.6058 N.ar    1  UNL1       -0.2414
@<TRIPOS>BOND
     1    19    20    1
     2    20    21   ar
     3    21    22   ar
     4    22    23   ar
     5    23    24   ar
     6    24    17    1
     7    17    18    3
     8    18     1    1
     9     1     2    2
    10     2     3    1
    11     3     4    1
    12     4     5    1
    13     5     6   am
    14     6     7    2
    15     6    10    1
    16    10    11   ar
    17    11    12   ar
    18    12    13   ar
    19    13    14   ar
    20    14    15    1
    21    14    16   ar
    22     5     8    1
    23     8     9    1
    24    24    25   ar
    25    25    20   ar
    26     9     2    1
    27    16    10   ar
@<TRIPOS>MOLECULE
*****
 25 27 0 0 0
SMALL
GASTEIGER

@<TRIPOS>ATOM
      1 C           5.4890   -1.6337   33.2057 C.2     1  UNL1        0.0412
      2 C           4.4000   -0.7314   32.7059 C.2     1  UNL1       -0.0326
      3 C           3.8807   -0.8862   31.3072 C.3     1  UNL1        0.0442
      4 C           2.7917    0.0161   30.8074 C.3     1  UNL1        0.0981
      5 N           2.2219    1.0732   31.7063 N.am    1  UNL1       -0.2754
      6 C           1.1328    1.9755   31.2065 C.2     1  UNL1        0.2491
      7 O           0.5631    3.0325   32.1054 O.2     1  UNL1       -0.2699
      8 C           2.7411    1.2279   33.1050 C.3     1  UNL1        0.0981
      9 C           3.8302    0.3255   33.6048 C.3     1  UNL1        0.0442
     10 C           0.6136    1.8207   29.8078 C.ar    1  UNL1        0.0544
     11 C          -0.4593    0.8147   29.5130 C.ar    1  UNL1        0.0046
     12 C          -0.9785    0.6600   28.1143 C.ar    1  UNL1        0.0010
     13 C          -0.4250    1.5113   27.0103 C.ar    1  UNL1        0.0114
     14 C           0.6478    2.5173   27.3051 C.ar    1  UNL1        0.0578
     15 CL          1.2014    3.3687   26.2011 Cl      1  UNL1       -0.0822
     16 C           1.1671    2.6721   28.7038 C.ar    1  UNL1        0.0159
     17 C           6.6287   -3.7478   31.4080 C.1     1  UNL1       -0.0405
     18 C           6.0588   -2.6908   32.3068 C.1     1  UNL1       -0.0583
     19 C           6.7090   -6.1910   26.8227 C.3     1  UNL1        0.0521
     20 C           7.2386   -6.0264   28.2164 C.ar    1  UNL1        0.0600
     21 C           8.3380   -6.9189   28.7112 C.ar    1  UNL1        0.0148
     22 C           8.8676   -6.7543   30.1049 C.ar    1  UNL1        0.0034
     23 C           8.2979   -5.6973   31.0038 C.ar    1  UNL1        0.0276
     24 C           7.1985   -4.8049   30.5090 C.ar    1  UNL1        0.1224
     25 N           6.6689   -4.9694   29.1153 N.ar    1  UNL1       -0.2414
@<TRIPOS>BOND
     1    19    20    1
     2    20    21   ar
     3    21    22   ar
     4    22    23   ar
     5    23    24   ar
     6    24    17    1
     7    17    18    3
     8    18     1    1
     9     1     2    2
    10     2     3    1
    11     3     4    1
    12     4     5    1
    13     5     6   am
    14     6     7    2
    15     6    10    1
    16    10    11   ar
    17    11    12   ar
    18    12    13   ar
    19    13    14   ar
    20    14    15    1
    21    14    16   ar
    22     5     8    1
    23     8     9    1
    24    24    25   ar
    25    25    20   ar
    26     9     2    1
    27    16    10   ar
@<TRIPOS>MOLECULE
*****
 25 27 0 0 0
SMALL
GASTEIGER

@<TRIPOS>ATOM
      1 C         -12.1765   -5.0506   18.9619 C.2     1  UNL1        0.0412
      2 C         -12.3303   -3.5916   18.6495 C.2     1  UNL1       -0.0326
      3 C         -13.6983   -3.0038   18.4671 C.3     1  UNL1        0.0442
      4 C         -13.8521   -1.5448   18.1546 C.3     1  UNL1        0.0981
      5 N         -12.6380   -0.6735   18.0246 N.am    1  UNL1       -0.2754
      6 C         -12.7918    0.7854   17.7122 C.2     1  UNL1        0.2491
      7 O         -11.5777    1.6566   17.5822 O.2     1  UNL1       -0.2699
      8 C         -11.2700   -1.2613   18.2070 C.3     1  UNL1        0.0981
      9 C         -11.1162   -2.7204   18.5195 C.3     1  UNL1        0.0442
     10 C         -14.1597    1.3732   17.5298 C.ar    1  UNL1        0.0544
     11 C         -14.7926    1.3922   16.1700 C.ar    1  UNL1        0.0046
     12 C         -16.1606    1.9800   15.9876 C.ar    1  UNL1        0.0010
     13 C         -16.8956    2.5488   17.1649 C.ar    1  UNL1        0.0114
     14 C         -16.2626    2.5298   18.5247 C.ar    1  UNL1        0.0578
     15 CL        -16.9976    3.0987   19.7021 Cl      1  UNL1       -0.0822
     16 C         -14.8947    1.9420   18.7071 C.ar    1  UNL1        0.0159
     17 C         -14.6047   -6.7931   19.2219 C.1     1  UNL1       -0.0405
     18 C         -13.3906   -5.9218   19.0920 C.1     1  UNL1       -0.0583
     19 C         -16.8428  -11.4710   18.8925 C.3     1  UNL1        0.0521
     20 C         -16.9378  -10.0033   19.1872 C.ar    1  UNL1        0.0600
     21 C         -18.2469   -9.4069   19.6120 C.ar    1  UNL1        0.0148
     22 C         -18.3420   -7.9392   19.9068 C.ar    1  UNL1        0.0034
     23 C         -17.1280   -7.0679   19.7768 C.ar    1  UNL1        0.0276
     24 C         -15.8189   -7.6643   19.3520 C.ar    1  UNL1        0.1224
     25 N         -15.7238   -9.1320   19.0572 N.ar    1  UNL1       -0.2414
@<TRIPOS>BOND
     1    19    20    1
     2    20    21   ar
     3    21    22   ar
     4    22    23   ar
     5    23    24   ar
     6    24    17    1
     7    17    18    3
     8    18     1    1
     9     1     2    2
    10     2     3    1
    11     3     4    1
    12     4     5    1
    13     5     6   am
    14     6     7    2
    15     6    10    1
    16    10    11   ar
    17    11    12   ar
    18    12    13   ar
    19    13    14   ar
    20    14    15    1
    21    14    16   ar
    22     5     8    1
    23     8     9    1
    24    24    25   ar
    25    25    20   ar
    26     9     2    1
    27    16    10   ar
@<TRIPOS>MOLECULE
*****
 25 27 0 0 0
SMALL
GASTEIGER

@<TRIPOS>ATOM
      1 C           0.4421    2.0403   23.4560 C.2     1  UNL1        0.0412
      2 C           1.4377    0.9383   23.2455 C.2     1  UNL1       -0.0326
      3 C           1.6069    0.3302   21.8847 C.3     1  UNL1        0.0442
      4 C           2.6024   -0.7719   21.6742 C.3     1  UNL1        0.0981
      5 N           3.4288   -1.2659   22.8245 N.am    1  UNL1       -0.2754
      6 C           4.4243   -2.3680   22.6140 C.2     1  UNL1        0.2491
      7 O           5.2506   -2.8620   23.7643 O.2     1  UNL1       -0.2699
      8 C           3.2596   -0.6578   24.1853 C.3     1  UNL1        0.0981
      9 C           2.2640    0.4443   24.3957 C.3     1  UNL1        0.0442
     10 C           4.5935   -2.9760   21.2533 C.ar    1  UNL1        0.0544
     11 C           3.8197   -4.2056   20.8798 C.ar    1  UNL1        0.0046
     12 C           3.9889   -4.8136   19.5190 C.ar    1  UNL1        0.0010
     13 C           4.9319   -4.1922   18.5318 C.ar    1  UNL1        0.0114
     14 C           5.7056   -2.9627   18.9053 C.ar    1  UNL1        0.0578
     15 CL          6.6486   -2.3411   17.9181 Cl      1  UNL1       -0.0822
     16 C           5.5364   -2.3546   20.2661 C.ar    1  UNL1        0.0159
     17 C          -1.2106    3.0284   21.1555 C.1     1  UNL1       -0.0405
     18 C          -0.3843    2.5344   22.3057 C.1     1  UNL1       -0.0583
     19 C          -5.8218    3.5207   18.8115 C.3     1  UNL1        0.0521
     20 C          -4.3426    3.7686   18.8332 C.ar    1  UNL1        0.0600
     21 C          -3.6898    4.5104   17.7048 C.ar    1  UNL1        0.0148
     22 C          -2.2105    4.7583   17.7265 C.ar    1  UNL1        0.0034
     23 C          -1.3842    4.2642   18.8767 C.ar    1  UNL1        0.0276
     24 C          -2.0370    3.5224   20.0052 C.ar    1  UNL1        0.1224
     25 N          -3.5162    3.2746   19.9834 N.ar    1  UNL1       -0.2414
@<TRIPOS>BOND
     1    19    20    1
     2    20    21   ar
     3    21    22   ar
     4    22    23   ar
     5    23    24   ar
     6    24    17    1
     7    17    18    3
     8    18     1    1
     9     1     2    2
    10     2     3    1
    11     3     4    1
    12     4     5    1
    13     5     6   am
    14     6     7    2
    15     6    10    1
    16    10    11   ar
    17    11    12   ar
    18    12    13   ar
    19    13    14   ar
    20    14    15    1
    21    14    16   ar
    22     5     8    1
    23     8     9    1
    24    24    25   ar
    25    25    20   ar
    26     9     2    1
    27    16    10   ar
@<TRIPOS>MOLECULE
*****
 25 27 0 0 0
SMALL
GASTEIGER

@<TRIPOS>ATOM
      1 C           7.6716   -5.5109   25.0943 C.2     1  UNL1        0.0412
      2 C           7.9022   -5.3036   26.5619 C.2     1  UNL1       -0.0326
      3 C           7.1913   -4.1976   27.2840 C.3     1  UNL1        0.0442
      4 C           7.4219   -3.9904   28.7516 C.3     1  UNL1        0.0981
      5 N           8.3634   -4.8892   29.4972 N.am    1  UNL1       -0.2754
      6 C           8.5940   -4.6820   30.9647 C.2     1  UNL1        0.2491
      7 O           9.5355   -5.5808   31.7102 O.2     1  UNL1       -0.2699
      8 C           9.0743   -5.9952   28.7751 C.3     1  UNL1        0.0981
      9 C           8.8437   -6.2024   27.3074 C.3     1  UNL1        0.0442
     10 C           7.8831   -3.5760   31.6868 C.ar    1  UNL1        0.0544
     11 C           8.5931   -2.2845   31.9655 C.ar    1  UNL1        0.0046
     12 C           7.8823   -1.1784   32.6876 C.ar    1  UNL1        0.0010
     13 C           6.4614   -1.3640   33.1310 C.ar    1  UNL1        0.0114
     14 C           5.7514   -2.6556   32.8524 C.ar    1  UNL1        0.0578
     15 CL          4.3305   -2.8412   33.2958 Cl      1  UNL1       -0.0822
     16 C           6.4623   -3.7616   32.1303 C.ar    1  UNL1        0.0159
     17 C           5.7887   -3.7133   23.6032 C.1     1  UNL1       -0.0405
     18 C           6.7301   -4.6120   24.3488 C.1     1  UNL1       -0.0583
     19 C           3.5282   -2.2600   19.1559 C.3     1  UNL1        0.0521
     20 C           3.7170   -2.0879   20.6340 C.ar    1  UNL1        0.0600
     21 C           2.9643   -1.0170   21.3665 C.ar    1  UNL1        0.0148
     22 C           3.1531   -0.8449   22.8446 C.ar    1  UNL1        0.0034
     23 C           4.0945   -1.7436   23.5902 C.ar    1  UNL1        0.0276
     24 C           4.8472   -2.8145   22.8577 C.ar    1  UNL1        0.1224
     25 N           4.6584   -2.9866   21.3796 N.ar    1  UNL1       -0.2414
@<TRIPOS>BOND
     1    19    20    1
     2    20    21   ar
     3    21    22   ar
     4    22    23   ar
     5    23    24   ar
     6    24    17    1
     7    17    18    3
     8    18     1    1
     9     1     2    2
    10     2     3    1
    11     3     4    1
    12     4     5    1
    13     5     6   am
    14     6     7    2
    15     6    10    1
    16    10    11   ar
    17    11    12   ar
    18    12    13   ar
    19    13    14   ar
    20    14    15    1
    21    14    16   ar
    22     5     8    1
    23     8     9    1
    24    24    25   ar
    25    25    20   ar
    26     9     2    1
    27    16    10   ar
@<TRIPOS>MOLECULE
*****
 25 27 0 0 0
SMALL
GASTEIGER

@<TRIPOS>ATOM
      1 C           5.6439   -0.8422   34.0219 C.2     1  UNL1        0.0412
      2 C           5.0050   -0.8306   32.6648 C.2     1  UNL1       -0.0326
      3 C           3.7992    0.0246   32.4108 C.3     1  UNL1        0.0442
      4 C           3.1603    0.0361   31.0537 C.3     1  UNL1        0.0981
      5 N           3.7273   -0.8075   29.9506 N.am    1  UNL1       -0.2754
      6 C           3.0885   -0.7960   28.5935 C.2     1  UNL1        0.2491
      7 O           3.6555   -1.6396   27.4905 O.2     1  UNL1       -0.2699
      8 C           4.9332   -1.6627   30.2046 C.3     1  UNL1        0.0981
      9 C           5.5721   -1.6743   31.5618 C.3     1  UNL1        0.0442
     10 C           1.8826    0.0592   28.3395 C.ar    1  UNL1        0.0544
     11 C           2.0099    1.3121   27.5246 C.ar    1  UNL1        0.0046
     12 C           0.8040    2.1673   27.2705 C.ar    1  UNL1        0.0010
     13 C          -0.5291    1.7696   27.8314 C.ar    1  UNL1        0.0114
     14 C          -0.6563    0.5168   28.6464 C.ar    1  UNL1        0.0578
     15 CL         -1.9895    0.1191   29.2073 Cl      1  UNL1       -0.0822
     16 C           0.5495   -0.3384   28.9004 C.ar    1  UNL1        0.0159
     17 C           4.5099    0.8451   36.2281 C.1     1  UNL1       -0.0405
     18 C           5.0769    0.0015   35.1250 C.1     1  UNL1       -0.0583
     19 C           0.4798    2.2829   39.1761 C.3     1  UNL1        0.0521
     20 C           1.9278    2.4076   38.8052 C.ar    1  UNL1        0.0600
     21 C           2.8089    3.3759   39.5373 C.ar    1  UNL1        0.0148
     22 C           4.2569    3.5007   39.1664 C.ar    1  UNL1        0.0034
     23 C           4.8239    2.6571   38.0633 C.ar    1  UNL1        0.0276
     24 C           3.9429    1.6887   37.3312 C.ar    1  UNL1        0.1224
     25 N           2.4948    1.5640   37.7021 N.ar    1  UNL1       -0.2414
@<TRIPOS>BOND
     1    19    20    1
     2    20    21   ar
     3    21    22   ar
     4    22    23   ar
     5    23    24   ar
     6    24    17    1
     7    17    18    3
     8    18     1    1
     9     1     2    2
    10     2     3    1
    11     3     4    1
    12     4     5    1
    13     5     6   am
    14     6     7    2
    15     6    10    1
    16    10    11   ar
    17    11    12   ar
    18    12    13   ar
    19    13    14   ar
    20    14    15    1
    21    14    16   ar
    22     5     8    1
    23     8     9    1
    24    24    25   ar
    25    25    20   ar
    26     9     2    1
    27    16    10   ar
@<TRIPOS>MOLECULE
*****
 25 27 0 0 0
SMALL
GASTEIGER

@<TRIPOS>ATOM
      1 C         -18.2300   -3.6502   19.9180 C.2     1  UNL1        0.0412
      2 C         -17.1100   -4.5505   19.4878 C.2     1  UNL1       -0.0326
      3 C         -15.7427   -3.9834   19.2455 C.3     1  UNL1        0.0442
      4 C         -14.6228   -4.8838   18.8153 C.3     1  UNL1        0.0981
      5 N         -14.8701   -6.3513   18.6275 N.am    1  UNL1       -0.2754
      6 C         -13.7502   -7.2517   18.1973 C.2     1  UNL1        0.2491
      7 O         -13.9976   -8.7191   18.0095 O.2     1  UNL1       -0.2699
      8 C         -16.2375   -6.9184   18.8698 C.3     1  UNL1        0.0981
      9 C         -17.3575   -6.0180   19.3000 C.3     1  UNL1        0.0442
     10 C         -12.3829   -6.6846   17.9549 C.ar    1  UNL1        0.0544
     11 C         -12.1046   -5.9068   16.7029 C.ar    1  UNL1        0.0046
     12 C         -10.7373   -5.3397   16.4605 C.ar    1  UNL1        0.0010
     13 C          -9.6482   -5.5503   17.4702 C.ar    1  UNL1        0.0114
     14 C          -9.9264   -6.3281   18.7222 C.ar    1  UNL1        0.0578
     15 CL         -8.8373   -6.5388   19.7319 Cl      1  UNL1       -0.0822
     16 C         -11.2938   -6.8952   18.9646 C.ar    1  UNL1        0.0159
     17 C         -17.7351   -0.7152   20.2936 C.1     1  UNL1       -0.0405
     18 C         -17.9826   -2.1827   20.1058 C.1     1  UNL1       -0.0583
     19 C         -17.1752    3.3885   23.4315 C.3     1  UNL1        0.0521
     20 C         -17.2078    2.8041   22.0504 C.ar    1  UNL1        0.0600
     21 C         -16.9930    3.6872   20.8572 C.ar    1  UNL1        0.0148
     22 C         -17.0256    3.1029   19.4760 C.ar    1  UNL1        0.0034
     23 C         -17.2730    1.6355   19.2882 C.ar    1  UNL1        0.0276
     24 C         -17.4878    0.7523   20.4814 C.ar    1  UNL1        0.1224
     25 N         -17.4552    1.3367   21.8626 N.ar    1  UNL1       -0.2414
@<TRIPOS>BOND
     1    19    20    1
     2    20    21   ar
     3    21    22   ar
     4    22    23   ar
     5    23    24   ar
     6    24    17    1
     7    17    18    3
     8    18     1    1
     9     1     2    2
    10     2     3    1
    11     3     4    1
    12     4     5    1
    13     5     6   am
    14     6     7    2
    15     6    10    1
    16    10    11   ar
    17    11    12   ar
    18    12    13   ar
    19    13    14   ar
    20    14    15    1
    21    14    16   ar
    22     5     8    1
    23     8     9    1
    24    24    25   ar
    25    25    20   ar
    26     9     2    1
    27    16    10   ar
