@<TRIPOS>MOLECULE
*****
 35 38 0 0 0
SMALL
GASTEIGER

@<TRIPOS>ATOM
      1 N           1.6540   -0.0151   27.7134 N.am    1  UNL1       -0.2979
      2 C           2.3164    0.6907   26.5675 C.2     1  UNL1        0.2409
      3 O           2.0235    2.1388   26.3085 O.2     1  UNL1       -0.2733
      4 H           1.8462   -0.9656   27.8834 H       1  UNL1        0.1498
      5 C           3.2717   -0.0517   25.6807 C.3     1  UNL1        0.1536
      6 C           2.9874   -0.5385   24.2907 C.3     1  UNL1        0.0549
      7 C           4.2190   -1.2252   23.7791 C.3     1  UNL1        0.1557
      8 C           5.2644   -1.1627   24.8530 C.3     1  UNL1        0.1178
      9 N           4.6789   -0.4374   26.0283 N.am    1  UNL1       -0.2712
     10 C           5.3780   -0.1486   27.3237 C.2     1  UNL1        0.2265
     11 C           6.7941   -0.5989   27.5283 C.3     1  UNL1        0.0948
     12 O           4.6609    0.5905   28.4144 O.2     1  UNL1       -0.2748
     13 S           4.3773   -1.8624   22.4306 S.O2    1  UNL1        0.0087
     14 O           4.4427   -0.5045   21.7966 O.2     1  UNL1       -0.1686
     15 O           4.3120   -3.2204   23.0645 O.2     1  UNL1       -0.1686
     16 C           4.5357   -2.4997   21.0819 C.ar    1  UNL1        0.1057
     17 C           4.3015   -3.9721   20.9160 C.ar    1  UNL1        0.0183
     18 C           4.4598   -4.6093   19.5673 C.ar    1  UNL1        0.0013
     19 C           4.8524   -3.7742   18.3846 C.ar    1  UNL1        0.0001
     20 C           5.0866   -2.3020   18.5506 C.ar    1  UNL1        0.0013
     21 C           4.9282   -1.6647   19.8993 C.ar    1  UNL1        0.0183
     22 C           0.6987    0.7272   28.6002 C.3     1  UNL1        0.1387
     23 C          -1.5855   -0.4638   28.9384 C.3     1  UNL1        0.0022
     24 C          -0.7771    0.6508   28.3430 C.3     1  UNL1        0.0277
     25 C           1.2192    1.5459   29.7442 C.2     1  UNL1        0.2436
     26 O           0.8836    3.0050   29.8361 O.2     1  UNL1       -0.2846
     27 C           2.0753    0.9055   30.7963 C.ar    1  UNL1        0.2671
     28 N           2.4790    1.5246   32.1016 N.ar    1  UNL1       -0.2058
     29 C           3.3312    0.5353   32.8399 C.ar    1  UNL1        0.1189
     30 C           4.0111    0.5960   34.1756 C.ar    1  UNL1        0.0223
     31 C           4.8141   -0.5738   34.6622 C.ar    1  UNL1        0.0018
     32 C           4.9371   -1.8042   33.8132 C.ar    1  UNL1        0.0032
     33 C           4.2573   -1.8649   32.4775 C.ar    1  UNL1        0.0391
     34 C           3.4543   -0.6951   31.9909 C.ar    1  UNL1        0.1648
     35 O           2.6781   -0.4663   30.7279 O.2     1  UNL1       -0.4324
@<TRIPOS>BOND
     1    23    24    1
     2    22    24    1
     3    22     1    1
     4     1     2   am
     5     2     3    2
     6     5     2    1
     7     5     6    1
     8     6     7    1
     9     7    13    1
    10    13    14    2
    11    13    15    2
    12    13    16    1
    13    16    17   ar
    14    17    18   ar
    15    18    19   ar
    16    19    20   ar
    17    20    21   ar
    18     7     8    1
    19     8     9    1
    20     9    10   am
    21    10    11    1
    22    10    12    2
    23    22    25    1
    24    25    26    2
    25    25    27    1
    26    27    28   ar
    27    28    29   ar
    28    29    30   ar
    29    30    31   ar
    30    31    32   ar
    31    32    33   ar
    32    33    34   ar
    33    34    35   ar
    34     9     5    1
    35    35    27   ar
    36    21    16   ar
    37    34    29   ar
    38     1     4    1
@<TRIPOS>MOLECULE
*****
 35 38 0 0 0
SMALL
GASTEIGER

@<TRIPOS>ATOM
      1 N           4.4675   -0.8540   20.1140 N.am    1  UNL1       -0.2979
      2 C           4.5579   -2.3499   20.1786 C.2     1  UNL1        0.2409
      3 O           3.5411   -3.1941   19.4692 O.2     1  UNL1       -0.2733
      4 H           5.1349   -0.2999   20.5796 H       1  UNL1        0.1498
      5 C           5.6653   -3.0015   20.9528 C.3     1  UNL1        0.1536
      6 C           5.5154   -3.7560   22.2405 C.3     1  UNL1        0.0549
      7 C           6.8743   -4.2339   22.6586 C.3     1  UNL1        0.1557
      8 C           7.8641   -3.7748   21.6293 C.3     1  UNL1        0.1178
      9 N           7.1169   -3.0131   20.5750 N.am    1  UNL1       -0.2712
     10 C           7.7160   -2.3750   19.3568 C.2     1  UNL1        0.2265
     11 C           9.1925   -2.4699   19.1099 C.3     1  UNL1        0.0948
     12 O           6.8387   -1.6422   18.3856 O.2     1  UNL1       -0.2748
     13 S           7.1883   -5.0309   23.8899 S.O2    1  UNL1        0.0087
     14 O           7.9338   -6.0286   23.0539 O.2     1  UNL1       -0.1686
     15 O           6.4429   -4.0333   24.7259 O.2     1  UNL1       -0.1686
     16 C           7.5024   -5.8280   25.1212 C.ar    1  UNL1        0.1057
     17 C           7.2696   -5.2339   26.4788 C.ar    1  UNL1        0.0183
     18 C           7.5836   -6.0310   27.7101 C.ar    1  UNL1        0.0013
     19 C           8.1305   -7.4222   27.5837 C.ar    1  UNL1        0.0001
     20 C           8.3632   -8.0161   26.2262 C.ar    1  UNL1        0.0013
     21 C           8.0492   -7.2190   24.9949 C.ar    1  UNL1        0.0183
     22 C           3.3602   -0.2023   19.3398 C.3     1  UNL1        0.1387
     23 C           3.7124   -0.7971   16.8353 C.3     1  UNL1        0.0022
     24 C           3.5898    0.2298   17.9219 C.3     1  UNL1        0.0277
     25 C           2.0233    0.0171   19.9836 C.2     1  UNL1        0.2436
     26 O           0.7766   -0.0052   19.1497 O.2     1  UNL1       -0.2846
     27 C           1.9330    0.2589   21.4612 C.ar    1  UNL1        0.2671
     28 N           2.9423   -0.1640   22.4871 N.ar    1  UNL1       -0.2058
     29 C           2.4507    0.2817   23.8323 C.ar    1  UNL1        0.1189
     30 C           3.0291    0.1419   25.2092 C.ar    1  UNL1        0.0223
     31 C           2.2943    0.7005   26.3916 C.ar    1  UNL1        0.0018
     32 C           0.9812    1.3989   26.1971 C.ar    1  UNL1        0.0032
     33 C           0.4028    1.5387   24.8202 C.ar    1  UNL1        0.0391
     34 C           1.1375    0.9801   23.6379 C.ar    1  UNL1        0.1648
     35 O           0.8176    0.9660   22.1724 O.2     1  UNL1       -0.4324
@<TRIPOS>BOND
     1    23    24    1
     2    22    24    1
     3    22     1    1
     4     1     2   am
     5     2     3    2
     6     5     2    1
     7     5     6    1
     8     6     7    1
     9     7    13    1
    10    13    14    2
    11    13    15    2
    12    13    16    1
    13    16    17   ar
    14    17    18   ar
    15    18    19   ar
    16    19    20   ar
    17    20    21   ar
    18     7     8    1
    19     8     9    1
    20     9    10   am
    21    10    11    1
    22    10    12    2
    23    22    25    1
    24    25    26    2
    25    25    27    1
    26    27    28   ar
    27    28    29   ar
    28    29    30   ar
    29    30    31   ar
    30    31    32   ar
    31    32    33   ar
    32    33    34   ar
    33    34    35   ar
    34     9     5    1
    35    35    27   ar
    36    21    16   ar
    37    34    29   ar
    38     1     4    1
@<TRIPOS>MOLECULE
*****
 35 38 0 0 0
SMALL
GASTEIGER

@<TRIPOS>ATOM
      1 N         -10.1355  -18.0277   21.5974 N.am    1  UNL1       -0.2979
      2 C          -9.1550  -19.1375   21.8358 C.2     1  UNL1        0.2409
      3 O          -9.3987  -20.1310   22.9328 O.2     1  UNL1       -0.2733
      4 H          -9.9755  -17.3757   20.8774 H       1  UNL1        0.1498
      5 C          -7.9306  -19.2539   20.9770 C.3     1  UNL1        0.1536
      6 C          -6.5465  -18.8128   21.3505 C.3     1  UNL1        0.0549
      7 C          -5.6359  -19.1181   20.1983 C.3     1  UNL1        0.1557
      8 C          -6.4573  -19.7479   19.1127 C.3     1  UNL1        0.1178
      9 N          -7.8756  -19.8318   19.5939 N.am    1  UNL1       -0.2712
     10 C          -9.0351  -20.3948   18.8267 C.2     1  UNL1        0.2265
     11 C          -8.8262  -20.9407   17.4453 C.3     1  UNL1        0.0948
     12 O         -10.4034  -20.4119   19.4410 O.2     1  UNL1       -0.2748
     13 S          -4.1627  -18.8421   20.1417 S.O2    1  UNL1        0.0087
     14 O          -3.9623  -19.6564   21.3855 O.2     1  UNL1       -0.1686
     15 O          -4.3629  -18.0278   18.8980 O.2     1  UNL1       -0.1686
     16 C          -2.6893  -18.5661   20.0851 C.ar    1  UNL1        0.1057
     17 C          -2.0658  -18.0798   18.8104 C.ar    1  UNL1        0.0183
     18 C          -0.5925  -17.8038   18.7538 C.ar    1  UNL1        0.0013
     19 C           0.2573  -18.0140   19.9720 C.ar    1  UNL1        0.0001
     20 C          -0.3663  -18.5003   21.2466 C.ar    1  UNL1        0.0013
     21 C          -1.8396  -18.7763   21.3032 C.ar    1  UNL1        0.0183
     22 C         -11.3599  -17.9114   22.4562 C.3     1  UNL1        0.1387
     23 C         -12.9868  -16.6251   20.8913 C.3     1  UNL1        0.0022
     24 C         -12.7112  -17.7700   21.8205 C.3     1  UNL1        0.0277
     25 C         -11.2330  -17.9364   23.9506 C.2     1  UNL1        0.2436
     26 O         -12.2932  -18.5951   24.7824 O.2     1  UNL1       -0.2846
     27 C         -10.0458  -17.3027   24.6132 C.ar    1  UNL1        0.2671
     28 N          -9.0107  -16.4509   23.9401 N.ar    1  UNL1       -0.2058
     29 C          -8.0105  -16.0313   24.9761 C.ar    1  UNL1        0.1189
     30 C          -6.7740  -15.1863   24.8932 C.ar    1  UNL1        0.0223
     31 C          -5.9543  -14.9337   26.1238 C.ar    1  UNL1        0.0018
     32 C          -6.3712  -15.5261   27.4372 C.ar    1  UNL1        0.0032
     33 C          -7.6077  -16.3711   27.5202 C.ar    1  UNL1        0.0391
     34 C          -8.4274  -16.6237   26.2896 C.ar    1  UNL1        0.1648
     35 O          -9.6853  -17.4094   26.0653 O.2     1  UNL1       -0.4324
@<TRIPOS>BOND
     1    23    24    1
     2    22    24    1
     3    22     1    1
     4     1     2   am
     5     2     3    2
     6     5     2    1
     7     5     6    1
     8     6     7    1
     9     7    13    1
    10    13    14    2
    11    13    15    2
    12    13    16    1
    13    16    17   ar
    14    17    18   ar
    15    18    19   ar
    16    19    20   ar
    17    20    21   ar
    18     7     8    1
    19     8     9    1
    20     9    10   am
    21    10    11    1
    22    10    12    2
    23    22    25    1
    24    25    26    2
    25    25    27    1
    26    27    28   ar
    27    28    29   ar
    28    29    30   ar
    29    30    31   ar
    30    31    32   ar
    31    32    33   ar
    32    33    34   ar
    33    34    35   ar
    34     9     5    1
    35    35    27   ar
    36    21    16   ar
    37    34    29   ar
    38     1     4    1
@<TRIPOS>MOLECULE
*****
 35 38 0 0 0
SMALL
GASTEIGER

@<TRIPOS>ATOM
      1 N          -0.2113    0.9813   25.6851 N.am    1  UNL1       -0.2979
      2 C           1.0388    1.4367   24.9924 C.2     1  UNL1        0.2409
      3 O           2.0118    2.3256   25.7087 O.2     1  UNL1       -0.2733
      4 H          -0.8499    0.3979   25.2150 H       1  UNL1        0.1498
      5 C           1.3159    1.0031   23.5834 C.3     1  UNL1        0.1536
      6 C           2.2858   -0.0611   23.1630 C.3     1  UNL1        0.0549
      7 C           2.2411   -0.1643   21.6672 C.3     1  UNL1        0.1557
      8 C           1.2436    0.8361   21.1632 C.3     1  UNL1        0.1178
      9 N           0.6717    1.5577   22.3475 N.am    1  UNL1       -0.2712
     10 C          -0.3626    2.6431   22.3035 C.2     1  UNL1        0.2265
     11 C          -0.9185    3.0964   20.9861 C.3     1  UNL1        0.0948
     12 O          -0.8411    3.2752   23.5769 O.2     1  UNL1       -0.2748
     13 S           3.0516   -1.1031   20.8237 S.O2    1  UNL1        0.0087
     14 O           3.6281   -1.7196   22.0637 O.2     1  UNL1       -0.1686
     15 O           2.4752   -0.4866   19.5836 O.2     1  UNL1       -0.1686
     16 C           3.8622   -2.0419   19.9800 C.ar    1  UNL1        0.1057
     17 C           5.1039   -1.5527   19.2951 C.ar    1  UNL1        0.0183
     18 C           5.9144   -2.4915   18.4515 C.ar    1  UNL1        0.0013
     19 C           5.4833   -3.9195   18.2928 C.ar    1  UNL1        0.0001
     20 C           4.2416   -4.4086   18.9777 C.ar    1  UNL1        0.0013
     21 C           3.4311   -3.4698   19.8214 C.ar    1  UNL1        0.0183
     22 C          -0.4885    1.4149   27.0941 C.3     1  UNL1        0.1387
     23 C          -2.0625    3.4579   26.7795 C.3     1  UNL1        0.0022
     24 C          -0.8340    2.8454   27.3844 C.3     1  UNL1        0.0277
     25 C          -0.4201    0.4180   28.2128 C.2     1  UNL1        0.2436
     26 O          -1.6817   -0.1718   28.7699 O.2     1  UNL1       -0.2846
     27 C           0.9099    0.0110   28.7743 C.ar    1  UNL1        0.2671
     28 N           2.1530   -0.2684   27.9827 N.ar    1  UNL1       -0.2058
     29 C           3.2418   -0.6403   28.9453 C.ar    1  UNL1        0.1189
     30 C           4.6787   -1.0176   28.7383 C.ar    1  UNL1        0.0223
     31 C           5.5454   -1.3453   29.9179 C.ar    1  UNL1        0.0018
     32 C           4.9751   -1.2958   31.3044 C.ar    1  UNL1        0.0032
     33 C           3.5382   -0.9185   31.5113 C.ar    1  UNL1        0.0391
     34 C           2.6715   -0.5907   30.3317 C.ar    1  UNL1        0.1648
     35 O           1.2304   -0.1882   30.2261 O.2     1  UNL1       -0.4324
@<TRIPOS>BOND
     1    23    24    1
     2    22    24    1
     3    22     1    1
     4     1     2   am
     5     2     3    2
     6     5     2    1
     7     5     6    1
     8     6     7    1
     9     7    13    1
    10    13    14    2
    11    13    15    2
    12    13    16    1
    13    16    17   ar
    14    17    18   ar
    15    18    19   ar
    16    19    20   ar
    17    20    21   ar
    18     7     8    1
    19     8     9    1
    20     9    10   am
    21    10    11    1
    22    10    12    2
    23    22    25    1
    24    25    26    2
    25    25    27    1
    26    27    28   ar
    27    28    29   ar
    28    29    30   ar
    29    30    31   ar
    30    31    32   ar
    31    32    33   ar
    32    33    34   ar
    33    34    35   ar
    34     9     5    1
    35    35    27   ar
    36    21    16   ar
    37    34    29   ar
    38     1     4    1
@<TRIPOS>MOLECULE
*****
 35 38 0 0 0
SMALL
GASTEIGER

@<TRIPOS>ATOM
      1 N           6.5739   -5.4566   26.2567 N.am    1  UNL1       -0.2979
      2 C           6.9978   -4.4610   25.2179 C.2     1  UNL1        0.2409
      3 O           8.2534   -4.6885   24.4294 O.2     1  UNL1       -0.2733
      4 H           5.7498   -5.3073   26.7742 H       1  UNL1        0.1498
      5 C           6.1662   -3.2379   24.9677 C.3     1  UNL1        0.1536
      6 C           5.1796   -3.0555   23.8527 C.3     1  UNL1        0.0549
      7 C           4.5789   -1.6874   23.9845 C.3     1  UNL1        0.1557
      8 C           5.1943   -1.0243   25.1809 C.3     1  UNL1        0.1178
      9 N           6.1754   -1.9826   25.7887 N.am    1  UNL1       -0.2712
     10 C           7.0177   -1.7298   27.0038 C.2     1  UNL1        0.2265
     11 C           6.9186   -0.4186   27.7255 C.3     1  UNL1        0.0948
     12 O           7.9590   -2.7883   27.4973 O.2     1  UNL1       -0.2748
     13 S           3.5444   -1.0878   23.0789 S.O2    1  UNL1        0.0087
     14 O           4.2464   -1.6732   21.8895 O.2     1  UNL1       -0.1686
     15 O           2.8425   -0.5023   24.2682 O.2     1  UNL1       -0.1686
     16 C           2.5100   -0.4881   22.1732 C.ar    1  UNL1        0.1057
     17 C           2.3302   -1.0218   20.7829 C.ar    1  UNL1        0.0183
     18 C           1.2957   -0.4222   19.8772 C.ar    1  UNL1        0.0013
     19 C           0.4410    0.7113   20.3619 C.ar    1  UNL1        0.0001
     20 C           0.6207    1.2450   21.7521 C.ar    1  UNL1        0.0013
     21 C           1.6552    0.6453   22.6578 C.ar    1  UNL1        0.0183
     22 C           7.4055   -6.6797   26.5069 C.3     1  UNL1        0.1387
     23 C           9.1263   -7.8225   24.9311 C.3     1  UNL1        0.0022
     24 C           7.7093   -7.6233   25.3811 C.3     1  UNL1        0.0277
     25 C           7.9332   -6.9592   27.8828 C.2     1  UNL1        0.2436
     26 O           8.5474   -8.2918   28.1941 O.2     1  UNL1       -0.2846
     27 C           7.8468   -5.9062   28.9475 C.ar    1  UNL1        0.2671
     28 N           8.9909   -5.3808   29.7630 N.ar    1  UNL1       -0.2058
     29 C           8.4523   -4.3435   30.7031 C.ar    1  UNL1        0.1189
     30 C           9.1159   -3.4894   31.7423 C.ar    1  UNL1        0.0223
     31 C           8.3025   -2.5196   32.5472 C.ar    1  UNL1        0.0018
     32 C           6.8255   -2.4039   32.3128 C.ar    1  UNL1        0.0032
     33 C           6.1618   -3.2580   31.2736 C.ar    1  UNL1        0.0391
     34 C           6.9752   -4.2278   30.4688 C.ar    1  UNL1        0.1648
     35 O           6.6010   -5.1936   29.3837 O.2     1  UNL1       -0.4324
@<TRIPOS>BOND
     1    23    24    1
     2    22    24    1
     3    22     1    1
     4     1     2   am
     5     2     3    2
     6     5     2    1
     7     5     6    1
     8     6     7    1
     9     7    13    1
    10    13    14    2
    11    13    15    2
    12    13    16    1
    13    16    17   ar
    14    17    18   ar
    15    18    19   ar
    16    19    20   ar
    17    20    21   ar
    18     7     8    1
    19     8     9    1
    20     9    10   am
    21    10    11    1
    22    10    12    2
    23    22    25    1
    24    25    26    2
    25    25    27    1
    26    27    28   ar
    27    28    29   ar
    28    29    30   ar
    29    30    31   ar
    30    31    32   ar
    31    32    33   ar
    32    33    34   ar
    33    34    35   ar
    34     9     5    1
    35    35    27   ar
    36    21    16   ar
    37    34    29   ar
    38     1     4    1
@<TRIPOS>MOLECULE
*****
 35 38 0 0 0
SMALL
GASTEIGER

@<TRIPOS>ATOM
      1 N           5.7409   -2.9490   31.3505 N.am    1  UNL1       -0.2979
      2 C           5.8083   -1.7466   30.4563 C.2     1  UNL1        0.2409
      3 O           7.0746   -1.4322   29.7164 O.2     1  UNL1       -0.2733
      4 H           4.9097   -3.1554   31.8361 H       1  UNL1        0.1498
      5 C           4.6092   -0.8586   30.3019 C.3     1  UNL1        0.1536
      6 C           3.8654   -0.5953   29.0262 C.3     1  UNL1        0.0549
      7 C           2.7400    0.3481   29.3321 C.3     1  UNL1        0.1557
      8 C           2.7883    0.6678   30.7968 C.3     1  UNL1        0.1178
      9 N           3.9436   -0.0780   31.3963 N.am    1  UNL1       -0.2712
     10 C           4.3600   -0.0483   32.8370 C.2     1  UNL1        0.2265
     11 C           3.5936    0.7836   33.8222 C.3     1  UNL1        0.0948
     12 O           5.5428   -0.8504   33.2925 O.2     1  UNL1       -0.2748
     13 S           1.7417    0.8786   28.3463 S.O2    1  UNL1        0.0087
     14 O           2.8071    0.9230   27.2913 O.2     1  UNL1       -0.1686
     15 O           0.6763    0.8342   29.4012 O.2     1  UNL1       -0.1686
     16 C           0.7433    1.4091   27.3605 C.ar    1  UNL1        0.1057
     17 C           1.0404    1.3580   25.8910 C.ar    1  UNL1        0.0183
     18 C           0.0420    1.8885   24.9052 C.ar    1  UNL1        0.0013
     19 C          -1.2534    2.4700   25.3888 C.ar    1  UNL1        0.0001
     20 C          -1.5504    2.5210   26.8582 C.ar    1  UNL1        0.0013
     21 C          -0.5520    1.9905   27.8441 C.ar    1  UNL1        0.0183
     22 C           6.9399   -3.8371   31.5049 C.3     1  UNL1        0.1387
     23 C           9.5254   -3.8772   31.7572 C.3     1  UNL1        0.0022
     24 C           8.1920   -3.3037   32.1356 C.3     1  UNL1        0.0277
     25 C           6.8868   -5.2584   31.0285 C.2     1  UNL1        0.2436
     26 O           6.6176   -6.3664   32.0030 O.2     1  UNL1       -0.2846
     27 C           7.1029   -5.5717   29.5775 C.ar    1  UNL1        0.2671
     28 N           6.7314   -4.6920   28.4207 N.ar    1  UNL1       -0.2058
     29 C           7.1274   -5.3963   27.1569 C.ar    1  UNL1        0.1189
     30 C           7.0064   -5.0101   25.7126 C.ar    1  UNL1        0.0223
     31 C           7.5017   -5.9389   24.6440 C.ar    1  UNL1        0.0018
     32 C           8.1180   -7.2538   25.0197 C.ar    1  UNL1        0.0032
     33 C           8.2390   -7.6400   26.4640 C.ar    1  UNL1        0.0391
     34 C           7.7437   -6.7112   27.5326 C.ar    1  UNL1        0.1648
     35 O           7.7285   -6.8196   29.0287 O.2     1  UNL1       -0.4324
@<TRIPOS>BOND
     1    23    24    1
     2    22    24    1
     3    22     1    1
     4     1     2   am
     5     2     3    2
     6     5     2    1
     7     5     6    1
     8     6     7    1
     9     7    13    1
    10    13    14    2
    11    13    15    2
    12    13    16    1
    13    16    17   ar
    14    17    18   ar
    15    18    19   ar
    16    19    20   ar
    17    20    21   ar
    18     7     8    1
    19     8     9    1
    20     9    10   am
    21    10    11    1
    22    10    12    2
    23    22    25    1
    24    25    26    2
    25    25    27    1
    26    27    28   ar
    27    28    29   ar
    28    29    30   ar
    29    30    31   ar
    30    31    32   ar
    31    32    33   ar
    32    33    34   ar
    33    34    35   ar
    34     9     5    1
    35    35    27   ar
    36    21    16   ar
    37    34    29   ar
    38     1     4    1
@<TRIPOS>MOLECULE
*****
 35 38 0 0 0
SMALL
GASTEIGER

@<TRIPOS>ATOM
      1 N           5.7389   -2.4011   29.3026 N.am    1  UNL1       -0.2979
      2 C           6.4290   -1.8425   28.0937 C.2     1  UNL1        0.2409
      3 O           7.2049   -0.5629   28.1973 O.2     1  UNL1       -0.2733
      4 H           5.2297   -3.2409   29.2346 H       1  UNL1        0.1498
      5 C           6.3434   -2.5635   26.7811 C.3     1  UNL1        0.1536
      6 C           5.5503   -2.1266   25.5852 C.3     1  UNL1        0.0549
      7 C           5.7525   -3.1411   24.4990 C.3     1  UNL1        0.1557
      8 C           6.6707   -4.2050   25.0235 C.3     1  UNL1        0.1178
      9 N           7.0359   -3.8480   26.4340 N.am    1  UNL1       -0.2712
     10 C           7.9355   -4.6371   27.3384 C.2     1  UNL1        0.2265
     11 C           8.5605   -5.9101   26.8499 C.3     1  UNL1        0.0948
     12 O           8.2102   -4.1530   28.7314 O.2     1  UNL1       -0.2748
     13 S           5.1436   -3.0990   23.1289 S.O2    1  UNL1        0.0087
     14 O           4.2183   -2.0054   23.5737 O.2     1  UNL1       -0.1686
     15 O           6.0688   -4.1927   22.6840 O.2     1  UNL1       -0.1686
     16 C           4.5346   -3.0570   21.7587 C.ar    1  UNL1        0.1057
     17 C           4.7402   -4.2016   20.8111 C.ar    1  UNL1        0.0183
     18 C           4.1312   -4.1595   19.4409 C.ar    1  UNL1        0.0013
     19 C           3.3167   -2.9729   19.0183 C.ar    1  UNL1        0.0001
     20 C           3.1112   -1.8283   19.9658 C.ar    1  UNL1        0.0013
     21 C           3.7202   -1.8704   21.3360 C.ar    1  UNL1        0.0183
     22 C           5.8245   -1.6801   30.6152 C.3     1  UNL1        0.1387
     23 C           7.5924   -2.8586   32.1105 C.3     1  UNL1        0.0022
     24 C           7.1217   -1.6434   31.3675 C.3     1  UNL1        0.0277
     25 C           4.6130   -0.9957   31.1755 C.2     1  UNL1        0.2436
     26 O           4.4975   -0.7663   32.6533 O.2     1  UNL1       -0.2846
     27 C           3.5170   -0.5409   30.2579 C.ar    1  UNL1        0.2671
     28 N           3.6997    0.1872   28.9592 N.ar    1  UNL1       -0.2058
     29 C           2.3416    0.4439   28.3766 C.ar    1  UNL1        0.1189
     30 C           1.9035    1.1225   27.1127 C.ar    1  UNL1        0.0223
     31 C           0.4433    1.2317   26.7874 C.ar    1  UNL1        0.0018
     32 C          -0.5788    0.6624   27.7260 C.ar    1  UNL1        0.0032
     33 C          -0.1408   -0.0163   28.9900 C.ar    1  UNL1        0.0391
     34 C           1.3194   -0.1255   29.3153 C.ar    1  UNL1        0.1648
     35 O           2.0459   -0.7341   30.4779 O.2     1  UNL1       -0.4324
@<TRIPOS>BOND
     1    23    24    1
     2    22    24    1
     3    22     1    1
     4     1     2   am
     5     2     3    2
     6     5     2    1
     7     5     6    1
     8     6     7    1
     9     7    13    1
    10    13    14    2
    11    13    15    2
    12    13    16    1
    13    16    17   ar
    14    17    18   ar
    15    18    19   ar
    16    19    20   ar
    17    20    21   ar
    18     7     8    1
    19     8     9    1
    20     9    10   am
    21    10    11    1
    22    10    12    2
    23    22    25    1
    24    25    26    2
    25    25    27    1
    26    27    28   ar
    27    28    29   ar
    28    29    30   ar
    29    30    31   ar
    30    31    32   ar
    31    32    33   ar
    32    33    34   ar
    33    34    35   ar
    34     9     5    1
    35    35    27   ar
    36    21    16   ar
    37    34    29   ar
    38     1     4    1
@<TRIPOS>MOLECULE
*****
 35 38 0 0 0
SMALL
GASTEIGER

@<TRIPOS>ATOM
      1 N          -3.4859    2.8413   20.3837 N.am    1  UNL1       -0.2979
      2 C          -2.1005    3.4107   20.3033 C.2     1  UNL1        0.2409
      3 O          -1.8556    4.6840   19.5491 O.2     1  UNL1       -0.2733
      4 H          -3.6467    2.0056   20.8786 H       1  UNL1        0.1498
      5 C          -0.9600    2.7068   20.9770 C.3     1  UNL1        0.1536
      6 C          -0.2347    1.5025   20.4539 C.3     1  UNL1        0.0549
      7 C           0.8289    1.1350   21.4457 C.3     1  UNL1        0.1557
      8 C           0.7609    2.1122   22.5817 C.3     1  UNL1        0.1178
      9 N          -0.3448    3.0836   22.2921 N.am    1  UNL1       -0.2712
     10 C          -0.7619    4.2305   23.1643 C.2     1  UNL1        0.2265
     11 C          -0.0493    4.4856   24.4593 C.3     1  UNL1        0.0948
     12 O          -1.8915    5.1222   22.7415 O.2     1  UNL1       -0.2748
     13 S           1.7915   -0.0087   21.3230 S.O2    1  UNL1        0.0087
     14 O           0.9201   -0.6293   20.2716 O.2     1  UNL1       -0.1686
     15 O           2.6630    0.6117   22.3745 O.2     1  UNL1       -0.1686
     16 C           2.7541   -1.1526   21.2003 C.ar    1  UNL1        0.1057
     17 C           2.9445   -1.8340   19.8776 C.ar    1  UNL1        0.0183
     18 C           3.9071   -2.9779   19.7549 C.ar    1  UNL1        0.0013
     19 C           4.6793   -3.4403   20.9549 C.ar    1  UNL1        0.0001
     20 C           4.4889   -2.7588   22.2776 C.ar    1  UNL1        0.0013
     21 C           3.5263   -1.6150   22.4003 C.ar    1  UNL1        0.0183
     22 C          -4.6264    3.5453   19.7099 C.3     1  UNL1        0.1387
     23 C          -4.5819    4.9630   17.5332 C.3     1  UNL1        0.0022
     24 C          -4.6767    3.6293   18.2131 C.3     1  UNL1        0.0277
     25 C          -5.7165    4.1651   20.5330 C.2     1  UNL1        0.2436
     26 O          -6.9868    4.6178   19.8763 O.2     1  UNL1       -0.2846
     27 C          -5.5362    4.3322   22.0127 C.ar    1  UNL1        0.2671
     28 N          -6.2109    5.3595   22.8727 N.ar    1  UNL1       -0.2058
     29 C          -5.7413    5.1635   24.2838 C.ar    1  UNL1        0.1189
     30 C          -6.0677    5.8824   25.5591 C.ar    1  UNL1        0.0223
     31 C          -5.4291    5.4530   26.8466 C.ar    1  UNL1        0.0018
     32 C          -4.4642    4.3046   26.8588 C.ar    1  UNL1        0.0032
     33 C          -4.1378    3.5857   25.5834 C.ar    1  UNL1        0.0391
     34 C          -4.7764    4.0152   24.2959 C.ar    1  UNL1        0.1648
     35 O          -4.6496    3.5014   22.8923 O.2     1  UNL1       -0.4324
@<TRIPOS>BOND
     1    23    24    1
     2    22    24    1
     3    22     1    1
     4     1     2   am
     5     2     3    2
     6     5     2    1
     7     5     6    1
     8     6     7    1
     9     7    13    1
    10    13    14    2
    11    13    15    2
    12    13    16    1
    13    16    17   ar
    14    17    18   ar
    15    18    19   ar
    16    19    20   ar
    17    20    21   ar
    18     7     8    1
    19     8     9    1
    20     9    10   am
    21    10    11    1
    22    10    12    2
    23    22    25    1
    24    25    26    2
    25    25    27    1
    26    27    28   ar
    27    28    29   ar
    28    29    30   ar
    29    30    31   ar
    30    31    32   ar
    31    32    33   ar
    32    33    34   ar
    33    34    35   ar
    34     9     5    1
    35    35    27   ar
    36    21    16   ar
    37    34    29   ar
    38     1     4    1
@<TRIPOS>MOLECULE
*****
 35 38 0 0 0
SMALL
GASTEIGER

@<TRIPOS>ATOM
      1 N           2.0647   -0.9212   27.9176 N.am    1  UNL1       -0.2979
      2 C           3.0680   -0.2063   27.0620 C.2     1  UNL1        0.2409
      3 O           3.2362    1.2792   27.1855 O.2     1  UNL1       -0.2733
      4 H           1.9543   -1.8961   27.8365 H       1  UNL1        0.1498
      5 C           3.9033   -0.9768   26.0828 C.3     1  UNL1        0.1536
      6 C           3.6891   -1.0405   24.5995 C.3     1  UNL1        0.0549
      7 C           4.7528   -1.9219   24.0150 C.3     1  UNL1        0.1557
      8 C           5.6243   -2.4029   25.1370 C.3     1  UNL1        0.1178
      9 N           5.0994   -1.8188   26.4151 N.am    1  UNL1       -0.2712
     10 C           5.6702   -2.0382   27.7847 C.2     1  UNL1        0.2265
     11 C           6.8768   -2.9113   27.9634 C.3     1  UNL1        0.0948
     12 O           5.0344   -1.3846   28.9758 O.2     1  UNL1       -0.2748
     13 S           4.9162   -2.2624   22.5635 S.O2    1  UNL1        0.0087
     14 O           4.3882   -0.9099   22.1867 O.2     1  UNL1       -0.1686
     15 O           5.4442   -3.6150   22.9401 O.2     1  UNL1       -0.1686
     16 C           5.0796   -2.6030   21.1118 C.ar    1  UNL1        0.1057
     17 C           6.1698   -1.9580   20.3082 C.ar    1  UNL1        0.0183
     18 C           6.3332   -2.2986   18.8565 C.ar    1  UNL1        0.0013
     19 C           5.4064   -3.2841   18.2084 C.ar    1  UNL1        0.0001
     20 C           4.3163   -3.9290   19.0120 C.ar    1  UNL1        0.0013
     21 C           4.1529   -3.5885   20.4637 C.ar    1  UNL1        0.0183
     22 C           1.2294   -0.1507   28.8968 C.3     1  UNL1        0.1387
     23 C          -1.3368   -0.5499   28.8234 C.3     1  UNL1        0.0022
     24 C          -0.1460    0.3076   28.5119 C.3     1  UNL1        0.0277
     25 C           1.7697    0.1615   30.2609 C.2     1  UNL1        0.2436
     26 O           2.4436   -0.9110   31.0642 O.2     1  UNL1       -0.2846
     27 C           1.6359    1.5464   30.8216 C.ar    1  UNL1        0.2671
     28 N           0.5388    2.0306   31.7226 N.ar    1  UNL1       -0.2058
     29 C           0.8007    3.4736   32.0377 C.ar    1  UNL1        0.1189
     30 C           0.0554    4.4691   32.8764 C.ar    1  UNL1        0.0223
     31 C           0.5691    5.8721   33.0089 C.ar    1  UNL1        0.0018
     32 C           1.8281    6.2797   32.3025 C.ar    1  UNL1        0.0032
     33 C           2.5733    5.2842   31.4638 C.ar    1  UNL1        0.0391
     34 C           2.0597    3.8812   31.3313 C.ar    1  UNL1        0.1648
     35 O           2.5758    2.6901   30.5798 O.2     1  UNL1       -0.4324
@<TRIPOS>BOND
     1    23    24    1
     2    22    24    1
     3    22     1    1
     4     1     2   am
     5     2     3    2
     6     5     2    1
     7     5     6    1
     8     6     7    1
     9     7    13    1
    10    13    14    2
    11    13    15    2
    12    13    16    1
    13    16    17   ar
    14    17    18   ar
    15    18    19   ar
    16    19    20   ar
    17    20    21   ar
    18     7     8    1
    19     8     9    1
    20     9    10   am
    21    10    11    1
    22    10    12    2
    23    22    25    1
    24    25    26    2
    25    25    27    1
    26    27    28   ar
    27    28    29   ar
    28    29    30   ar
    29    30    31   ar
    30    31    32   ar
    31    32    33   ar
    32    33    34   ar
    33    34    35   ar
    34     9     5    1
    35    35    27   ar
    36    21    16   ar
    37    34    29   ar
    38     1     4    1
