@<TRIPOS>MOLECULE
*****
 25 27 0 0 0
SMALL
GASTEIGER

@<TRIPOS>ATOM
      1 C          -7.9597  -19.2881   21.6331 C.2     1  UNL1       -0.0246
      2 C          -8.6020  -19.6109   20.3166 C.2     1  UNL1       -0.0421
      3 C          -7.5190  -20.0077   19.3575 C.3     1  UNL1        0.0480
      4 C          -6.2075  -19.9302   20.0814 C.ar    1  UNL1       -0.0184
      5 C          -4.8005  -20.2071   19.6415 C.ar    1  UNL1       -0.0040
      6 C          -3.6658  -20.0393   20.6081 C.ar    1  UNL1       -0.0003
      7 C          -3.9382  -19.5945   22.0145 C.ar    1  UNL1       -0.0000
      8 C          -5.3452  -19.3176   22.4543 C.ar    1  UNL1       -0.0006
      9 C          -6.4799  -19.4854   21.4878 C.ar    1  UNL1       -0.0079
     10 C          -9.6242  -19.7768   23.5673 C.3     1  UNL1        0.0111
     11 C          -8.6722  -18.8456   22.8767 C.3     1  UNL1        0.0634
     12 C          -8.4329  -17.4721   23.4298 C.ar    1  UNL1        0.0818
     13 C          -9.0655  -17.0654   24.7277 C.ar    1  UNL1        0.1139
     14 N          -8.8260  -15.6918   25.2808 N.ar    1  UNL1       -0.2394
     15 C          -7.9540  -14.7249   24.5361 C.ar    1  UNL1        0.1195
     16 C          -7.3214  -15.1315   23.2382 C.ar    1  UNL1        0.1191
     17 N          -7.5608  -16.5051   22.6851 N.ar    1  UNL1       -0.2446
     18 C         -10.0695  -19.5479   20.0124 C.3     1  UNL1        0.0394
     19 C         -10.7206  -18.2267   19.7287 C.3     1  UNL1        0.0765
     20 N         -11.3247  -17.4324   20.8485 N.3     1  UNL1       -0.2703
     21 C         -10.9108  -16.0070   21.0653 C.3     1  UNL1        0.0897
     22 C         -12.3426  -18.0634   21.7516 C.3     1  UNL1        0.0885
     23 C         -12.6487  -17.4459   23.0839 C.3     1  UNL1        0.1227
     24 C         -13.7376  -18.0171   23.9429 C.1     1  UNL1        0.0746
     25 N         -14.8265  -18.5884   24.8020 N.1     1  UNL1       -0.1958
@<TRIPOS>BOND
     1    11    10    1
     2    11     1    1
     3     1     2    2
     4     2    18    1
     5    18    19    1
     6    19    20    1
     7    20    21    1
     8    20    22    1
     9    22    23    1
    10    23    24    1
    11    24    25    3
    12     2     3    1
    13     3     4    1
    14     4     5   ar
    15     5     6   ar
    16     6     7   ar
    17     7     8   ar
    18     8     9   ar
    19    11    12    1
    20    12    13   ar
    21    13    14   ar
    22    14    15   ar
    23    15    16   ar
    24    16    17   ar
    25     9     1    1
    26    17    12   ar
    27     9     4   ar
@<TRIPOS>MOLECULE
*****
 25 27 0 0 0
SMALL
GASTEIGER

@<TRIPOS>ATOM
      1 C          -6.4361  -18.6599   21.6232 C.2     1  UNL1       -0.0246
      2 C          -7.8955  -18.5189   21.3063 C.2     1  UNL1       -0.0421
      3 C          -8.4504  -17.4164   22.1586 C.3     1  UNL1        0.0480
      4 C          -7.3341  -16.8761   23.0023 C.ar    1  UNL1       -0.0184
      5 C          -7.2904  -15.7835   24.0292 C.ar    1  UNL1       -0.0040
      6 C          -6.0017  -15.4595   24.7251 C.ar    1  UNL1       -0.0003
      7 C          -4.7568  -16.2280   24.3941 C.ar    1  UNL1       -0.0000
      8 C          -4.8005  -17.3206   23.3673 C.ar    1  UNL1       -0.0006
      9 C          -6.0892  -17.6446   22.6714 C.ar    1  UNL1       -0.0079
     10 C          -5.9163  -21.0668   20.7942 C.3     1  UNL1        0.0111
     11 C          -5.4898  -19.6435   21.0011 C.3     1  UNL1        0.0634
     12 C          -4.1171  -19.2041   20.5859 C.ar    1  UNL1        0.0818
     13 C          -2.9097  -19.7559   21.2842 C.ar    1  UNL1        0.1139
     14 N          -1.5370  -19.3164   20.8689 N.ar    1  UNL1       -0.2394
     15 C          -1.3716  -18.3252   19.7554 C.ar    1  UNL1        0.1195
     16 C          -2.5790  -17.7733   19.0570 C.ar    1  UNL1        0.1191
     17 N          -3.9517  -18.2128   19.4723 N.ar    1  UNL1       -0.2446
     18 C          -8.6647  -19.3368   20.3116 C.3     1  UNL1        0.0394
     19 C         -10.0867  -18.9837   19.9900 C.3     1  UNL1        0.0765
     20 N         -11.1346  -19.0414   21.0617 N.3     1  UNL1       -0.2703
     21 C         -11.0655  -20.1003   22.1220 C.3     1  UNL1        0.0897
     22 C         -12.2515  -18.0403   21.0732 C.3     1  UNL1        0.0885
     23 C         -11.9465  -16.5778   21.2067 C.3     1  UNL1        0.1227
     24 C         -11.3818  -15.8200   20.0419 C.1     1  UNL1        0.0746
     25 N         -10.8172  -15.0621   18.8770 N.1     1  UNL1       -0.1958
@<TRIPOS>BOND
     1    11    10    1
     2    11     1    1
     3     1     2    2
     4     2    18    1
     5    18    19    1
     6    19    20    1
     7    20    21    1
     8    20    22    1
     9    22    23    1
    10    23    24    1
    11    24    25    3
    12     2     3    1
    13     3     4    1
    14     4     5   ar
    15     5     6   ar
    16     6     7   ar
    17     7     8   ar
    18     8     9   ar
    19    11    12    1
    20    12    13   ar
    21    13    14   ar
    22    14    15   ar
    23    15    16   ar
    24    16    17   ar
    25     9     1    1
    26    17    12   ar
    27     9     4   ar
@<TRIPOS>MOLECULE
*****
 25 27 0 0 0
SMALL
GASTEIGER

@<TRIPOS>ATOM
      1 C          -8.4174  -17.0805   23.8764 C.2     1  UNL1       -0.0246
      2 C          -9.5081  -17.9380   24.4465 C.2     1  UNL1       -0.0421
      3 C          -9.5297  -17.7334   25.9323 C.3     1  UNL1        0.0480
      4 C          -8.4523  -16.7495   26.2805 C.ar    1  UNL1       -0.0184
      5 C          -8.0084  -16.1689   27.5903 C.ar    1  UNL1       -0.0040
      6 C          -6.8771  -15.1847   27.6295 C.ar    1  UNL1       -0.0003
      7 C          -6.1897  -14.7812   26.3588 C.ar    1  UNL1       -0.0000
      8 C          -6.6336  -15.3618   25.0490 C.ar    1  UNL1       -0.0006
      9 C          -7.7649  -16.3460   25.0098 C.ar    1  UNL1       -0.0079
     10 C          -8.4691  -15.7794   21.6281 C.3     1  UNL1        0.0111
     11 C          -8.0447  -16.9759   22.4272 C.3     1  UNL1        0.0634
     12 C          -7.2476  -18.0675   21.7770 C.ar    1  UNL1        0.0818
     13 C          -7.8898  -18.9587   20.7555 C.ar    1  UNL1        0.1139
     14 N          -7.0926  -20.0504   20.1054 N.ar    1  UNL1       -0.2394
     15 C          -5.6533  -20.2510   20.4767 C.ar    1  UNL1        0.1195
     16 C          -5.0110  -19.3599   21.4983 C.ar    1  UNL1        0.1191
     17 N          -5.8081  -18.2682   22.1484 N.ar    1  UNL1       -0.2446
     18 C         -10.4176  -18.8414   23.6676 C.3     1  UNL1        0.0394
     19 C         -11.8510  -18.9993   24.0802 C.3     1  UNL1        0.0765
     20 N         -12.8738  -17.9951   23.6379 N.3     1  UNL1       -0.2703
     21 C         -14.2676  -18.0515   24.1894 C.3     1  UNL1        0.0897
     22 C         -12.5027  -16.9345   22.6442 C.3     1  UNL1        0.0885
     23 C         -12.4898  -17.2518   21.1782 C.3     1  UNL1        0.1227
     24 C         -11.8143  -16.3210   20.2153 C.1     1  UNL1        0.0746
     25 N         -11.1389  -15.3902   19.2523 N.1     1  UNL1       -0.1958
@<TRIPOS>BOND
     1    11    10    1
     2    11     1    1
     3     1     2    2
     4     2    18    1
     5    18    19    1
     6    19    20    1
     7    20    21    1
     8    20    22    1
     9    22    23    1
    10    23    24    1
    11    24    25    3
    12     2     3    1
    13     3     4    1
    14     4     5   ar
    15     5     6   ar
    16     6     7   ar
    17     7     8   ar
    18     8     9   ar
    19    11    12    1
    20    12    13   ar
    21    13    14   ar
    22    14    15   ar
    23    15    16   ar
    24    16    17   ar
    25     9     1    1
    26    17    12   ar
    27     9     4   ar
@<TRIPOS>MOLECULE
*****
 25 27 0 0 0
SMALL
GASTEIGER

@<TRIPOS>ATOM
      1 C          -8.3249  -17.2721   23.6963 C.2     1  UNL1       -0.0246
      2 C          -7.1048  -17.3768   22.8300 C.2     1  UNL1       -0.0421
      3 C          -5.9827  -16.6605   23.5212 C.3     1  UNL1        0.0480
      4 C          -6.5092  -16.1132   24.8148 C.ar    1  UNL1       -0.0184
      5 C          -5.8576  -15.3196   25.9081 C.ar    1  UNL1       -0.0040
      6 C          -6.6535  -14.9038   27.1096 C.ar    1  UNL1       -0.0003
      7 C          -8.1011  -15.2818   27.2178 C.ar    1  UNL1       -0.0000
      8 C          -8.7527  -16.0755   26.1245 C.ar    1  UNL1       -0.0006
      9 C          -7.9568  -16.4912   24.9230 C.ar    1  UNL1       -0.0079
     10 C         -10.2071  -18.9895   24.2043 C.3     1  UNL1        0.0111
     11 C          -9.6759  -17.8473   23.3898 C.3     1  UNL1        0.0634
     12 C         -10.4957  -17.2805   22.2689 C.ar    1  UNL1        0.0818
     13 C         -11.8470  -17.8551   21.9629 C.ar    1  UNL1        0.1139
     14 N         -12.6668  -17.2882   20.8420 N.ar    1  UNL1       -0.2394
     15 C         -12.1353  -16.1466   20.0269 C.ar    1  UNL1        0.1195
     16 C         -10.7840  -15.5719   20.3329 C.ar    1  UNL1        0.1191
     17 N          -9.9642  -16.1388   21.4538 N.ar    1  UNL1       -0.2446
     18 C          -7.0215  -18.0750   21.5050 C.3     1  UNL1        0.0394
     19 C          -6.2610  -19.3620   21.3820 C.3     1  UNL1        0.0765
     20 N          -4.7710  -19.3393   21.2105 N.3     1  UNL1       -0.2703
     21 C          -3.8774  -19.3345   22.4153 C.3     1  UNL1        0.0897
     22 C          -4.1747  -19.3214   19.8343 C.3     1  UNL1        0.0885
     23 C          -3.2187  -18.2329   19.4453 C.3     1  UNL1        0.1227
     24 C          -1.7415  -18.4407   19.6020 C.1     1  UNL1        0.0746
     25 N          -0.2642  -18.6485   19.7588 N.1     1  UNL1       -0.1958
@<TRIPOS>BOND
     1    11    10    1
     2    11     1    1
     3     1     2    2
     4     2    18    1
     5    18    19    1
     6    19    20    1
     7    20    21    1
     8    20    22    1
     9    22    23    1
    10    23    24    1
    11    24    25    3
    12     2     3    1
    13     3     4    1
    14     4     5   ar
    15     5     6   ar
    16     6     7   ar
    17     7     8   ar
    18     8     9   ar
    19    11    12    1
    20    12    13   ar
    21    13    14   ar
    22    14    15   ar
    23    15    16   ar
    24    16    17   ar
    25     9     1    1
    26    17    12   ar
    27     9     4   ar
@<TRIPOS>MOLECULE
*****
 25 27 0 0 0
SMALL
GASTEIGER

@<TRIPOS>ATOM
      1 C          -8.7098  -17.1072   22.5304 C.2     1  UNL1       -0.0246
      2 C          -8.1316  -18.4491   22.1914 C.2     1  UNL1       -0.0421
      3 C          -9.2591  -19.3493   21.7810 C.3     1  UNL1        0.0480
      4 C         -10.5341  -18.5638   21.8663 C.ar    1  UNL1       -0.0184
      5 C         -11.9603  -18.9313   21.5821 C.ar    1  UNL1       -0.0040
      6 C         -13.0471  -17.9130   21.7611 C.ar    1  UNL1       -0.0003
      7 C         -12.7076  -16.5273   22.2242 C.ar    1  UNL1       -0.0000
      8 C         -11.2814  -16.1598   22.5084 C.ar    1  UNL1       -0.0006
      9 C         -10.1946  -17.1781   22.3295 C.ar    1  UNL1       -0.0079
     10 C          -7.5689  -14.8319   22.0093 C.3     1  UNL1        0.0111
     11 C          -7.9386  -15.9054   22.9896 C.3     1  UNL1        0.0634
     12 C          -7.5372  -15.7770   24.4291 C.ar    1  UNL1        0.0818
     13 C          -6.0942  -15.5851   24.7911 C.ar    1  UNL1        0.1139
     14 N          -5.6928  -15.4567   26.2307 N.ar    1  UNL1       -0.2394
     15 C          -6.7343  -15.5201   27.3083 C.ar    1  UNL1        0.1195
     16 C          -8.1773  -15.7119   26.9464 C.ar    1  UNL1        0.1191
     17 N          -8.5787  -15.8404   25.5068 N.ar    1  UNL1       -0.2446
     18 C          -6.6807  -18.8249   22.2522 C.3     1  UNL1        0.0394
     19 C          -5.9683  -19.2690   21.0091 C.3     1  UNL1        0.0765
     20 N          -4.4762  -19.1463   20.9154 N.3     1  UNL1       -0.2703
     21 C          -3.6468  -19.1092   22.1647 C.3     1  UNL1        0.0897
     22 C          -3.8136  -19.0608   19.5725 C.3     1  UNL1        0.0885
     23 C          -2.7817  -18.0040   19.3112 C.3     1  UNL1        0.1227
     24 C          -1.3294  -18.3009   19.5404 C.1     1  UNL1        0.0746
     25 N           0.1230  -18.5979   19.7695 N.1     1  UNL1       -0.1958
@<TRIPOS>BOND
     1    11    10    1
     2    11     1    1
     3     1     2    2
     4     2    18    1
     5    18    19    1
     6    19    20    1
     7    20    21    1
     8    20    22    1
     9    22    23    1
    10    23    24    1
    11    24    25    3
    12     2     3    1
    13     3     4    1
    14     4     5   ar
    15     5     6   ar
    16     6     7   ar
    17     7     8   ar
    18     8     9   ar
    19    11    12    1
    20    12    13   ar
    21    13    14   ar
    22    14    15   ar
    23    15    16   ar
    24    16    17   ar
    25     9     1    1
    26    17    12   ar
    27     9     4   ar
@<TRIPOS>MOLECULE
*****
 25 27 0 0 0
SMALL
GASTEIGER

@<TRIPOS>ATOM
      1 C          -7.4853  -18.1383   22.1194 C.2     1  UNL1       -0.0246
      2 C          -6.0874  -18.6741   22.0255 C.2     1  UNL1       -0.0421
      3 C          -5.2249  -17.8863   22.9666 C.3     1  UNL1        0.0480
      4 C          -6.0898  -16.8636   23.6420 C.ar    1  UNL1       -0.0184
      5 C          -5.7857  -15.8107   24.6661 C.ar    1  UNL1       -0.0040
      6 C          -6.8786  -14.9135   25.1666 C.ar    1  UNL1       -0.0003
      7 C          -8.2756  -15.0692   24.6430 C.ar    1  UNL1       -0.0000
      8 C          -8.5797  -16.1221   23.6189 C.ar    1  UNL1       -0.0006
      9 C          -7.4868  -17.0193   23.1184 C.ar    1  UNL1       -0.0079
     10 C          -8.4740  -19.4205   20.0875 C.3     1  UNL1        0.0111
     11 C          -8.6732  -18.6343   21.3494 C.3     1  UNL1        0.0634
     12 C         -10.0602  -18.3441   21.8411 C.ar    1  UNL1        0.0818
     13 C         -10.9637  -17.4453   21.0500 C.ar    1  UNL1        0.1139
     14 N         -12.3508  -17.1551   21.5418 N.ar    1  UNL1       -0.2394
     15 C         -12.8343  -17.7637   22.8246 C.ar    1  UNL1        0.1195
     16 C         -11.9308  -18.6625   23.6158 C.ar    1  UNL1        0.1191
     17 N         -10.5438  -18.9526   23.1240 N.ar    1  UNL1       -0.2446
     18 C          -5.6320  -19.8000   21.1452 C.3     1  UNL1        0.0394
     19 C          -4.8447  -19.5088   19.9021 C.3     1  UNL1        0.0765
     20 N          -3.3599  -19.3119   19.9836 N.3     1  UNL1       -0.2703
     21 C          -2.6209  -18.6949   18.8333 C.3     1  UNL1        0.0897
     22 C          -2.6141  -19.7320   21.2154 C.3     1  UNL1        0.0885
     23 C          -1.8312  -18.7209   21.9995 C.3     1  UNL1        0.1227
     24 C          -2.1693  -17.2635   21.8925 C.1     1  UNL1        0.0746
     25 N          -2.5074  -15.8059   21.7856 N.1     1  UNL1       -0.1958
@<TRIPOS>BOND
     1    11    10    1
     2    11     1    1
     3     1     2    2
     4     2    18    1
     5    18    19    1
     6    19    20    1
     7    20    21    1
     8    20    22    1
     9    22    23    1
    10    23    24    1
    11    24    25    3
    12     2     3    1
    13     3     4    1
    14     4     5   ar
    15     5     6   ar
    16     6     7   ar
    17     7     8   ar
    18     8     9   ar
    19    11    12    1
    20    12    13   ar
    21    13    14   ar
    22    14    15   ar
    23    15    16   ar
    24    16    17   ar
    25     9     1    1
    26    17    12   ar
    27     9     4   ar
@<TRIPOS>MOLECULE
*****
 25 27 0 0 0
SMALL
GASTEIGER

@<TRIPOS>ATOM
      1 C          -7.5320  -18.4601   21.8456 C.2     1  UNL1       -0.0246
      2 C          -6.0976  -18.8814   21.9678 C.2     1  UNL1       -0.0421
      3 C          -5.8091  -19.8665   20.8740 C.3     1  UNL1        0.0480
      4 C          -7.0652  -20.0539   20.0758 C.ar    1  UNL1       -0.0184
      5 C          -7.3770  -20.9038   18.8798 C.ar    1  UNL1       -0.0040
      6 C          -8.7535  -20.8844   18.2843 C.ar    1  UNL1       -0.0003
      7 C          -9.8183  -20.0152   18.8848 C.ar    1  UNL1       -0.0000
      8 C          -9.5066  -19.1653   20.0808 C.ar    1  UNL1       -0.0006
      9 C          -8.1300  -19.1847   20.6763 C.ar    1  UNL1       -0.0079
     10 C          -7.5792  -16.1957   23.1188 C.3     1  UNL1        0.0111
     11 C          -8.2435  -17.4852   22.7364 C.3     1  UNL1        0.0634
     12 C          -9.6192  -17.7996   23.2447 C.ar    1  UNL1        0.0818
     13 C         -10.7902  -16.9750   22.7990 C.ar    1  UNL1        0.1139
     14 N         -12.1659  -17.2895   23.3075 N.ar    1  UNL1       -0.2394
     15 C         -12.3707  -18.4286   24.2616 C.ar    1  UNL1        0.1195
     16 C         -11.1997  -19.2533   24.7073 C.ar    1  UNL1        0.1191
     17 N          -9.8240  -18.9388   24.1989 N.ar    1  UNL1       -0.2446
     18 C          -5.1228  -18.4019   23.0022 C.3     1  UNL1        0.0394
     19 C          -4.2948  -17.1785   22.7424 C.3     1  UNL1        0.0765
     20 N          -2.9019  -17.3162   22.2030 N.3     1  UNL1       -0.2703
     21 C          -2.1271  -16.0946   21.8063 C.3     1  UNL1        0.0897
     22 C          -2.2839  -18.6755   22.0603 C.3     1  UNL1        0.0885
     23 C          -2.3320  -19.3865   20.7404 C.3     1  UNL1        0.1227
     24 C          -1.9489  -18.6622   19.4840 C.1     1  UNL1        0.0746
     25 N          -1.5656  -17.9379   18.2275 N.1     1  UNL1       -0.1958
@<TRIPOS>BOND
     1    11    10    1
     2    11     1    1
     3     1     2    2
     4     2    18    1
     5    18    19    1
     6    19    20    1
     7    20    21    1
     8    20    22    1
     9    22    23    1
    10    23    24    1
    11    24    25    3
    12     2     3    1
    13     3     4    1
    14     4     5   ar
    15     5     6   ar
    16     6     7   ar
    17     7     8   ar
    18     8     9   ar
    19    11    12    1
    20    12    13   ar
    21    13    14   ar
    22    14    15   ar
    23    15    16   ar
    24    16    17   ar
    25     9     1    1
    26    17    12   ar
    27     9     4   ar
@<TRIPOS>MOLECULE
*****
 25 27 0 0 0
SMALL
GASTEIGER

@<TRIPOS>ATOM
      1 C           4.0965   -2.1631   19.4038 C.2     1  UNL1       -0.0246
      2 C           5.1292   -1.6818   18.4283 C.2     1  UNL1       -0.0421
      3 C           4.6473   -0.3869   17.8444 C.3     1  UNL1        0.0480
      4 C           3.3167   -0.0679   18.4592 C.ar    1  UNL1       -0.0184
      5 C           2.3712    1.0803   18.2658 C.ar    1  UNL1       -0.0040
      6 C           1.0852    1.1307   19.0363 C.ar    1  UNL1       -0.0003
      7 C           0.7447    0.0329   20.0001 C.ar    1  UNL1       -0.0000
      8 C           1.6903   -1.1153   20.1934 C.ar    1  UNL1       -0.0006
      9 C           2.9763   -1.1657   19.4229 C.ar    1  UNL1       -0.0079
     10 C           3.6200   -4.7036   19.6678 C.3     1  UNL1        0.0111
     11 C           4.1708   -3.4211   20.2175 C.3     1  UNL1        0.0634
     12 C           4.7959   -3.3967   21.5808 C.ar    1  UNL1        0.0818
     13 C           4.2314   -2.5077   22.6489 C.ar    1  UNL1        0.1139
     14 N           4.8565   -2.4834   24.0122 N.ar    1  UNL1       -0.2394
     15 C           6.0461   -3.3481   24.3075 C.ar    1  UNL1        0.1195
     16 C           6.6106   -4.2372   23.2393 C.ar    1  UNL1        0.1191
     17 N           5.9855   -4.2615   21.8760 N.ar    1  UNL1       -0.2446
     18 C           6.4176   -2.3738   18.0951 C.3     1  UNL1        0.0394
     19 C           7.7180   -1.8205   18.5978 C.3     1  UNL1        0.0765
     20 N           8.1574   -2.0985   20.0048 N.3     1  UNL1       -0.2703
     21 C           9.0628   -3.2595   20.2923 C.3     1  UNL1        0.0897
     22 C           7.6916   -1.2156   21.1243 C.3     1  UNL1        0.0885
     23 C           7.2112    0.1752   20.8325 C.3     1  UNL1        0.1227
     24 C           5.8542    0.6131   21.2979 C.1     1  UNL1        0.0746
     25 N           4.4971    1.0511   21.7634 N.1     1  UNL1       -0.1958
@<TRIPOS>BOND
     1    11    10    1
     2    11     1    1
     3     1     2    2
     4     2    18    1
     5    18    19    1
     6    19    20    1
     7    20    21    1
     8    20    22    1
     9    22    23    1
    10    23    24    1
    11    24    25    3
    12     2     3    1
    13     3     4    1
    14     4     5   ar
    15     5     6   ar
    16     6     7   ar
    17     7     8   ar
    18     8     9   ar
    19    11    12    1
    20    12    13   ar
    21    13    14   ar
    22    14    15   ar
    23    15    16   ar
    24    16    17   ar
    25     9     1    1
    26    17    12   ar
    27     9     4   ar
@<TRIPOS>MOLECULE
*****
 25 27 0 0 0
SMALL
GASTEIGER

@<TRIPOS>ATOM
      1 C          -8.7259  -17.0773   22.7654 C.2     1  UNL1       -0.0246
      2 C          -8.1006  -18.4090   22.4726 C.2     1  UNL1       -0.0421
      3 C          -9.2023  -19.3841   22.1805 C.3     1  UNL1        0.0480
      4 C         -10.5084  -18.6552   22.2927 C.ar    1  UNL1       -0.0184
      5 C         -11.9278  -19.1054   22.1125 C.ar    1  UNL1       -0.0040
      6 C         -13.0528  -18.1299   22.2937 C.ar    1  UNL1       -0.0003
      7 C         -12.7583  -16.7042   22.6552 C.ar    1  UNL1       -0.0000
      8 C         -11.3389  -16.2540   22.8354 C.ar    1  UNL1       -0.0006
      9 C         -10.2140  -17.2295   22.6542 C.ar    1  UNL1       -0.0079
     10 C          -7.7404  -14.7820   22.0508 C.3     1  UNL1        0.0111
     11 C          -7.9919  -15.8151   23.1090 C.3     1  UNL1        0.0634
     12 C          -7.5094  -15.5858   24.5105 C.ar    1  UNL1        0.0818
     13 C          -8.4897  -15.5537   25.6454 C.ar    1  UNL1        0.1139
     14 N          -8.0071  -15.3245   27.0471 N.ar    1  UNL1       -0.2394
     15 C          -6.5443  -15.1273   27.3139 C.ar    1  UNL1        0.1195
     16 C          -5.5639  -15.1594   26.1790 C.ar    1  UNL1        0.1191
     17 N          -6.0465  -15.3887   24.7774 N.ar    1  UNL1       -0.2446
     18 C          -6.6316  -18.7122   22.4720 C.3     1  UNL1        0.0394
     19 C          -6.1487  -20.0822   22.0981 C.3     1  UNL1        0.0765
     20 N          -5.5328  -20.3187   20.7510 N.3     1  UNL1       -0.2703
     21 C          -4.5398  -19.3397   20.1981 C.3     1  UNL1        0.0897
     22 C          -5.9099  -21.5340   19.9568 C.3     1  UNL1        0.0885
     23 C          -7.1988  -21.5587   19.1900 C.3     1  UNL1        0.1227
     24 C          -8.0048  -20.3029   19.0373 C.1     1  UNL1        0.0746
     25 N          -8.8109  -19.0471   18.8846 N.1     1  UNL1       -0.1958
@<TRIPOS>BOND
     1    11    10    1
     2    11     1    1
     3     1     2    2
     4     2    18    1
     5    18    19    1
     6    19    20    1
     7    20    21    1
     8    20    22    1
     9    22    23    1
    10    23    24    1
    11    24    25    3
    12     2     3    1
    13     3     4    1
    14     4     5   ar
    15     5     6   ar
    16     6     7   ar
    17     7     8   ar
    18     8     9   ar
    19    11    12    1
    20    12    13   ar
    21    13    14   ar
    22    14    15   ar
    23    15    16   ar
    24    16    17   ar
    25     9     1    1
    26    17    12   ar
    27     9     4   ar
