@<TRIPOS>MOLECULE
*****
 44 49 0 0 0
SMALL
GASTEIGER

@<TRIPOS>ATOM
      1 N           2.8732    0.9082   31.4815 N.am    1  UNL1       -0.2222
      2 C           2.3033    0.8807   30.0942 C.2     1  UNL1        0.3219
      3 O           2.6889   -0.0717   29.0014 O.2     1  UNL1       -0.2512
      4 N           1.2802    1.9729   29.9916 N.am    1  UNL1       -0.1907
      5 C           1.2178    2.6754   31.3155 C.2     1  UNL1        0.2529
      6 O           0.3273    3.8326   31.6584 O.2     1  UNL1       -0.2724
      7 C           2.2023    2.0174   32.2363 C.3     1  UNL1        0.1391
      8 C           3.2217    1.2634   33.0378 C.3     1  UNL1        0.0449
      9 C           3.4884    1.6472   34.4631 C.3     1  UNL1        0.0746
     10 N           2.7358    2.7849   35.0869 N.3     1  UNL1       -0.2676
     11 C           1.7164    3.5389   34.2855 C.3     1  UNL1        0.0746
     12 C           1.4497    3.1551   32.8602 C.3     1  UNL1        0.0449
     13 C           6.4332   -0.5656   32.4323 C.ar    1  UNL1        0.2293
     14 C           5.3778    0.3545   31.8943 C.ar    1  UNL1        0.0924
     15 C           3.9286   -0.0119   32.0195 C.ar    1  UNL1        0.1453
     16 N           3.5349   -1.2984   32.6828 N.ar    1  UNL1       -0.2084
     17 C           4.5902   -2.2185   33.2208 C.ar    1  UNL1        0.2027
     18 N           6.0395   -1.8521   33.0955 N.ar    1  UNL1       -0.1892
     19 C           8.9379   -1.1223   32.8398 C.3     1  UNL1        0.2542
     20 O           7.8824   -0.1993   32.3070 O.3     1  UNL1       -0.4560
     21 C           0.4631    2.3044   28.7783 C.ar    1  UNL1        0.0622
     22 C          -0.4267    1.2635   28.1660 C.ar    1  UNL1        0.0154
     23 C          -1.2438    1.5950   26.9526 C.ar    1  UNL1        0.0014
     24 C          -1.1712    2.9674   26.3515 C.ar    1  UNL1        0.0022
     25 C          -0.2814    4.0083   26.9638 C.ar    1  UNL1        0.0014
     26 C           0.5357    3.6767   28.1772 C.ar    1  UNL1        0.0154
     27 C          -1.9884    3.2989   25.1380 C.ar    1  UNL1        0.0275
     28 C          -1.3394    3.3455   23.7865 C.ar    1  UNL1        0.0023
     29 C          -2.1566    3.6770   22.5731 C.ar    1  UNL1        0.0013
     30 C          -3.6228    3.9618   22.7113 C.ar    1  UNL1        0.0162
     31 C          -4.2718    3.9152   24.0628 C.ar    1  UNL1        0.0308
     32 C          -3.4547    3.5837   25.2762 C.ar    1  UNL1        0.1401
     33 F          -4.1037    3.5371   26.6277 F       1  UNL1       -0.2042
     34 C          -4.4400    4.2933   21.4979 C.2     1  UNL1        0.0729
     35 O          -5.0861    5.6413   21.3742 O.co2   1  UNL1       -0.5446
     36 O          -4.6109    3.2767   20.4082 O.co2   1  UNL1       -0.5446
     37 C           3.0026    3.1687   36.5123 C.3     1  UNL1        0.1183
     38 C           2.2437    2.5043   37.6225 C.ar    1  UNL1        0.0712
     39 N           0.9587    3.1014   38.1148 N.ar    1  UNL1       -0.2471
     40 C           0.1999    2.4369   39.2251 C.ar    1  UNL1        0.0985
     41 C           0.7259    1.1754   39.8430 C.ar    1  UNL1        0.0203
     42 C           2.0109    0.5783   39.3507 C.ar    1  UNL1       -0.0015
     43 C           2.7698    1.2427   38.2405 C.ar    1  UNL1       -0.0069
     44 C           4.0548    0.6457   37.7482 C.3     1  UNL1        0.0323
@<TRIPOS>UNITY_ATOM_ATTR
35 1
charge -1
@<TRIPOS>BOND
     1    19    20    1
     2    20    13    1
     3    13    14   ar
     4    14    15   ar
     5    15     1    1
     6     1     2   am
     7     2     3    2
     8     2     4   am
     9     4    21    1
    10    21    22   ar
    11    22    23   ar
    12    23    24   ar
    13    24    27    1
    14    27    28   ar
    15    28    29   ar
    16    29    30   ar
    17    30    34    1
    18    34    35   ar
    19    34    36   ar
    20    30    31   ar
    21    31    32   ar
    22    32    33    1
    23    24    25   ar
    24    25    26   ar
    25     4     5   am
    26     5     6    2
    27     5     7    1
    28     7     8    1
    29     8     9    1
    30     9    10    1
    31    10    37    1
    32    37    38    1
    33    38    39   ar
    34    39    40   ar
    35    40    41   ar
    36    41    42   ar
    37    42    43   ar
    38    43    44    1
    39    10    11    1
    40    11    12    1
    41    15    16   ar
    42    16    17   ar
    43    17    18   ar
    44    18    13   ar
    45     7     1    1
    46    43    38   ar
    47    26    21   ar
    48    12     7    1
    49    32    27   ar
@<TRIPOS>MOLECULE
*****
 44 49 0 0 0
SMALL
GASTEIGER

@<TRIPOS>ATOM
      1 N           3.2692   -0.4937   22.0961 N.am    1  UNL1       -0.2222
      2 C           2.0117    0.3212   22.1668 C.2     1  UNL1        0.3219
      3 O           1.1542    0.7218   21.0031 O.2     1  UNL1       -0.2512
      4 N           1.7625    0.6651   23.6054 N.am    1  UNL1       -0.1907
      5 C           2.8658    0.0628   24.4239 C.2     1  UNL1        0.2529
      6 O           3.0124    0.1596   25.9135 O.2     1  UNL1       -0.2724
      7 C           3.7970   -0.6534   23.4911 C.3     1  UNL1        0.1391
      8 C           4.6334   -1.3238   22.4418 C.3     1  UNL1        0.0449
      9 C           5.8745   -2.0688   22.8349 C.3     1  UNL1        0.0746
     10 N           6.2792   -2.1435   24.2774 N.3     1  UNL1       -0.2676
     11 C           5.4428   -1.4731   25.3267 C.3     1  UNL1        0.0746
     12 C           4.2017   -0.7281   24.9335 C.3     1  UNL1        0.0449
     13 C           4.1175   -2.9711   19.1140 C.ar    1  UNL1        0.2293
     14 C           3.4970   -2.4137   20.3608 C.ar    1  UNL1        0.0924
     15 C           3.8897   -1.0510   20.8494 C.ar    1  UNL1        0.1453
     16 N           4.9030   -0.2457   20.0913 N.ar    1  UNL1       -0.2084
     17 C           5.5235   -0.8029   18.8447 C.ar    1  UNL1        0.2027
     18 N           5.1308   -2.1657   18.3560 N.ar    1  UNL1       -0.1892
     19 C           4.6817   -5.4816   18.7554 C.3     1  UNL1        0.2542
     20 O           3.7249   -4.3337   18.6253 O.3     1  UNL1       -0.4560
     21 C           0.6120    1.4700   24.1330 C.ar    1  UNL1        0.0622
     22 C           0.1275    1.2554   25.5362 C.ar    1  UNL1        0.0154
     23 C          -1.0230    2.0604   26.0638 C.ar    1  UNL1        0.0014
     24 C          -1.6892    3.0799   25.1881 C.ar    1  UNL1        0.0022
     25 C          -1.2047    3.2945   23.7847 C.ar    1  UNL1        0.0014
     26 C          -0.0541    2.4895   23.2572 C.ar    1  UNL1        0.0154
     27 C          -2.8397    3.8848   25.7156 C.ar    1  UNL1        0.0275
     28 C          -2.6203    4.8674   26.8275 C.ar    1  UNL1        0.0023
     29 C          -3.7709    5.6723   27.3550 C.ar    1  UNL1        0.0013
     30 C          -5.1409    5.4946   26.7706 C.ar    1  UNL1        0.0162
     31 C          -5.3603    4.5120   25.6587 C.ar    1  UNL1        0.0308
     32 C          -4.2098    3.7071   25.1312 C.ar    1  UNL1        0.1401
     33 F          -4.4292    2.7245   24.0193 F       1  UNL1       -0.2042
     34 C          -6.2914    6.2995   27.2982 C.2     1  UNL1        0.0729
     35 O          -6.9216    5.9366   28.6101 O.co2   1  UNL1       -0.5446
     36 O          -6.8118    7.4674   26.5137 O.co2   1  UNL1       -0.5446
     37 C           7.5203   -2.8886   24.6705 C.3     1  UNL1        0.1183
     38 C           7.4271   -4.3164   25.1207 C.ar    1  UNL1        0.0712
     39 N           6.8340   -4.6435   26.4591 N.ar    1  UNL1       -0.2471
     40 C           6.7408   -6.0714   26.9093 C.ar    1  UNL1        0.0985
     41 C           7.2405   -7.1720   26.0211 C.ar    1  UNL1        0.0203
     42 C           7.8335   -6.8448   24.6827 C.ar    1  UNL1       -0.0015
     43 C           7.9268   -5.4170   24.2325 C.ar    1  UNL1       -0.0069
     44 C           8.5199   -5.0898   22.8941 C.3     1  UNL1        0.0323
@<TRIPOS>UNITY_ATOM_ATTR
35 1
charge -1
@<TRIPOS>BOND
     1    19    20    1
     2    20    13    1
     3    13    14   ar
     4    14    15   ar
     5    15     1    1
     6     1     2   am
     7     2     3    2
     8     2     4   am
     9     4    21    1
    10    21    22   ar
    11    22    23   ar
    12    23    24   ar
    13    24    27    1
    14    27    28   ar
    15    28    29   ar
    16    29    30   ar
    17    30    34    1
    18    34    35   ar
    19    34    36   ar
    20    30    31   ar
    21    31    32   ar
    22    32    33    1
    23    24    25   ar
    24    25    26   ar
    25     4     5   am
    26     5     6    2
    27     5     7    1
    28     7     8    1
    29     8     9    1
    30     9    10    1
    31    10    37    1
    32    37    38    1
    33    38    39   ar
    34    39    40   ar
    35    40    41   ar
    36    41    42   ar
    37    42    43   ar
    38    43    44    1
    39    10    11    1
    40    11    12    1
    41    15    16   ar
    42    16    17   ar
    43    17    18   ar
    44    18    13   ar
    45     7     1    1
    46    43    38   ar
    47    26    21   ar
    48    12     7    1
    49    32    27   ar
@<TRIPOS>MOLECULE
*****
 44 49 0 0 0
SMALL
GASTEIGER

@<TRIPOS>ATOM
      1 N           3.4842   -0.9249   21.7600 N.am    1  UNL1       -0.2222
      2 C           2.2533   -0.0723   21.8506 C.2     1  UNL1        0.3219
      3 O           1.3710    0.3268   20.7051 O.2     1  UNL1       -0.2512
      4 N           2.0597    0.3110   23.2878 N.am    1  UNL1       -0.1907
      5 C           3.1709   -0.3046   24.0855 C.2     1  UNL1        0.2529
      6 O           3.3673   -0.1786   25.5672 O.2     1  UNL1       -0.2724
      7 C           4.0513   -1.0685   23.1413 C.3     1  UNL1        0.1391
      8 C           4.8346   -1.7864   22.0825 C.3     1  UNL1        0.0449
      9 C           6.0658   -2.5582   22.4543 C.3     1  UNL1        0.0746
     10 N           6.5138   -2.6122   23.8848 N.3     1  UNL1       -0.2676
     11 C           5.7305   -1.8943   24.9436 C.3     1  UNL1        0.0746
     12 C           4.4993   -1.1224   24.5718 C.3     1  UNL1        0.0449
     13 C           5.5931   -1.3558   18.4259 C.ar    1  UNL1        0.2293
     14 C           5.0285   -0.7528   19.6778 C.ar    1  UNL1        0.0924
     15 C           4.0488   -1.5280   20.5080 C.ar    1  UNL1        0.1453
     16 N           3.6338   -2.9064   20.0862 N.ar    1  UNL1       -0.2084
     17 C           4.1983   -3.5095   18.8343 C.ar    1  UNL1        0.2027
     18 N           5.1780   -2.7342   18.0041 N.ar    1  UNL1       -0.1892
     19 C           6.1031    0.5816   16.7718 C.3     1  UNL1        0.2542
     20 O           6.5727   -0.5807   17.5956 O.3     1  UNL1       -0.4560
     21 C           0.9499    1.1607   23.8318 C.ar    1  UNL1        0.0622
     22 C           0.4151    0.9042   25.2096 C.ar    1  UNL1        0.0154
     23 C          -0.6948    1.7540   25.7536 C.ar    1  UNL1        0.0014
     24 C          -1.2700    2.8603   24.9199 C.ar    1  UNL1        0.0022
     25 C          -0.7353    3.1169   23.5421 C.ar    1  UNL1        0.0014
     26 C           0.3746    2.2671   22.9981 C.ar    1  UNL1        0.0154
     27 C          -2.3799    3.7101   25.4639 C.ar    1  UNL1        0.0275
     28 C          -2.1306    4.6065   26.6405 C.ar    1  UNL1        0.0023
     29 C          -3.2405    5.4563   27.1845 C.ar    1  UNL1        0.0013
     30 C          -4.5998    5.4096   26.5519 C.ar    1  UNL1        0.0162
     31 C          -4.8491    4.5132   25.3753 C.ar    1  UNL1        0.0308
     32 C          -3.7393    3.6635   24.8313 C.ar    1  UNL1        0.1401
     33 F          -3.9887    2.7671   23.6548 F       1  UNL1       -0.2042
     34 C          -5.7097    6.2594   27.0959 C.2     1  UNL1        0.0729
     35 O          -6.1278    7.5028   26.3686 O.co2   1  UNL1       -0.5446
     36 O          -6.4015    5.8657   28.3674 O.co2   1  UNL1       -0.5446
     37 C           7.7451   -3.3841   24.2565 C.3     1  UNL1        0.1183
     38 C           7.6228   -4.7839   24.7815 C.ar    1  UNL1        0.0712
     39 N           6.9516   -5.0347   26.0993 N.ar    1  UNL1       -0.2471
     40 C           6.8293   -6.4346   26.6242 C.ar    1  UNL1        0.0985
     41 C           7.3782   -7.5835   25.8314 C.ar    1  UNL1        0.0203
     42 C           8.0494   -7.3327   24.5136 C.ar    1  UNL1       -0.0015
     43 C           8.1717   -5.9329   23.9887 C.ar    1  UNL1       -0.0069
     44 C           8.8429   -5.6821   22.6709 C.3     1  UNL1        0.0323
@<TRIPOS>UNITY_ATOM_ATTR
35 1
charge -1
@<TRIPOS>BOND
     1    19    20    1
     2    20    13    1
     3    13    14   ar
     4    14    15   ar
     5    15     1    1
     6     1     2   am
     7     2     3    2
     8     2     4   am
     9     4    21    1
    10    21    22   ar
    11    22    23   ar
    12    23    24   ar
    13    24    27    1
    14    27    28   ar
    15    28    29   ar
    16    29    30   ar
    17    30    34    1
    18    34    35   ar
    19    34    36   ar
    20    30    31   ar
    21    31    32   ar
    22    32    33    1
    23    24    25   ar
    24    25    26   ar
    25     4     5   am
    26     5     6    2
    27     5     7    1
    28     7     8    1
    29     8     9    1
    30     9    10    1
    31    10    37    1
    32    37    38    1
    33    38    39   ar
    34    39    40   ar
    35    40    41   ar
    36    41    42   ar
    37    42    43   ar
    38    43    44    1
    39    10    11    1
    40    11    12    1
    41    15    16   ar
    42    16    17   ar
    43    17    18   ar
    44    18    13   ar
    45     7     1    1
    46    43    38   ar
    47    26    21   ar
    48    12     7    1
    49    32    27   ar
@<TRIPOS>MOLECULE
*****
 44 49 0 0 0
SMALL
GASTEIGER

@<TRIPOS>ATOM
      1 N           3.6060   -0.7767   23.3060 N.am    1  UNL1       -0.2222
      2 C           2.3800    0.0832   23.2182 C.2     1  UNL1        0.3219
      3 O           1.6772    0.4905   21.9571 O.2     1  UNL1       -0.2512
      4 N           1.9802    0.4642   24.6128 N.am    1  UNL1       -0.1907
      5 C           2.9591   -0.1601   25.5625 C.2     1  UNL1        0.2529
      6 O           2.9372   -0.0389   27.0574 O.2     1  UNL1       -0.2724
      7 C           3.9639   -0.9270   24.7549 C.3     1  UNL1        0.1391
      8 C           4.8897   -1.6471   23.8198 C.3     1  UNL1        0.0449
      9 C           6.0488   -2.4274   24.3653 C.3     1  UNL1        0.0746
     10 N           6.2822   -2.4876   25.8458 N.3     1  UNL1       -0.2676
     11 C           5.3564   -1.7675   26.7808 C.3     1  UNL1        0.0746
     12 C           4.1973   -0.9872   26.2354 C.3     1  UNL1        0.0449
     13 C           4.7938   -3.3941   20.5696 C.ar    1  UNL1        0.2293
     14 C           4.0554   -2.7906   21.7274 C.ar    1  UNL1        0.0924
     15 C           4.3444   -1.3802   22.1481 C.ar    1  UNL1        0.1453
     16 N           5.3718   -0.5732   21.4110 N.ar    1  UNL1       -0.2084
     17 C           6.1101   -1.1766   20.2533 C.ar    1  UNL1        0.2027
     18 N           5.8212   -2.5871   19.8325 N.ar    1  UNL1       -0.1892
     19 C           4.5967   -5.1892   18.7019 C.3     1  UNL1        0.2542
     20 O           4.5049   -4.8046   20.1488 O.3     1  UNL1       -0.4560
     21 C           0.8075    1.3194   24.9913 C.ar    1  UNL1        0.0622
     22 C           0.1997    1.1970   26.3572 C.ar    1  UNL1        0.0154
     23 C          -0.9730    2.0522   26.7356 C.ar    1  UNL1        0.0014
     24 C          -1.5380    3.0299   25.7483 C.ar    1  UNL1        0.0022
     25 C          -0.9302    3.1524   24.3823 C.ar    1  UNL1        0.0014
     26 C           0.2425    2.2971   24.0039 C.ar    1  UNL1        0.0154
     27 C          -2.7108    3.8851   26.1267 C.ar    1  UNL1        0.0275
     28 C          -4.0575    3.6218   25.5210 C.ar    1  UNL1        0.0023
     29 C          -5.2303    4.4771   25.8995 C.ar    1  UNL1        0.0013
     30 C          -5.0562    5.5956   26.8837 C.ar    1  UNL1        0.0162
     31 C          -3.7094    5.8589   27.4894 C.ar    1  UNL1        0.0308
     32 C          -2.5367    5.0037   27.1110 C.ar    1  UNL1        0.1401
     33 F          -1.1899    5.2670   27.7166 F       1  UNL1       -0.2042
     34 C          -6.2289    6.4508   27.2622 C.2     1  UNL1        0.0729
     35 O          -6.7171    7.5129   26.3221 O.co2   1  UNL1       -0.5446
     36 O          -6.9135    6.2440   28.5808 O.co2   1  UNL1       -0.5446
     37 C           7.4414   -3.2679   26.3912 C.3     1  UNL1        0.1183
     38 C           7.6252   -4.7059   26.0061 C.ar    1  UNL1        0.0712
     39 N           8.4525   -5.0611   24.8064 N.ar    1  UNL1       -0.2471
     40 C           8.6363   -6.4992   24.4212 C.ar    1  UNL1        0.0985
     41 C           7.9927   -7.5819   25.2357 C.ar    1  UNL1        0.0203
     42 C           7.1653   -7.2266   26.4354 C.ar    1  UNL1       -0.0015
     43 C           6.9816   -5.7887   26.8206 C.ar    1  UNL1       -0.0069
     44 C           6.1542   -5.4334   28.0203 C.3     1  UNL1        0.0323
@<TRIPOS>UNITY_ATOM_ATTR
35 1
charge -1
@<TRIPOS>BOND
     1    19    20    1
     2    20    13    1
     3    13    14   ar
     4    14    15   ar
     5    15     1    1
     6     1     2   am
     7     2     3    2
     8     2     4   am
     9     4    21    1
    10    21    22   ar
    11    22    23   ar
    12    23    24   ar
    13    24    27    1
    14    27    28   ar
    15    28    29   ar
    16    29    30   ar
    17    30    34    1
    18    34    35   ar
    19    34    36   ar
    20    30    31   ar
    21    31    32   ar
    22    32    33    1
    23    24    25   ar
    24    25    26   ar
    25     4     5   am
    26     5     6    2
    27     5     7    1
    28     7     8    1
    29     8     9    1
    30     9    10    1
    31    10    37    1
    32    37    38    1
    33    38    39   ar
    34    39    40   ar
    35    40    41   ar
    36    41    42   ar
    37    42    43   ar
    38    43    44    1
    39    10    11    1
    40    11    12    1
    41    15    16   ar
    42    16    17   ar
    43    17    18   ar
    44    18    13   ar
    45     7     1    1
    46    43    38   ar
    47    26    21   ar
    48    12     7    1
    49    32    27   ar
@<TRIPOS>MOLECULE
*****
 44 49 0 0 0
SMALL
GASTEIGER

@<TRIPOS>ATOM
      1 N           4.0356    0.3353   31.4610 N.am    1  UNL1       -0.2222
      2 C           3.4572    0.4292   30.0801 C.2     1  UNL1        0.3219
      3 O           3.9737   -0.2712   28.8584 O.2     1  UNL1       -0.2512
      4 N           2.2716    1.3464   30.1356 N.am    1  UNL1       -0.1907
      5 C           2.1172    1.8194   31.5507 C.2     1  UNL1        0.2529
      6 O           1.0586    2.7532   32.0577 O.2     1  UNL1       -0.2724
      7 C           3.2075    1.1945   32.3699 C.3     1  UNL1        0.1391
      8 C           4.3457    0.4998   33.0568 C.3     1  UNL1        0.0449
      9 C           4.5686    0.6991   34.5266 C.3     1  UNL1        0.0746
     10 N           3.6533    1.5931   35.3096 N.3     1  UNL1       -0.2676
     11 C           2.5151    2.2877   34.6227 C.3     1  UNL1        0.0746
     12 C           2.2922    2.0884   33.1529 C.3     1  UNL1        0.0449
     13 C           6.3075   -2.7725   32.4255 C.ar    1  UNL1        0.2293
     14 C           5.1110   -1.9618   32.0241 C.ar    1  UNL1        0.0924
     15 C           5.2321   -0.4754   31.8625 C.ar    1  UNL1        0.1453
     16 N           6.5497    0.2002   32.1024 N.ar    1  UNL1       -0.2084
     17 C           7.7461   -0.6104   32.5038 C.ar    1  UNL1        0.2027
     18 N           7.6250   -2.0969   32.6654 N.ar    1  UNL1       -0.1892
     19 C           6.9365   -5.1766   31.6678 C.3     1  UNL1        0.2542
     20 O           6.1864   -4.2588   32.5871 O.3     1  UNL1       -0.4560
     21 C           1.3944    1.7243   28.9791 C.ar    1  UNL1        0.0622
     22 C           0.4785    0.7055   28.3682 C.ar    1  UNL1        0.0154
     23 C          -0.3987    1.0834   27.2116 C.ar    1  UNL1        0.0014
     24 C          -0.3601    2.4801   26.6660 C.ar    1  UNL1        0.0022
     25 C           0.5558    3.4990   27.2769 C.ar    1  UNL1        0.0014
     26 C           1.4330    3.1210   28.4335 C.ar    1  UNL1        0.0154
     27 C          -1.2374    2.8580   25.5094 C.ar    1  UNL1        0.0275
     28 C          -0.6698    2.9057   24.1218 C.ar    1  UNL1        0.0023
     29 C          -1.5471    3.2837   22.9652 C.ar    1  UNL1        0.0013
     30 C          -2.9919    3.6138   23.1964 C.ar    1  UNL1        0.0162
     31 C          -3.5595    3.5661   24.5840 C.ar    1  UNL1        0.0308
     32 C          -2.6823    3.1882   25.7405 C.ar    1  UNL1        0.1401
     33 F          -3.2499    3.1405   27.1282 F       1  UNL1       -0.2042
     34 C          -3.8692    3.9917   22.0398 C.2     1  UNL1        0.0729
     35 O          -4.1057    5.4378   21.7190 O.co2   1  UNL1       -0.5446
     36 O          -4.5099    2.9235   21.2041 O.co2   1  UNL1       -0.5446
     37 C           3.8763    1.7924   36.7796 C.3     1  UNL1        0.1183
     38 C           2.7222    1.6969   37.7329 C.ar    1  UNL1        0.0712
     39 N           2.3377    0.3688   38.3145 N.ar    1  UNL1       -0.2471
     40 C           1.1835    0.2734   39.2679 C.ar    1  UNL1        0.0985
     41 C           0.4140    1.5061   39.6397 C.ar    1  UNL1        0.0203
     42 C           0.7985    2.8342   39.0581 C.ar    1  UNL1       -0.0015
     43 C           1.9526    2.9296   38.1047 C.ar    1  UNL1       -0.0069
     44 C           2.3371    4.2577   37.5232 C.3     1  UNL1        0.0323
@<TRIPOS>UNITY_ATOM_ATTR
35 1
charge -1
@<TRIPOS>BOND
     1    19    20    1
     2    20    13    1
     3    13    14   ar
     4    14    15   ar
     5    15     1    1
     6     1     2   am
     7     2     3    2
     8     2     4   am
     9     4    21    1
    10    21    22   ar
    11    22    23   ar
    12    23    24   ar
    13    24    27    1
    14    27    28   ar
    15    28    29   ar
    16    29    30   ar
    17    30    34    1
    18    34    35   ar
    19    34    36   ar
    20    30    31   ar
    21    31    32   ar
    22    32    33    1
    23    24    25   ar
    24    25    26   ar
    25     4     5   am
    26     5     6    2
    27     5     7    1
    28     7     8    1
    29     8     9    1
    30     9    10    1
    31    10    37    1
    32    37    38    1
    33    38    39   ar
    34    39    40   ar
    35    40    41   ar
    36    41    42   ar
    37    42    43   ar
    38    43    44    1
    39    10    11    1
    40    11    12    1
    41    15    16   ar
    42    16    17   ar
    43    17    18   ar
    44    18    13   ar
    45     7     1    1
    46    43    38   ar
    47    26    21   ar
    48    12     7    1
    49    32    27   ar
@<TRIPOS>MOLECULE
*****
 44 49 0 0 0
SMALL
GASTEIGER

@<TRIPOS>ATOM
      1 N           3.2512   -0.3436   21.8407 N.am    1  UNL1       -0.2222
      2 C           1.9461    0.3890   21.9428 C.2     1  UNL1        0.3219
      3 O           0.9913    0.6504   20.8159 O.2     1  UNL1       -0.2512
      4 N           1.7636    0.8142   23.3697 N.am    1  UNL1       -0.1907
      5 C           2.9558    0.3445   24.1495 C.2     1  UNL1        0.2529
      6 O           3.1879    0.5535   25.6165 O.2     1  UNL1       -0.2724
      7 C           3.8752   -0.3711   23.2045 C.3     1  UNL1        0.1391
      8 C           4.6896   -1.0553   22.1470 C.3     1  UNL1        0.0449
      9 C           6.0024   -1.6874   22.5033 C.3     1  UNL1        0.0746
     10 N           6.5008   -1.6352   23.9171 N.3     1  UNL1       -0.2676
     11 C           5.6863   -0.9509   24.9747 C.3     1  UNL1        0.0746
     12 C           4.3735   -0.3189   24.6184 C.3     1  UNL1        0.0449
     13 C           4.1183   -2.9721   18.9967 C.ar    1  UNL1        0.2293
     14 C           3.5391   -2.3724   20.2436 C.ar    1  UNL1        0.0924
     15 C           3.8304   -0.9433   20.5938 C.ar    1  UNL1        0.1453
     16 N           4.7010   -0.1138   19.6971 N.ar    1  UNL1       -0.2084
     17 C           5.2803   -0.7135   18.4503 C.ar    1  UNL1        0.2027
     18 N           4.9889   -2.1427   18.1000 N.ar    1  UNL1       -0.1892
     19 C           3.4816   -5.3827   19.7269 C.3     1  UNL1        0.2542
     20 O           3.8270   -4.4012   18.6465 O.3     1  UNL1       -0.4560
     21 C           0.5943    1.5755   23.9201 C.ar    1  UNL1        0.0622
     22 C           0.0949    1.2852   25.3044 C.ar    1  UNL1        0.0154
     23 C          -1.0745    2.0465   25.8549 C.ar    1  UNL1        0.0014
     24 C          -1.7445    3.0980   25.0210 C.ar    1  UNL1        0.0022
     25 C          -1.2451    3.3883   23.6366 C.ar    1  UNL1        0.0014
     26 C          -0.0757    2.6270   23.0863 C.ar    1  UNL1        0.0154
     27 C          -2.9139    3.8593   25.5714 C.ar    1  UNL1        0.0275
     28 C          -2.7245    4.7866   26.7352 C.ar    1  UNL1        0.0023
     29 C          -3.8939    5.5479   27.2856 C.ar    1  UNL1        0.0013
     30 C          -5.2527    5.3818   26.6722 C.ar    1  UNL1        0.0162
     31 C          -5.4421    4.4546   25.5085 C.ar    1  UNL1        0.0308
     32 C          -4.2728    3.6934   24.9581 C.ar    1  UNL1        0.1401
     33 F          -4.4621    2.7661   23.7943 F       1  UNL1       -0.2042
     34 C          -6.4221    6.1431   27.2227 C.2     1  UNL1        0.0729
     35 O          -7.1786    7.0944   26.3436 O.co2   1  UNL1       -0.5446
     36 O          -6.8350    5.9531   28.6522 O.co2   1  UNL1       -0.5446
     37 C           7.8137   -2.2673   24.2734 C.3     1  UNL1        0.1183
     38 C           8.0313   -3.7315   24.0314 C.ar    1  UNL1        0.0712
     39 N           8.6963   -4.1922   22.7683 N.ar    1  UNL1       -0.2471
     40 C           8.9140   -5.6565   22.5263 C.ar    1  UNL1        0.0985
     41 C           8.4666   -6.6601   23.5474 C.ar    1  UNL1        0.0203
     42 C           7.8015   -6.1994   24.8105 C.ar    1  UNL1       -0.0015
     43 C           7.5839   -4.7351   25.0525 C.ar    1  UNL1       -0.0069
     44 C           6.9189   -4.2744   26.3157 C.3     1  UNL1        0.0323
@<TRIPOS>UNITY_ATOM_ATTR
35 1
charge -1
@<TRIPOS>BOND
     1    19    20    1
     2    20    13    1
     3    13    14   ar
     4    14    15   ar
     5    15     1    1
     6     1     2   am
     7     2     3    2
     8     2     4   am
     9     4    21    1
    10    21    22   ar
    11    22    23   ar
    12    23    24   ar
    13    24    27    1
    14    27    28   ar
    15    28    29   ar
    16    29    30   ar
    17    30    34    1
    18    34    35   ar
    19    34    36   ar
    20    30    31   ar
    21    31    32   ar
    22    32    33    1
    23    24    25   ar
    24    25    26   ar
    25     4     5   am
    26     5     6    2
    27     5     7    1
    28     7     8    1
    29     8     9    1
    30     9    10    1
    31    10    37    1
    32    37    38    1
    33    38    39   ar
    34    39    40   ar
    35    40    41   ar
    36    41    42   ar
    37    42    43   ar
    38    43    44    1
    39    10    11    1
    40    11    12    1
    41    15    16   ar
    42    16    17   ar
    43    17    18   ar
    44    18    13   ar
    45     7     1    1
    46    43    38   ar
    47    26    21   ar
    48    12     7    1
    49    32    27   ar
@<TRIPOS>MOLECULE
*****
 44 49 0 0 0
SMALL
GASTEIGER

@<TRIPOS>ATOM
      1 N           3.4069   -0.3374   23.7763 N.am    1  UNL1       -0.2222
      2 C           2.1160    0.3964   23.5636 C.2     1  UNL1        0.3219
      3 O           1.4214    0.5959   22.2492 O.2     1  UNL1       -0.2512
      4 N           1.6416    0.8957   24.8962 N.am    1  UNL1       -0.1907
      5 C           2.6393    0.4705   25.9324 C.2     1  UNL1        0.2529
      6 O           2.5600    0.7570   27.4027 O.2     1  UNL1       -0.2724
      7 C           3.7303   -0.2916   25.2403 C.3     1  UNL1        0.1391
      8 C           4.7427   -1.0286   24.4146 C.3     1  UNL1        0.0449
      9 C           5.9458   -1.6379   25.0712 C.3     1  UNL1        0.0746
     10 N           6.1366   -1.5102   26.5535 N.3     1  UNL1       -0.2676
     11 C           5.1242   -0.7732   27.3793 C.3     1  UNL1        0.0746
     12 C           3.9211   -0.1639   26.7227 C.3     1  UNL1        0.0449
     13 C           4.7715   -3.0847   21.2584 C.ar    1  UNL1        0.2293
     14 C           3.9486   -2.4216   22.3228 C.ar    1  UNL1        0.0924
     15 C           4.2298   -1.0005   22.7119 C.ar    1  UNL1        0.1453
     16 N           5.3341   -0.2425   22.0365 N.ar    1  UNL1       -0.2084
     17 C           6.1570   -0.9055   20.9721 C.ar    1  UNL1        0.2027
     18 N           5.8757   -2.3267   20.5830 N.ar    1  UNL1       -0.1892
     19 C           3.7736   -4.8041   19.5858 C.3     1  UNL1        0.2542
     20 O           4.4903   -4.5058   20.8693 O.3     1  UNL1       -0.4560
     21 C           0.3895    1.6820   25.1483 C.ar    1  UNL1        0.0622
     22 C          -0.1503    2.5936   24.0863 C.ar    1  UNL1        0.0154
     23 C          -1.4025    3.3800   24.3384 C.ar    1  UNL1        0.0014
     24 C          -2.1150    3.2549   25.6525 C.ar    1  UNL1        0.0022
     25 C          -1.5752    2.3433   26.7145 C.ar    1  UNL1        0.0014
     26 C          -0.3230    1.5569   26.4623 C.ar    1  UNL1        0.0154
     27 C          -3.3672    4.0413   25.9045 C.ar    1  UNL1        0.0275
     28 C          -3.3886    5.0960   26.9709 C.ar    1  UNL1        0.0023
     29 C          -4.6408    5.8824   27.2230 C.ar    1  UNL1        0.0013
     30 C          -5.8716    5.6140   26.4086 C.ar    1  UNL1        0.0162
     31 C          -5.8502    4.5593   25.3423 C.ar    1  UNL1        0.0308
     32 C          -4.5981    3.7729   25.0902 C.ar    1  UNL1        0.1401
     33 F          -4.5767    2.7182   24.0239 F       1  UNL1       -0.2042
     34 C          -7.1238    6.4004   26.6607 C.2     1  UNL1        0.0729
     35 O          -7.6124    7.3814   25.6366 O.co2   1  UNL1       -0.5446
     36 O          -7.8876    6.2057   27.9371 O.co2   1  UNL1       -0.5446
     37 C           7.3398   -2.1196   27.2101 C.3     1  UNL1        0.1183
     38 C           7.1705   -3.2346   28.1990 C.ar    1  UNL1        0.0712
     39 N           7.0591   -2.9281   29.6631 N.ar    1  UNL1       -0.2471
     40 C           6.8898   -4.0433   30.6520 C.ar    1  UNL1        0.0985
     41 C           6.8319   -5.4648   30.1768 C.ar    1  UNL1        0.0203
     42 C           6.9433   -5.7713   28.7127 C.ar    1  UNL1       -0.0015
     43 C           7.1127   -4.6562   27.7238 C.ar    1  UNL1       -0.0069
     44 C           7.2241   -4.9627   26.2597 C.3     1  UNL1        0.0323
@<TRIPOS>UNITY_ATOM_ATTR
35 1
charge -1
@<TRIPOS>BOND
     1    19    20    1
     2    20    13    1
     3    13    14   ar
     4    14    15   ar
     5    15     1    1
     6     1     2   am
     7     2     3    2
     8     2     4   am
     9     4    21    1
    10    21    22   ar
    11    22    23   ar
    12    23    24   ar
    13    24    27    1
    14    27    28   ar
    15    28    29   ar
    16    29    30   ar
    17    30    34    1
    18    34    35   ar
    19    34    36   ar
    20    30    31   ar
    21    31    32   ar
    22    32    33    1
    23    24    25   ar
    24    25    26   ar
    25     4     5   am
    26     5     6    2
    27     5     7    1
    28     7     8    1
    29     8     9    1
    30     9    10    1
    31    10    37    1
    32    37    38    1
    33    38    39   ar
    34    39    40   ar
    35    40    41   ar
    36    41    42   ar
    37    42    43   ar
    38    43    44    1
    39    10    11    1
    40    11    12    1
    41    15    16   ar
    42    16    17   ar
    43    17    18   ar
    44    18    13   ar
    45     7     1    1
    46    43    38   ar
    47    26    21   ar
    48    12     7    1
    49    32    27   ar
@<TRIPOS>MOLECULE
*****
 44 49 0 0 0
SMALL
GASTEIGER

@<TRIPOS>ATOM
      1 N           1.5236    1.9002   24.2425 N.am    1  UNL1       -0.2222
      2 C           1.6397    2.1522   25.7167 C.2     1  UNL1        0.3219
      3 O           1.0654    3.3222   26.4591 O.2     1  UNL1       -0.2512
      4 N           2.4310    1.0287   26.3180 N.am    1  UNL1       -0.1907
      5 C           2.8039    0.0823   25.2156 C.2     1  UNL1        0.2529
      6 O           3.5982   -1.1808   25.3689 O.2     1  UNL1       -0.2724
      7 C           2.2431    0.6210   23.9328 C.3     1  UNL1        0.1391
      8 C           1.6253    1.2790   22.7347 C.3     1  UNL1        0.0449
      9 C           1.7603    0.6490   21.3802 C.3     1  UNL1        0.0746
     10 N           2.5131   -0.6390   21.2237 N.3     1  UNL1       -0.2676
     11 C           3.1309   -1.2970   22.4217 C.3     1  UNL1        0.0746
     12 C           2.9959   -0.6670   23.7763 C.3     1  UNL1        0.0449
     13 C          -1.3545    3.4285   21.9774 C.ar    1  UNL1        0.2293
     14 C          -0.6437    2.5547   22.9679 C.ar    1  UNL1        0.0924
     15 C           0.8128    2.7740   23.2520 C.ar    1  UNL1        0.1453
     16 N           1.5583    3.8672   22.5455 N.ar    1  UNL1       -0.2084
     17 C           0.8476    4.7411   21.5551 C.ar    1  UNL1        0.2027
     18 N          -0.6089    4.5217   21.2710 N.ar    1  UNL1       -0.1892
     19 C          -3.3263    3.3218   20.2891 C.3     1  UNL1        0.2542
     20 O          -2.8109    3.2093   21.6933 O.3     1  UNL1       -0.4560
     21 C           2.7869    0.8779   27.7673 C.ar    1  UNL1        0.0622
     22 C           3.8044    1.7884   28.3884 C.ar    1  UNL1        0.0154
     23 C           4.1603    1.6377   29.8377 C.ar    1  UNL1        0.0014
     24 C           3.4987    0.5765   30.6660 C.ar    1  UNL1        0.0022
     25 C           2.4812   -0.3341   30.0450 C.ar    1  UNL1        0.0014
     26 C           2.1253   -0.1833   28.5956 C.ar    1  UNL1        0.0154
     27 C           3.8546    0.4257   32.1154 C.ar    1  UNL1        0.0275
     28 C           3.4572    1.4858   33.0995 C.ar    1  UNL1        0.0023
     29 C           3.8131    1.3350   34.5488 C.ar    1  UNL1        0.0013
     30 C           4.5664    0.1242   35.0140 C.ar    1  UNL1        0.0162
     31 C           4.9638   -0.9358   34.0300 C.ar    1  UNL1        0.0308
     32 C           4.6079   -0.7851   32.5807 C.ar    1  UNL1        0.1401
     33 F           5.0053   -1.8452   31.5967 F       1  UNL1       -0.2042
     34 C           4.9223   -0.0265   36.4634 C.2     1  UNL1        0.0729
     35 O           3.9562    0.4146   37.5227 O.co2   1  UNL1       -0.5446
     36 O           6.2443   -0.6184   36.8534 O.co2   1  UNL1       -0.5446
     37 C           2.6481   -1.2690   19.8690 C.3     1  UNL1        0.1183
     38 C           4.0089   -1.5062   19.2844 C.ar    1  UNL1        0.0712
     39 N           4.9426   -0.3528   19.0654 N.ar    1  UNL1       -0.2471
     40 C           6.3035   -0.5900   18.4808 C.ar    1  UNL1        0.0985
     41 C           6.7307   -1.9806   18.1152 C.ar    1  UNL1        0.0203
     42 C           5.7970   -3.1340   18.3342 C.ar    1  UNL1       -0.0015
     43 C           4.4362   -2.8968   18.9188 C.ar    1  UNL1       -0.0069
     44 C           3.5025   -4.0502   19.1378 C.3     1  UNL1        0.0323
@<TRIPOS>UNITY_ATOM_ATTR
35 1
charge -1
@<TRIPOS>BOND
     1    19    20    1
     2    20    13    1
     3    13    14   ar
     4    14    15   ar
     5    15     1    1
     6     1     2   am
     7     2     3    2
     8     2     4   am
     9     4    21    1
    10    21    22   ar
    11    22    23   ar
    12    23    24   ar
    13    24    27    1
    14    27    28   ar
    15    28    29   ar
    16    29    30   ar
    17    30    34    1
    18    34    35   ar
    19    34    36   ar
    20    30    31   ar
    21    31    32   ar
    22    32    33    1
    23    24    25   ar
    24    25    26   ar
    25     4     5   am
    26     5     6    2
    27     5     7    1
    28     7     8    1
    29     8     9    1
    30     9    10    1
    31    10    37    1
    32    37    38    1
    33    38    39   ar
    34    39    40   ar
    35    40    41   ar
    36    41    42   ar
    37    42    43   ar
    38    43    44    1
    39    10    11    1
    40    11    12    1
    41    15    16   ar
    42    16    17   ar
    43    17    18   ar
    44    18    13   ar
    45     7     1    1
    46    43    38   ar
    47    26    21   ar
    48    12     7    1
    49    32    27   ar
@<TRIPOS>MOLECULE
*****
 44 49 0 0 0
SMALL
GASTEIGER

@<TRIPOS>ATOM
      1 N           6.0856   -2.3431   26.1174 N.am    1  UNL1       -0.2222
      2 C           6.1676   -2.0661   27.5894 C.2     1  UNL1        0.3219
      3 O           7.2293   -2.5671   28.5230 O.2     1  UNL1       -0.2512
      4 N           5.0014   -1.2001   27.9637 N.am    1  UNL1       -0.1907
      5 C           4.1987   -0.9419   26.7232 C.2     1  UNL1        0.2529
      6 O           2.9459   -0.1214   26.6385 O.2     1  UNL1       -0.2724
      7 C           4.8687   -1.6483   25.5820 C.3     1  UNL1        0.1391
      8 C           5.6461   -2.4032   24.5448 C.3     1  UNL1        0.0449
      9 C           5.1809   -2.4131   23.1188 C.3     1  UNL1        0.0746
     10 N           3.9385   -1.6680   22.7301 N.3     1  UNL1       -0.2676
     11 C           3.1611   -0.9131   23.7672 C.3     1  UNL1        0.0746
     12 C           3.6262   -0.9033   25.1932 C.3     1  UNL1        0.0449
     13 C           7.8766   -5.4896   24.4920 C.ar    1  UNL1        0.2293
     14 C           6.9113   -4.6629   25.2887 C.ar    1  UNL1        0.0924
     15 C           7.0509   -3.1698   25.3207 C.ar    1  UNL1        0.1453
     16 N           8.1559   -2.5033   24.5559 N.ar    1  UNL1       -0.2084
     17 C           9.1212   -3.3299   23.7592 C.ar    1  UNL1        0.2027
     18 N           8.9816   -4.8231   23.7273 N.ar    1  UNL1       -0.1892
     19 C           7.6611   -7.7564   25.7428 C.3     1  UNL1        0.2542
     20 O           7.7371   -6.9827   24.4600 O.3     1  UNL1       -0.4560
     21 C           4.6923   -0.6831   29.3374 C.ar    1  UNL1        0.0622
     22 C           5.7379    0.0649   30.1101 C.ar    1  UNL1        0.0154
     23 C           5.4287    0.5819   31.4839 C.ar    1  UNL1        0.0014
     24 C           4.0739    0.3509   32.0849 C.ar    1  UNL1        0.0022
     25 C           3.0282   -0.3971   31.3121 C.ar    1  UNL1        0.0014
     26 C           3.3375   -0.9141   29.9384 C.ar    1  UNL1        0.0154
     27 C           3.7647    0.8679   33.4586 C.ar    1  UNL1        0.0275
     28 C           2.7862    1.9911   33.6346 C.ar    1  UNL1        0.0023
     29 C           2.4770    2.5081   35.0084 C.ar    1  UNL1        0.0013
     30 C           3.1465    1.9019   36.2060 C.ar    1  UNL1        0.0162
     31 C           4.1250    0.7787   36.0300 C.ar    1  UNL1        0.0308
     32 C           4.4342    0.2617   34.6564 C.ar    1  UNL1        0.1401
     33 F           5.4127   -0.8614   34.4803 F       1  UNL1       -0.2042
     34 C           2.8373    2.4189   37.5798 C.2     1  UNL1        0.0729
     35 O           1.4287    2.7829   37.9447 O.co2   1  UNL1       -0.5446
     36 O           3.9369    2.5718   38.5886 O.co2   1  UNL1       -0.5446
     37 C           3.4733   -1.6779   21.3040 C.3     1  UNL1        0.1183
     38 C           4.4709   -1.8012   20.1906 C.ar    1  UNL1        0.0712
     39 N           5.4371   -0.6856   19.9224 N.ar    1  UNL1       -0.2471
     40 C           6.4347   -0.8089   18.8089 C.ar    1  UNL1        0.0985
     41 C           6.4660   -2.0477   17.9637 C.ar    1  UNL1        0.0203
     42 C           5.4997   -3.1633   18.2319 C.ar    1  UNL1       -0.0015
     43 C           4.5022   -3.0400   19.3453 C.ar    1  UNL1       -0.0069
     44 C           3.5359   -4.1556   19.6136 C.3     1  UNL1        0.0323
@<TRIPOS>UNITY_ATOM_ATTR
35 1
charge -1
@<TRIPOS>BOND
     1    19    20    1
     2    20    13    1
     3    13    14   ar
     4    14    15   ar
     5    15     1    1
     6     1     2   am
     7     2     3    2
     8     2     4   am
     9     4    21    1
    10    21    22   ar
    11    22    23   ar
    12    23    24   ar
    13    24    27    1
    14    27    28   ar
    15    28    29   ar
    16    29    30   ar
    17    30    34    1
    18    34    35   ar
    19    34    36   ar
    20    30    31   ar
    21    31    32   ar
    22    32    33    1
    23    24    25   ar
    24    25    26   ar
    25     4     5   am
    26     5     6    2
    27     5     7    1
    28     7     8    1
    29     8     9    1
    30     9    10    1
    31    10    37    1
    32    37    38    1
    33    38    39   ar
    34    39    40   ar
    35    40    41   ar
    36    41    42   ar
    37    42    43   ar
    38    43    44    1
    39    10    11    1
    40    11    12    1
    41    15    16   ar
    42    16    17   ar
    43    17    18   ar
    44    18    13   ar
    45     7     1    1
    46    43    38   ar
    47    26    21   ar
    48    12     7    1
    49    32    27   ar
