@<TRIPOS>MOLECULE
*****
 36 41 0 0 0
SMALL
GASTEIGER

@<TRIPOS>ATOM
      1 N          -4.5415  -18.0100   22.1127 N.am    1  UNL1       -0.1902
      2 C          -4.0236  -17.1856   23.2538 C.2     1  UNL1        0.4117
      3 O          -2.6321  -17.2288   23.8124 O.2     1  UNL1       -0.2257
      4 O          -5.1413  -16.3105   23.7383 O.3     1  UNL1       -0.4230
      5 C          -6.3501  -16.5940   22.8967 C.3     1  UNL1        0.2777
      6 C          -5.9794  -17.6444   21.8920 C.2     1  UNL1        0.2797
      7 O          -6.8873  -18.2268   20.8497 O.2     1  UNL1       -0.2700
      8 C          -7.6952  -16.6609   22.2362 C.ar    1  UNL1        0.2711
      9 N          -8.4263  -15.5124   21.6066 N.ar    1  UNL1       -0.1075
     10 N          -9.7283  -16.0296   21.0705 N.ar    1  UNL1       -0.1113
     11 C          -9.8019  -17.4979   21.3689 C.ar    1  UNL1        0.2291
     12 O          -8.5453  -17.8880   22.0893 O.2     1  UNL1       -0.4193
     13 C         -10.9333  -18.4149   21.0099 C.3     1  UNL1        0.0891
     14 C         -11.8047  -19.3280   20.1994 C.3     1  UNL1        0.0137
     15 C         -10.5777  -18.7219   19.5853 C.3     1  UNL1        0.0137
     16 C         -11.6817  -18.4264   22.3097 C.ar    1  UNL1       -0.0144
     17 C         -13.0368  -17.7895   22.4007 C.ar    1  UNL1       -0.0038
     18 C         -13.7852  -17.8010   23.7005 C.ar    1  UNL1       -0.0003
     19 C         -13.1786  -18.4494   24.9095 C.ar    1  UNL1       -0.0000
     20 C         -11.8236  -19.0863   24.8186 C.ar    1  UNL1       -0.0003
     21 C         -11.0751  -19.0748   23.5187 C.ar    1  UNL1       -0.0038
     22 C          -4.0815  -20.4816   21.4574 C.3     1  UNL1        0.0270
     23 C          -3.7590  -19.0223   21.3298 C.3     1  UNL1        0.1082
     24 C          -2.6539  -18.5752   20.4194 C.ar    1  UNL1       -0.0038
     25 C          -1.2421  -18.5223   20.9233 C.ar    1  UNL1       -0.0027
     26 C          -0.1371  -18.0753   20.0128 C.ar    1  UNL1       -0.0003
     27 C          -0.4439  -17.6810   18.5984 C.ar    1  UNL1       -0.0000
     28 C          -1.8557  -17.7339   18.0945 C.ar    1  UNL1       -0.0003
     29 C          -2.9607  -18.1810   19.0050 C.ar    1  UNL1       -0.0027
     30 C          -7.0020  -15.5577   23.7632 C.3     1  UNL1        0.0849
     31 C          -7.4705  -15.9192   25.1416 C.ar    1  UNL1       -0.0177
     32 C          -6.7336  -15.4055   26.3430 C.ar    1  UNL1       -0.0041
     33 C          -7.2021  -15.7670   27.7213 C.ar    1  UNL1       -0.0003
     34 C          -8.4074  -16.6422   27.8984 C.ar    1  UNL1       -0.0000
     35 C          -9.1442  -17.1559   26.6970 C.ar    1  UNL1       -0.0003
     36 C          -8.6757  -16.7944   25.3186 C.ar    1  UNL1       -0.0041
@<TRIPOS>BOND
     1    23    22    1
     2    23    24    1
     3    24    25   ar
     4    25    26   ar
     5    26    27   ar
     6    27    28   ar
     7    28    29   ar
     8    23     1    1
     9     1     2   am
    10     2     3    2
    11     2     4    1
    12     4     5    1
    13     5    30    1
    14    30    31    1
    15    31    32   ar
    16    32    33   ar
    17    33    34   ar
    18    34    35   ar
    19    35    36   ar
    20     5     8    1
    21     8     9   ar
    22     9    10   ar
    23    10    11   ar
    24    11    13    1
    25    13    16    1
    26    16    17   ar
    27    17    18   ar
    28    18    19   ar
    29    19    20   ar
    30    20    21   ar
    31    13    14    1
    32    14    15    1
    33    11    12   ar
    34     5     6    1
    35     6     7    2
    36    29    24   ar
    37     6     1   am
    38    36    31   ar
    39    12     8   ar
    40    15    13    1
    41    21    16   ar
@<TRIPOS>MOLECULE
*****
 36 41 0 0 0
SMALL
GASTEIGER

@<TRIPOS>ATOM
      1 N          -7.0131  -19.2654   20.6792 N.am    1  UNL1       -0.1902
      2 C          -8.2998  -19.4133   19.9227 C.2     1  UNL1        0.4117
      3 O          -8.5715  -20.4051   18.8306 O.2     1  UNL1       -0.2257
      4 O          -9.2672  -18.3953   20.4499 O.3     1  UNL1       -0.4230
      5 C          -8.5783  -17.6182   21.5323 C.3     1  UNL1        0.2777
      6 C          -7.1852  -18.1560   21.6740 C.2     1  UNL1        0.2797
      7 O          -6.1466  -17.6696   22.6408 O.2     1  UNL1       -0.2700
      8 C          -8.1625  -16.6881   22.6331 C.ar    1  UNL1        0.2711
      9 N          -7.6814  -15.2778   22.4611 N.ar    1  UNL1       -0.1075
     10 N          -7.3762  -14.7230   23.8209 N.ar    1  UNL1       -0.1113
     11 C          -7.6687  -15.7905   24.8334 C.ar    1  UNL1        0.2291
     12 O          -8.1546  -17.0050   24.0992 O.2     1  UNL1       -0.4193
     13 C          -7.5041  -15.6654   26.3190 C.3     1  UNL1        0.0891
     14 C          -7.7952  -15.2954   27.7432 C.3     1  UNL1        0.0137
     15 C          -8.7590  -14.9167   26.6580 C.3     1  UNL1        0.0137
     16 C          -6.1921  -16.3706   26.4960 C.ar    1  UNL1       -0.0144
     17 C          -5.0884  -16.1622   25.5018 C.ar    1  UNL1       -0.0038
     18 C          -3.7765  -16.8673   25.6788 C.ar    1  UNL1       -0.0003
     19 C          -3.5681  -17.7810   26.8501 C.ar    1  UNL1       -0.0000
     20 C          -4.6718  -17.9895   27.8443 C.ar    1  UNL1       -0.0003
     21 C          -5.9838  -17.2843   27.6673 C.ar    1  UNL1       -0.0038
     22 C          -5.8777  -21.5610   20.2425 C.3     1  UNL1        0.0270
     23 C          -5.7721  -20.0832   20.4765 C.3     1  UNL1        0.1082
     24 C          -4.4254  -19.4231   20.5079 C.ar    1  UNL1       -0.0038
     25 C          -3.5401  -19.5821   21.7083 C.ar    1  UNL1       -0.0027
     26 C          -2.1935  -18.9220   21.7396 C.ar    1  UNL1       -0.0003
     27 C          -1.7322  -18.1031   20.5706 C.ar    1  UNL1       -0.0000
     28 C          -2.6176  -17.9441   19.3703 C.ar    1  UNL1       -0.0003
     29 C          -3.9642  -18.6042   19.3389 C.ar    1  UNL1       -0.0027
     30 C          -9.8845  -16.8862   21.6207 C.3     1  UNL1        0.0849
     31 C         -10.9747  -17.4021   22.5124 C.ar    1  UNL1       -0.0177
     32 C         -10.6909  -18.5157   23.4766 C.ar    1  UNL1       -0.0041
     33 C         -11.7811  -19.0317   24.3683 C.ar    1  UNL1       -0.0003
     34 C         -13.1550  -18.4342   24.2960 C.ar    1  UNL1       -0.0000
     35 C         -13.4387  -17.3206   23.3319 C.ar    1  UNL1       -0.0003
     36 C         -12.3486  -16.8046   22.4401 C.ar    1  UNL1       -0.0041
@<TRIPOS>BOND
     1    23    22    1
     2    23    24    1
     3    24    25   ar
     4    25    26   ar
     5    26    27   ar
     6    27    28   ar
     7    28    29   ar
     8    23     1    1
     9     1     2   am
    10     2     3    2
    11     2     4    1
    12     4     5    1
    13     5    30    1
    14    30    31    1
    15    31    32   ar
    16    32    33   ar
    17    33    34   ar
    18    34    35   ar
    19    35    36   ar
    20     5     8    1
    21     8     9   ar
    22     9    10   ar
    23    10    11   ar
    24    11    13    1
    25    13    16    1
    26    16    17   ar
    27    17    18   ar
    28    18    19   ar
    29    19    20   ar
    30    20    21   ar
    31    13    14    1
    32    14    15    1
    33    11    12   ar
    34     5     6    1
    35     6     7    2
    36    29    24   ar
    37     6     1   am
    38    36    31   ar
    39    12     8   ar
    40    15    13    1
    41    21    16   ar
@<TRIPOS>MOLECULE
*****
 36 41 0 0 0
SMALL
GASTEIGER

@<TRIPOS>ATOM
      1 N           7.3994   -3.9490   30.6830 N.am    1  UNL1       -0.1902
      2 C           6.9196   -5.3700   30.7031 C.2     1  UNL1        0.4117
      3 O           6.7748   -6.2345   31.9204 O.2     1  UNL1       -0.2257
      4 O           6.6102   -5.7749   29.2923 O.3     1  UNL1       -0.4230
      5 C           6.8986   -4.6040   28.4002 C.3     1  UNL1        0.2777
      6 C           7.3864   -3.4756   29.2597 C.2     1  UNL1        0.2797
      7 O           7.7902   -2.1129   28.7800 O.2     1  UNL1       -0.2700
      8 C           7.0937   -3.6263   27.2795 C.ar    1  UNL1        0.2711
      9 N           8.3923   -3.3167   26.5957 N.ar    1  UNL1       -0.1075
     10 N           8.1257   -2.2856   25.5394 N.ar    1  UNL1       -0.1113
     11 C           6.6622   -1.9580   25.5704 C.ar    1  UNL1        0.2291
     12 O           6.0244   -2.7867   26.6459 O.2     1  UNL1       -0.4193
     13 C           5.9598   -0.9745   24.6819 C.3     1  UNL1        0.0891
     14 C           5.3168    0.3000   24.2215 C.3     1  UNL1        0.0137
     15 C           5.8866    0.2050   25.6058 C.3     1  UNL1        0.0137
     16 C           5.7891   -1.8124   23.4496 C.ar    1  UNL1       -0.0144
     17 C           4.8172   -2.9550   23.4481 C.ar    1  UNL1       -0.0038
     18 C           4.6465   -3.7929   22.2158 C.ar    1  UNL1       -0.0003
     19 C           5.4478   -3.4883   20.9848 C.ar    1  UNL1       -0.0000
     20 C           6.4197   -2.3458   20.9863 C.ar    1  UNL1       -0.0003
     21 C           6.5904   -1.5079   22.2186 C.ar    1  UNL1       -0.0038
     22 C           9.2611   -3.1024   32.2852 C.3     1  UNL1        0.0270
     23 C           7.8185   -3.1428   31.8765 C.3     1  UNL1        0.1082
     24 C           6.7949   -2.3771   32.6614 C.ar    1  UNL1       -0.0038
     25 C           7.1762   -1.0964   33.3426 C.ar    1  UNL1       -0.0027
     26 C           6.1526   -0.3307   34.1274 C.ar    1  UNL1       -0.0003
     27 C           4.7476   -0.8458   34.2310 C.ar    1  UNL1       -0.0000
     28 C           4.3663   -2.1266   33.5497 C.ar    1  UNL1       -0.0003
     29 C           5.3899   -2.8922   32.7649 C.ar    1  UNL1       -0.0027
     30 C           6.4517   -5.5281   27.3066 C.3     1  UNL1        0.0849
     31 C           7.4622   -6.3357   26.5472 C.ar    1  UNL1       -0.0177
     32 C           8.5251   -7.0935   27.2863 C.ar    1  UNL1       -0.0041
     33 C           9.5357   -7.9012   26.5270 C.ar    1  UNL1       -0.0003
     34 C           9.4834   -7.9511   25.0288 C.ar    1  UNL1       -0.0000
     35 C           8.4205   -7.1933   24.2898 C.ar    1  UNL1       -0.0003
     36 C           7.4100   -6.3856   25.0491 C.ar    1  UNL1       -0.0041
@<TRIPOS>BOND
     1    23    22    1
     2    23    24    1
     3    24    25   ar
     4    25    26   ar
     5    26    27   ar
     6    27    28   ar
     7    28    29   ar
     8    23     1    1
     9     1     2   am
    10     2     3    2
    11     2     4    1
    12     4     5    1
    13     5    30    1
    14    30    31    1
    15    31    32   ar
    16    32    33   ar
    17    33    34   ar
    18    34    35   ar
    19    35    36   ar
    20     5     8    1
    21     8     9   ar
    22     9    10   ar
    23    10    11   ar
    24    11    13    1
    25    13    16    1
    26    16    17   ar
    27    17    18   ar
    28    18    19   ar
    29    19    20   ar
    30    20    21   ar
    31    13    14    1
    32    14    15    1
    33    11    12   ar
    34     5     6    1
    35     6     7    2
    36    29    24   ar
    37     6     1   am
    38    36    31   ar
    39    12     8   ar
    40    15    13    1
    41    21    16   ar
@<TRIPOS>MOLECULE
*****
 36 41 0 0 0
SMALL
GASTEIGER

@<TRIPOS>ATOM
      1 N           3.2614    1.7528   34.0829 N.am    1  UNL1       -0.1902
      2 C           2.1584    2.0618   33.1145 C.2     1  UNL1        0.4117
      3 O           1.2319    3.2397   33.1800 O.2     1  UNL1       -0.2257
      4 O           2.1444    0.9862   32.0691 O.3     1  UNL1       -0.4230
      5 C           3.2389    0.0124   32.3913 C.3     1  UNL1        0.2777
      6 C           3.9292    0.4862   33.6359 C.2     1  UNL1        0.2797
      7 O           5.0845   -0.1883   34.3144 O.2     1  UNL1       -0.2700
      8 C           4.2324   -1.1095   32.4563 C.ar    1  UNL1        0.2711
      9 N           4.0144   -2.4437   33.1060 N.ar    1  UNL1       -0.1075
     10 N           5.2656   -3.2530   32.9343 N.ar    1  UNL1       -0.1113
     11 C           6.2571   -2.4188   32.1784 C.ar    1  UNL1        0.2291
     12 O           5.6185   -1.0940   31.8830 O.2     1  UNL1       -0.4193
     13 C           7.6435   -2.8362   31.7866 C.3     1  UNL1        0.0891
     14 C           9.1391   -2.9497   31.8039 C.3     1  UNL1        0.0137
     15 C           8.4392   -2.1064   32.8281 C.3     1  UNL1        0.0137
     16 C           7.3294   -3.7108   30.6092 C.ar    1  UNL1       -0.0144
     17 C           7.6586   -5.1736   30.6525 C.ar    1  UNL1       -0.0038
     18 C           7.3445   -6.0482   29.4751 C.ar    1  UNL1       -0.0003
     19 C           6.7011   -5.4600   28.2543 C.ar    1  UNL1       -0.0000
     20 C           6.3719   -3.9972   28.2111 C.ar    1  UNL1       -0.0003
     21 C           6.6860   -3.1226   29.3885 C.ar    1  UNL1       -0.0038
     22 C           4.7291    3.5858   35.1947 C.3     1  UNL1        0.0270
     23 C           3.6317    2.5673   35.2868 C.3     1  UNL1        0.1082
     24 C           2.9046    2.3634   36.5828 C.ar    1  UNL1       -0.0038
     25 C           1.9163    3.3870   37.0575 C.ar    1  UNL1       -0.0027
     26 C           1.1892    3.1831   38.3535 C.ar    1  UNL1       -0.0003
     27 C           1.4504    1.9554   39.1749 C.ar    1  UNL1       -0.0000
     28 C           2.4387    0.9317   38.7002 C.ar    1  UNL1       -0.0003
     29 C           3.1657    1.1357   37.4042 C.ar    1  UNL1       -0.0027
     30 C           2.7563   -0.6959   31.1604 C.3     1  UNL1        0.0849
     31 C           2.7226    0.0245   29.8451 C.ar    1  UNL1       -0.0177
     32 C           3.9585    0.6992   29.3277 C.ar    1  UNL1       -0.0041
     33 C           3.9249    1.4195   28.0124 C.ar    1  UNL1       -0.0003
     34 C           2.6555    1.4653   27.2145 C.ar    1  UNL1       -0.0000
     35 C           1.4197    0.7907   27.7320 C.ar    1  UNL1       -0.0003
     36 C           1.4533    0.0703   29.0472 C.ar    1  UNL1       -0.0041
@<TRIPOS>BOND
     1    23    22    1
     2    23    24    1
     3    24    25   ar
     4    25    26   ar
     5    26    27   ar
     6    27    28   ar
     7    28    29   ar
     8    23     1    1
     9     1     2   am
    10     2     3    2
    11     2     4    1
    12     4     5    1
    13     5    30    1
    14    30    31    1
    15    31    32   ar
    16    32    33   ar
    17    33    34   ar
    18    34    35   ar
    19    35    36   ar
    20     5     8    1
    21     8     9   ar
    22     9    10   ar
    23    10    11   ar
    24    11    13    1
    25    13    16    1
    26    16    17   ar
    27    17    18   ar
    28    18    19   ar
    29    19    20   ar
    30    20    21   ar
    31    13    14    1
    32    14    15    1
    33    11    12   ar
    34     5     6    1
    35     6     7    2
    36    29    24   ar
    37     6     1   am
    38    36    31   ar
    39    12     8   ar
    40    15    13    1
    41    21    16   ar
@<TRIPOS>MOLECULE
*****
 36 41 0 0 0
SMALL
GASTEIGER

@<TRIPOS>ATOM
      1 N           6.5989   -2.8567   26.4458 N.am    1  UNL1       -0.1902
      2 C           5.6655   -2.3068   27.4832 C.2     1  UNL1        0.4117
      3 O           5.8058   -2.4652   28.9683 O.2     1  UNL1       -0.2257
      4 O           4.5670   -1.5707   26.7750 O.3     1  UNL1       -0.4230
      5 C           4.8216   -1.6657   25.2998 C.3     1  UNL1        0.2777
      6 C           6.0774   -2.4605   25.0964 C.2     1  UNL1        0.2797
      7 O           6.7019   -2.7995   23.7754 O.2     1  UNL1       -0.2700
      8 C           4.8133   -1.5913   23.8017 C.ar    1  UNL1        0.2711
      9 N           5.5533   -0.5904   22.9646 N.ar    1  UNL1       -0.1075
     10 N           5.2611   -0.8851   21.5232 N.ar    1  UNL1       -0.1113
     11 C           4.3404   -2.0682   21.4694 C.ar    1  UNL1        0.2291
     12 O           4.0637   -2.5046   22.8777 O.2     1  UNL1       -0.4193
     13 C           3.7926   -2.7033   20.2258 C.3     1  UNL1        0.0891
     14 C           3.5146   -3.7391   19.1772 C.3     1  UNL1        0.0137
     15 C           4.3793   -4.0778   20.3552 C.3     1  UNL1        0.0137
     16 C           3.0157   -1.5494   19.6646 C.ar    1  UNL1       -0.0144
     17 C           1.7606   -1.0887   20.3447 C.ar    1  UNL1       -0.0038
     18 C           0.9837    0.0652   19.7834 C.ar    1  UNL1       -0.0003
     19 C           1.4619    0.7584   18.5421 C.ar    1  UNL1       -0.0000
     20 C           2.7170    0.2976   17.8621 C.ar    1  UNL1       -0.0003
     21 C           3.4939   -0.8563   18.4233 C.ar    1  UNL1       -0.0038
     22 C           8.9531   -3.0747   27.5229 C.3     1  UNL1        0.0270
     23 C           7.8366   -3.6616   26.7112 C.3     1  UNL1        0.1082
     24 C           7.9576   -5.0533   26.1649 C.ar    1  UNL1       -0.0038
     25 C           7.1285   -6.1611   26.7439 C.ar    1  UNL1       -0.0027
     26 C           7.2496   -7.5528   26.1976 C.ar    1  UNL1       -0.0003
     27 C           8.1998   -7.8367   25.0723 C.ar    1  UNL1       -0.0000
     28 C           9.0290   -6.7289   24.4933 C.ar    1  UNL1       -0.0003
     29 C           8.9079   -5.3373   25.0396 C.ar    1  UNL1       -0.0027
     30 C           3.5642   -0.8554   25.1901 C.3     1  UNL1        0.0849
     31 C           3.4725    0.4820   25.8633 C.ar    1  UNL1       -0.0177
     32 C           4.5577    1.4982   25.6635 C.ar    1  UNL1       -0.0041
     33 C           4.4660    2.8355   26.3366 C.ar    1  UNL1       -0.0003
     34 C           3.2892    3.1567   27.2096 C.ar    1  UNL1       -0.0000
     35 C           2.2041    2.1405   27.4093 C.ar    1  UNL1       -0.0003
     36 C           2.2957    0.8032   26.7362 C.ar    1  UNL1       -0.0041
@<TRIPOS>BOND
     1    23    22    1
     2    23    24    1
     3    24    25   ar
     4    25    26   ar
     5    26    27   ar
     6    27    28   ar
     7    28    29   ar
     8    23     1    1
     9     1     2   am
    10     2     3    2
    11     2     4    1
    12     4     5    1
    13     5    30    1
    14    30    31    1
    15    31    32   ar
    16    32    33   ar
    17    33    34   ar
    18    34    35   ar
    19    35    36   ar
    20     5     8    1
    21     8     9   ar
    22     9    10   ar
    23    10    11   ar
    24    11    13    1
    25    13    16    1
    26    16    17   ar
    27    17    18   ar
    28    18    19   ar
    29    19    20   ar
    30    20    21   ar
    31    13    14    1
    32    14    15    1
    33    11    12   ar
    34     5     6    1
    35     6     7    2
    36    29    24   ar
    37     6     1   am
    38    36    31   ar
    39    12     8   ar
    40    15    13    1
    41    21    16   ar
@<TRIPOS>MOLECULE
*****
 36 41 0 0 0
SMALL
GASTEIGER

@<TRIPOS>ATOM
      1 N          -4.7882  -17.9130   22.2791 N.am    1  UNL1       -0.1902
      2 C          -4.1298  -17.2905   23.4745 C.2     1  UNL1        0.4117
      3 O          -2.7670  -17.6251   24.0044 O.2     1  UNL1       -0.2257
      4 O          -5.0733  -16.2745   24.0468 O.3     1  UNL1       -0.4230
      5 C          -6.3149  -16.2691   23.2052 C.3     1  UNL1        0.2777
      6 C          -6.1387  -17.2817   22.1127 C.2     1  UNL1        0.2797
      7 O          -7.1377  -17.6061   21.0418 O.2     1  UNL1       -0.2700
      8 C          -7.6517  -16.0421   22.5639 C.ar    1  UNL1        0.2711
      9 N          -7.9965  -14.9350   21.6123 N.ar    1  UNL1       -0.1075
     10 N          -9.4364  -15.0909   21.2218 N.ar    1  UNL1       -0.1113
     11 C          -9.9815  -16.2945   21.9321 C.ar    1  UNL1        0.2291
     12 O          -8.8785  -16.8823   22.7615 O.2     1  UNL1       -0.4193
     13 C         -11.3834  -16.8182   21.8307 C.3     1  UNL1        0.0891
     14 C         -12.8774  -16.8792   21.9503 C.3     1  UNL1        0.0137
     15 C         -12.1353  -15.6678   22.4318 C.3     1  UNL1        0.0137
     16 C         -11.1184  -18.1504   21.1945 C.ar    1  UNL1       -0.0144
     17 C         -10.6854  -18.2238   19.7602 C.ar    1  UNL1       -0.0038
     18 C         -10.4204  -19.5560   19.1240 C.ar    1  UNL1       -0.0003
     19 C         -10.5883  -20.8150   19.9220 C.ar    1  UNL1       -0.0000
     20 C         -11.0213  -20.7416   21.3563 C.ar    1  UNL1       -0.0003
     21 C         -11.2863  -19.4094   21.9925 C.ar    1  UNL1       -0.0038
     22 C          -4.8020  -20.3531   21.3871 C.3     1  UNL1        0.0270
     23 C          -4.1996  -18.9795   21.4039 C.3     1  UNL1        0.1082
     24 C          -3.0085  -18.6723   20.5453 C.ar    1  UNL1       -0.0038
     25 C          -3.2024  -18.1496   19.1528 C.ar    1  UNL1       -0.0027
     26 C          -2.0114  -17.8425   18.2944 C.ar    1  UNL1       -0.0003
     27 C          -0.6263  -18.0581   18.8284 C.ar    1  UNL1       -0.0000
     28 C          -0.4324  -18.5808   20.2209 C.ar    1  UNL1       -0.0003
     29 C          -1.6235  -18.8879   21.0794 C.ar    1  UNL1       -0.0027
     30 C          -6.7705  -15.2090   24.1636 C.3     1  UNL1        0.0849
     31 C          -7.2736  -15.5933   25.5235 C.ar    1  UNL1       -0.0177
     32 C          -6.5808  -15.0815   26.7516 C.ar    1  UNL1       -0.0041
     33 C          -7.0838  -15.4658   28.1115 C.ar    1  UNL1       -0.0003
     34 C          -8.2795  -16.3618   28.2433 C.ar    1  UNL1       -0.0000
     35 C          -8.9722  -16.8736   27.0152 C.ar    1  UNL1       -0.0003
     36 C          -8.4692  -16.4893   25.6553 C.ar    1  UNL1       -0.0041
@<TRIPOS>BOND
     1    23    22    1
     2    23    24    1
     3    24    25   ar
     4    25    26   ar
     5    26    27   ar
     6    27    28   ar
     7    28    29   ar
     8    23     1    1
     9     1     2   am
    10     2     3    2
    11     2     4    1
    12     4     5    1
    13     5    30    1
    14    30    31    1
    15    31    32   ar
    16    32    33   ar
    17    33    34   ar
    18    34    35   ar
    19    35    36   ar
    20     5     8    1
    21     8     9   ar
    22     9    10   ar
    23    10    11   ar
    24    11    13    1
    25    13    16    1
    26    16    17   ar
    27    17    18   ar
    28    18    19   ar
    29    19    20   ar
    30    20    21   ar
    31    13    14    1
    32    14    15    1
    33    11    12   ar
    34     5     6    1
    35     6     7    2
    36    29    24   ar
    37     6     1   am
    38    36    31   ar
    39    12     8   ar
    40    15    13    1
    41    21    16   ar
@<TRIPOS>MOLECULE
*****
 36 41 0 0 0
SMALL
GASTEIGER

@<TRIPOS>ATOM
      1 N           6.3543   -3.3000   23.1861 N.am    1  UNL1       -0.1902
      2 C           5.4935   -3.4344   21.9651 C.2     1  UNL1        0.4117
      3 O           5.7644   -4.3251   20.7890 O.2     1  UNL1       -0.2257
      4 O           4.3141   -2.5217   22.1267 O.3     1  UNL1       -0.4230
      5 C           4.4460   -1.8232   23.4476 C.3     1  UNL1        0.2777
      6 C           5.7070   -2.3043   24.1023 C.2     1  UNL1        0.2797
      7 O           6.2289   -1.8664   25.4387 O.2     1  UNL1       -0.2700
      8 C           4.3084   -0.9878   24.6857 C.ar    1  UNL1        0.2711
      9 N           4.8019    0.4180   24.8600 N.ar    1  UNL1       -0.1075
     10 N           4.4517    0.8634   26.2489 N.ar    1  UNL1       -0.1113
     11 C           3.7417   -0.2672   26.9330 C.ar    1  UNL1        0.2291
     12 O           3.6532   -1.4112   25.9668 O.2     1  UNL1       -0.4193
     13 C           3.2130   -0.2557   28.3367 C.3     1  UNL1        0.0891
     14 C           3.1691   -0.4141   29.8276 C.3     1  UNL1        0.0137
     15 C           4.4251   -0.7408   29.0754 C.3     1  UNL1        0.0137
     16 C           1.8175    0.2334   28.0854 C.ar    1  UNL1       -0.0144
     17 C           1.5446    1.1694   26.9455 C.ar    1  UNL1       -0.0038
     18 C           0.1490    1.6585   26.6942 C.ar    1  UNL1       -0.0003
     19 C          -0.9737    1.2115   27.5829 C.ar    1  UNL1       -0.0000
     20 C          -0.7008    0.2755   28.7228 C.ar    1  UNL1       -0.0003
     21 C           0.6948   -0.2136   28.9741 C.ar    1  UNL1       -0.0038
     22 C           8.9195   -3.5346   22.8474 C.3     1  UNL1        0.0270
     23 C           7.6373   -4.0327   23.4454 C.3     1  UNL1        0.1082
     24 C           7.6379   -5.2636   24.3028 C.ar    1  UNL1       -0.0038
     25 C           8.3114   -6.5138   23.8196 C.ar    1  UNL1       -0.0027
     26 C           8.3120   -7.7446   24.6770 C.ar    1  UNL1       -0.0003
     27 C           7.6391   -7.7252   26.0174 C.ar    1  UNL1       -0.0000
     28 C           6.9657   -6.4750   26.5006 C.ar    1  UNL1       -0.0003
     29 C           6.9651   -5.2442   25.6433 C.ar    1  UNL1       -0.0027
     30 C           3.1564   -1.1676   23.0516 C.3     1  UNL1        0.0849
     31 C           3.0478   -0.4620   21.7324 C.ar    1  UNL1       -0.0177
     32 C           4.0633    0.5737   21.3500 C.ar    1  UNL1       -0.0041
     33 C           3.9547    1.2794   20.0308 C.ar    1  UNL1       -0.0003
     34 C           2.8306    0.9494   19.0940 C.ar    1  UNL1       -0.0000
     35 C           1.8152   -0.0863   19.4765 C.ar    1  UNL1       -0.0003
     36 C           1.9238   -0.7919   20.7956 C.ar    1  UNL1       -0.0041
@<TRIPOS>BOND
     1    23    22    1
     2    23    24    1
     3    24    25   ar
     4    25    26   ar
     5    26    27   ar
     6    27    28   ar
     7    28    29   ar
     8    23     1    1
     9     1     2   am
    10     2     3    2
    11     2     4    1
    12     4     5    1
    13     5    30    1
    14    30    31    1
    15    31    32   ar
    16    32    33   ar
    17    33    34   ar
    18    34    35   ar
    19    35    36   ar
    20     5     8    1
    21     8     9   ar
    22     9    10   ar
    23    10    11   ar
    24    11    13    1
    25    13    16    1
    26    16    17   ar
    27    17    18   ar
    28    18    19   ar
    29    19    20   ar
    30    20    21   ar
    31    13    14    1
    32    14    15    1
    33    11    12   ar
    34     5     6    1
    35     6     7    2
    36    29    24   ar
    37     6     1   am
    38    36    31   ar
    39    12     8   ar
    40    15    13    1
    41    21    16   ar
@<TRIPOS>MOLECULE
*****
 36 41 0 0 0
SMALL
GASTEIGER

@<TRIPOS>ATOM
      1 N           0.8837    2.6577   19.4038 N.am    1  UNL1       -0.1902
      2 C          -0.0294    1.7101   20.1237 C.2     1  UNL1        0.4117
      3 O          -1.3185    2.0709   20.8005 O.2     1  UNL1       -0.2257
      4 O           0.5729    0.3384   20.0482 O.3     1  UNL1       -0.4230
      5 C           1.8583    0.4382   19.2815 C.3     1  UNL1        0.2777
      6 C           2.0504    1.8715   18.8833 C.2     1  UNL1        0.2797
      7 O           3.2062    2.4221   18.1017 O.2     1  UNL1       -0.2700
      8 C           3.1604    0.2292   18.5669 C.ar    1  UNL1        0.2711
      9 N           3.3411   -0.4609   17.2474 N.ar    1  UNL1       -0.1075
     10 N           4.8028   -0.4430   16.9111 N.ar    1  UNL1       -0.1113
     11 C           5.5256    0.2582   18.0229 C.ar    1  UNL1        0.2291
     12 O           4.5105    0.6737   19.0462 O.2     1  UNL1       -0.4193
     13 C           7.0038    0.5013   18.0982 C.3     1  UNL1        0.0891
     14 C           8.3528    1.0869   17.8028 C.3     1  UNL1        0.0137
     15 C           7.1451    1.5719   17.0571 C.3     1  UNL1        0.0137
     16 C           7.3759   -0.4849   19.1654 C.ar    1  UNL1       -0.0144
     17 C           7.4973   -0.0365   20.5916 C.ar    1  UNL1       -0.0038
     18 C           7.8694   -1.0226   21.6588 C.ar    1  UNL1       -0.0003
     19 C           8.1202   -2.4573   21.2998 C.ar    1  UNL1       -0.0000
     20 C           7.9988   -2.9057   19.8735 C.ar    1  UNL1       -0.0003
     21 C           7.6267   -1.9195   18.8063 C.ar    1  UNL1       -0.0038
     22 C           1.4575    5.1055   20.0585 C.3     1  UNL1        0.0270
     23 C           0.6681    4.1323   19.2341 C.3     1  UNL1        0.1082
     24 C          -0.3370    4.6338   18.2399 C.ar    1  UNL1       -0.0038
     25 C          -0.7331    3.7752   17.0755 C.ar    1  UNL1       -0.0027
     26 C          -1.7381    4.2767   16.0814 C.ar    1  UNL1       -0.0003
     27 C          -2.3472    5.6369   16.2517 C.ar    1  UNL1       -0.0000
     28 C          -1.9512    6.4955   17.4161 C.ar    1  UNL1       -0.0003
     29 C          -0.9461    5.9940   18.4102 C.ar    1  UNL1       -0.0027
     30 C           1.9384   -1.0388   19.5304 C.3     1  UNL1        0.0849
     31 C           2.8430   -1.5709   20.6021 C.ar    1  UNL1       -0.0177
     32 C           3.7106   -2.7634   20.3274 C.ar    1  UNL1       -0.0041
     33 C           4.6152   -3.2956   21.3990 C.ar    1  UNL1       -0.0003
     34 C           4.6524   -2.6353   22.7453 C.ar    1  UNL1       -0.0000
     35 C           3.7849   -1.4428   23.0200 C.ar    1  UNL1       -0.0003
     36 C           2.8803   -0.9106   21.9484 C.ar    1  UNL1       -0.0041
@<TRIPOS>BOND
     1    23    22    1
     2    23    24    1
     3    24    25   ar
     4    25    26   ar
     5    26    27   ar
     6    27    28   ar
     7    28    29   ar
     8    23     1    1
     9     1     2   am
    10     2     3    2
    11     2     4    1
    12     4     5    1
    13     5    30    1
    14    30    31    1
    15    31    32   ar
    16    32    33   ar
    17    33    34   ar
    18    34    35   ar
    19    35    36   ar
    20     5     8    1
    21     8     9   ar
    22     9    10   ar
    23    10    11   ar
    24    11    13    1
    25    13    16    1
    26    16    17   ar
    27    17    18   ar
    28    18    19   ar
    29    19    20   ar
    30    20    21   ar
    31    13    14    1
    32    14    15    1
    33    11    12   ar
    34     5     6    1
    35     6     7    2
    36    29    24   ar
    37     6     1   am
    38    36    31   ar
    39    12     8   ar
    40    15    13    1
    41    21    16   ar
@<TRIPOS>MOLECULE
*****
 36 41 0 0 0
SMALL
GASTEIGER

@<TRIPOS>ATOM
      1 N           1.7197    1.3388   19.0747 N.am    1  UNL1       -0.1902
      2 C           0.8610    0.3370   19.7883 C.2     1  UNL1        0.4117
      3 O          -0.5421    0.5618   20.2687 O.2     1  UNL1       -0.2257
      4 O           1.6518   -0.9289   19.9373 O.3     1  UNL1       -0.4230
      5 C           2.9992   -0.7095   19.3158 C.3     1  UNL1        0.2777
      6 C           3.0412    0.6919   18.7827 C.2     1  UNL1        0.2797
      7 O           4.2010    1.3339   18.0808 O.2     1  UNL1       -0.2700
      8 C           4.3991   -0.7865   18.7824 C.ar    1  UNL1        0.2711
      9 N           4.8151   -1.4152   17.4856 N.ar    1  UNL1       -0.1075
     10 N           6.3017   -1.2656   17.3538 N.ar    1  UNL1       -0.1113
     11 C           6.8046   -0.5443   18.5692 C.ar    1  UNL1        0.2291
     12 O           5.6286   -0.2482   19.4521 O.2     1  UNL1       -0.4193
     13 C           8.2326   -0.1827   18.8519 C.3     1  UNL1        0.0891
     14 C           9.5320    0.5655   18.8099 C.3     1  UNL1        0.0137
     15 C           8.3583    1.0559   18.0150 C.3     1  UNL1        0.0137
     16 C           8.6029   -1.2955   19.7870 C.ar    1  UNL1       -0.0144
     17 C           8.4957   -1.0962   21.2698 C.ar    1  UNL1       -0.0038
     18 C           8.8659   -2.2091   22.2049 C.ar    1  UNL1       -0.0003
     19 C           9.3434   -3.5214   21.6571 C.ar    1  UNL1       -0.0000
     20 C           9.4505   -3.7207   20.1743 C.ar    1  UNL1       -0.0003
     21 C           9.0803   -2.6078   19.2392 C.ar    1  UNL1       -0.0038
     22 C           0.1008    2.9872   17.8866 C.3     1  UNL1        0.0270
     23 C           1.3260    2.7411   18.7161 C.3     1  UNL1        0.1082
     24 C           2.1577    3.8972   19.1871 C.ar    1  UNL1       -0.0038
     25 C           2.9261    3.7945   20.4712 C.ar    1  UNL1       -0.0027
     26 C           3.7577    4.9506   20.9421 C.ar    1  UNL1       -0.0003
     27 C           3.8208    6.2095   20.1290 C.ar    1  UNL1       -0.0000
     28 C           3.0524    6.3122   18.8449 C.ar    1  UNL1       -0.0003
     29 C           2.2208    5.1561   18.3740 C.ar    1  UNL1       -0.0027
     30 C           3.2499   -2.1270   19.7374 C.3     1  UNL1        0.0849
     31 C           3.9594   -2.4114   21.0281 C.ar    1  UNL1       -0.0177
     32 C           4.9276   -3.5538   21.1157 C.ar    1  UNL1       -0.0041
     33 C           5.6371   -3.8383   22.4063 C.ar    1  UNL1       -0.0003
     34 C           5.3784   -2.9804   23.6093 C.ar    1  UNL1       -0.0000
     35 C           4.4103   -1.8380   23.5216 C.ar    1  UNL1       -0.0003
     36 C           3.7008   -1.5535   22.2310 C.ar    1  UNL1       -0.0041
@<TRIPOS>BOND
     1    23    22    1
     2    23    24    1
     3    24    25   ar
     4    25    26   ar
     5    26    27   ar
     6    27    28   ar
     7    28    29   ar
     8    23     1    1
     9     1     2   am
    10     2     3    2
    11     2     4    1
    12     4     5    1
    13     5    30    1
    14    30    31    1
    15    31    32   ar
    16    32    33   ar
    17    33    34   ar
    18    34    35   ar
    19    35    36   ar
    20     5     8    1
    21     8     9   ar
    22     9    10   ar
    23    10    11   ar
    24    11    13    1
    25    13    16    1
    26    16    17   ar
    27    17    18   ar
    28    18    19   ar
    29    19    20   ar
    30    20    21   ar
    31    13    14    1
    32    14    15    1
    33    11    12   ar
    34     5     6    1
    35     6     7    2
    36    29    24   ar
    37     6     1   am
    38    36    31   ar
    39    12     8   ar
    40    15    13    1
    41    21    16   ar
