@<TRIPOS>MOLECULE
*****
 23 25 0 0 0
SMALL
GASTEIGER

@<TRIPOS>ATOM
      1 N          -5.7236  -18.7593   21.6417 N.3     1  UNL1       -0.2726
      2 C          -6.9333  -18.2487   22.3668 C.3     1  UNL1        0.0721
      3 C          -8.2972  -18.4269   21.7684 C.3     1  UNL1        0.0178
      4 C          -8.4514  -19.1157   20.4449 C.3     1  UNL1        0.0087
      5 C          -7.2416  -19.6264   19.7198 C.3     1  UNL1        0.0178
      6 C          -5.8777  -19.4482   20.3182 C.3     1  UNL1        0.0721
      7 C          -4.3597  -18.5811   22.2401 C.3     1  UNL1        0.0759
      8 C          -4.1889  -17.7664   23.4880 C.3     1  UNL1        0.0646
      9 C          -4.0222  -16.2786   23.3954 C.3     1  UNL1        0.2068
     10 O          -5.2272  -15.3857   23.4235 O.3     1  UNL1       -0.4754
     11 C          -8.0054  -15.4664   26.9625 C.ar    1  UNL1        0.0002
     12 C          -6.5205  -15.4661   27.1746 C.ar    1  UNL1        0.0031
     13 C          -5.5944  -15.4392   25.9949 C.ar    1  UNL1        0.0369
     14 C          -6.1533  -15.4126   24.6032 C.ar    1  UNL1        0.1386
     15 C          -7.6382  -15.4129   24.3911 C.ar    1  UNL1        0.0369
     16 C          -8.5642  -15.4398   25.5708 C.ar    1  UNL1        0.0031
     17 C          -9.8152  -19.2940   19.8465 C.3     1  UNL1        0.0453
     18 C         -10.9557  -18.4374   20.3107 C.ar    1  UNL1        0.0541
     19 C         -11.3396  -17.1004   19.7495 C.ar    1  UNL1        0.1131
     20 N         -12.5337  -16.6041   20.5096 N.ar    1  UNL1       -0.2229
     21 C         -12.8878  -17.6345   21.5407 C.ar    1  UNL1        0.1748
     22 N         -11.9125  -18.7675   21.4178 N.ar    1  UNL1       -0.3382
     23 H         -11.9022  -19.5843   21.9672 H       1  UNL1        0.1672
@<TRIPOS>BOND
     1    11    12   ar
     2    12    13   ar
     3    13    14   ar
     4    14    10    1
     5    10     9    1
     6     9     8    1
     7     8     7    1
     8     7     1    1
     9     1     2    1
    10     2     3    1
    11     3     4    1
    12     4    17    1
    13    17    18    1
    14    18    19   ar
    15    19    20   ar
    16    20    21   ar
    17    21    22   ar
    18     4     5    1
    19     5     6    1
    20    14    15   ar
    21    15    16   ar
    22    16    11   ar
    23     6     1    1
    24    22    18   ar
    25    22    23    1
@<TRIPOS>MOLECULE
*****
 23 25 0 0 0
SMALL
GASTEIGER

@<TRIPOS>ATOM
      1 N          -9.2052  -19.2797   21.7398 N.3     1  UNL1       -0.2726
      2 C          -8.1429  -19.7611   22.6831 C.3     1  UNL1        0.0721
      3 C          -6.8086  -20.1942   22.1521 C.3     1  UNL1        0.0178
      4 C          -6.5365  -20.1459   20.6778 C.3     1  UNL1        0.0087
      5 C          -7.5987  -19.6645   19.7344 C.3     1  UNL1        0.0178
      6 C          -8.9331  -19.2314   20.2654 C.3     1  UNL1        0.0721
      7 C         -10.5395  -18.8466   22.2707 C.3     1  UNL1        0.0759
      8 C         -10.6133  -17.9126   23.4422 C.3     1  UNL1        0.0646
      9 C         -10.0628  -16.5219   23.3284 C.3     1  UNL1        0.2068
     10 O          -8.5799  -16.2980   23.3517 O.3     1  UNL1       -0.4754
     11 C          -6.5114  -15.3284   27.2287 C.ar    1  UNL1        0.0002
     12 C          -7.9323  -15.8088   27.2365 C.ar    1  UNL1        0.0031
     13 C          -8.6218  -16.1320   25.9442 C.ar    1  UNL1        0.0369
     14 C          -7.8904  -15.9748   24.6441 C.ar    1  UNL1        0.1386
     15 C          -6.4695  -15.4943   24.6363 C.ar    1  UNL1        0.0369
     16 C          -5.7800  -15.1711   25.9287 C.ar    1  UNL1        0.0031
     17 C          -5.2021  -20.5790   20.1468 C.3     1  UNL1        0.0453
     18 C          -4.0228  -19.6568   20.2395 C.ar    1  UNL1        0.0541
     19 C          -2.8339  -19.8333   21.1370 C.ar    1  UNL1        0.1131
     20 N          -1.9016  -18.6818   20.9032 N.ar    1  UNL1       -0.2229
     21 C          -2.5143  -17.7936   19.8612 C.ar    1  UNL1        0.1748
     22 N          -3.8252  -18.3962   19.4510 N.ar    1  UNL1       -0.3382
     23 H          -4.4468  -18.0289   18.7818 H       1  UNL1        0.1672
@<TRIPOS>BOND
     1    11    12   ar
     2    12    13   ar
     3    13    14   ar
     4    14    10    1
     5    10     9    1
     6     9     8    1
     7     8     7    1
     8     7     1    1
     9     1     2    1
    10     2     3    1
    11     3     4    1
    12     4    17    1
    13    17    18    1
    14    18    19   ar
    15    19    20   ar
    16    20    21   ar
    17    21    22   ar
    18     4     5    1
    19     5     6    1
    20    14    15   ar
    21    15    16   ar
    22    16    11   ar
    23     6     1    1
    24    22    18   ar
    25    22    23    1
@<TRIPOS>MOLECULE
*****
 23 25 0 0 0
SMALL
GASTEIGER

@<TRIPOS>ATOM
      1 N          -8.4725  -19.0552   20.3945 N.3     1  UNL1       -0.2726
      2 C          -7.3713  -19.8799   19.7969 C.3     1  UNL1        0.0721
      3 C          -6.0245  -19.9230   20.4557 C.3     1  UNL1        0.0178
      4 C          -5.7788  -19.1414   21.7122 C.3     1  UNL1        0.0087
      5 C          -6.8800  -18.3167   22.3098 C.3     1  UNL1        0.0178
      6 C          -8.2269  -18.2735   21.6510 C.3     1  UNL1        0.0721
      7 C          -9.8194  -19.0120   19.7356 C.3     1  UNL1        0.0759
      8 C         -11.0573  -19.2724   20.5417 C.3     1  UNL1        0.0646
      9 C         -11.9841  -18.1422   20.8790 C.3     1  UNL1        0.2068
     10 O         -12.3396  -17.8653   22.3097 O.3     1  UNL1       -0.4754
     11 C          -9.0874  -17.2032   25.3486 C.ar    1  UNL1        0.0002
     12 C          -9.4337  -16.1184   24.3722 C.ar    1  UNL1        0.0031
     13 C         -10.5177  -16.3391   23.3593 C.ar    1  UNL1        0.0369
     14 C         -11.2555  -17.6446   23.3227 C.ar    1  UNL1        0.1386
     15 C         -10.9092  -18.7294   24.2990 C.ar    1  UNL1        0.0369
     16 C          -9.8252  -18.5087   25.3120 C.ar    1  UNL1        0.0031
     17 C          -4.4319  -19.1846   22.3710 C.3     1  UNL1        0.0453
     18 C          -3.2130  -18.7448   21.6156 C.ar    1  UNL1        0.0541
     19 C          -2.1261  -19.6396   21.0978 C.ar    1  UNL1        0.1131
     20 N          -1.1083  -18.7809   20.4075 N.ar    1  UNL1       -0.2229
     21 C          -1.5662  -17.3553   20.4985 C.ar    1  UNL1        0.1748
     22 N          -2.8670  -17.3331   21.2452 N.ar    1  UNL1       -0.3382
     23 H          -3.4000  -16.5325   21.4552 H       1  UNL1        0.1672
@<TRIPOS>BOND
     1    11    12   ar
     2    12    13   ar
     3    13    14   ar
     4    14    10    1
     5    10     9    1
     6     9     8    1
     7     8     7    1
     8     7     1    1
     9     1     2    1
    10     2     3    1
    11     3     4    1
    12     4    17    1
    13    17    18    1
    14    18    19   ar
    15    19    20   ar
    16    20    21   ar
    17    21    22   ar
    18     4     5    1
    19     5     6    1
    20    14    15   ar
    21    15    16   ar
    22    16    11   ar
    23     6     1    1
    24    22    18   ar
    25    22    23    1
@<TRIPOS>MOLECULE
*****
 23 25 0 0 0
SMALL
GASTEIGER

@<TRIPOS>ATOM
      1 N          -6.4856  -16.5236   23.5314 N.3     1  UNL1       -0.2726
      2 C          -5.0477  -16.2835   23.8847 C.3     1  UNL1        0.0721
      3 C          -3.9824  -17.1965   23.3539 C.3     1  UNL1        0.0178
      4 C          -4.3550  -18.3495   22.4697 C.3     1  UNL1        0.0087
      5 C          -5.7929  -18.5896   22.1163 C.3     1  UNL1        0.0178
      6 C          -6.8582  -17.6767   22.6472 C.3     1  UNL1        0.0721
      7 C          -7.5508  -15.6107   24.0622 C.3     1  UNL1        0.0759
      8 C          -8.9447  -16.1251   24.2691 C.3     1  UNL1        0.0646
      9 C          -9.2143  -17.1574   25.3234 C.3     1  UNL1        0.2068
     10 O         -10.0739  -18.3453   25.0076 O.3     1  UNL1       -0.4754
     11 C         -11.8936  -18.7814   20.9150 C.ar    1  UNL1        0.0002
     12 C         -10.6626  -19.5592   21.2753 C.ar    1  UNL1        0.0031
     13 C         -10.0561  -19.4138   22.6394 C.ar    1  UNL1        0.0369
     14 C         -10.6805  -18.4907   23.6434 C.ar    1  UNL1        0.1386
     15 C         -11.9114  -17.7129   23.2832 C.ar    1  UNL1        0.0369
     16 C         -12.5180  -17.8583   21.9190 C.ar    1  UNL1        0.0031
     17 C          -3.2897  -19.2624   21.9389 C.3     1  UNL1        0.0453
     18 C          -2.3279  -18.7680   20.8995 C.ar    1  UNL1        0.0541
     19 C          -2.5247  -18.8333   19.4139 C.ar    1  UNL1        0.1131
     20 N          -1.3188  -18.2272   18.7594 N.ar    1  UNL1       -0.2229
     21 C          -0.3767  -17.7871   19.8406 C.ar    1  UNL1        0.1748
     22 N          -1.0004  -18.1214   21.1632 N.ar    1  UNL1       -0.3382
     23 H          -0.6074  -17.9470   22.0489 H       1  UNL1        0.1672
@<TRIPOS>BOND
     1    11    12   ar
     2    12    13   ar
     3    13    14   ar
     4    14    10    1
     5    10     9    1
     6     9     8    1
     7     8     7    1
     8     7     1    1
     9     1     2    1
    10     2     3    1
    11     3     4    1
    12     4    17    1
    13    17    18    1
    14    18    19   ar
    15    19    20   ar
    16    20    21   ar
    17    21    22   ar
    18     4     5    1
    19     5     6    1
    20    14    15   ar
    21    15    16   ar
    22    16    11   ar
    23     6     1    1
    24    22    18   ar
    25    22    23    1
@<TRIPOS>MOLECULE
*****
 23 25 0 0 0
SMALL
GASTEIGER

@<TRIPOS>ATOM
      1 N          -7.3422  -18.9374   21.9334 N.3     1  UNL1       -0.2726
      2 C          -6.2515  -18.2665   22.7145 C.3     1  UNL1        0.0721
      3 C          -4.8165  -18.6135   22.4491 C.3     1  UNL1        0.0178
      4 C          -4.4722  -19.6314   21.4025 C.3     1  UNL1        0.0087
      5 C          -5.5629  -20.3024   20.6214 C.3     1  UNL1        0.0178
      6 C          -6.9979  -19.9554   20.8868 C.3     1  UNL1        0.0721
      7 C          -8.7771  -18.5904   22.1988 C.3     1  UNL1        0.0759
      8 C          -9.2031  -18.1596   23.5710 C.3     1  UNL1        0.0646
      9 C         -10.1722  -17.0263   23.7342 C.3     1  UNL1        0.2068
     10 O          -9.7079  -15.7186   24.3037 O.3     1  UNL1       -0.4754
     11 C          -5.7167  -15.4524   26.3650 C.ar    1  UNL1        0.0002
     12 C          -5.8188  -15.1904   24.8916 C.ar    1  UNL1        0.0031
     13 C          -7.1492  -15.2792   24.2045 C.ar    1  UNL1        0.0369
     14 C          -8.3775  -15.6299   24.9908 C.ar    1  UNL1        0.1386
     15 C          -8.2754  -15.8918   26.4642 C.ar    1  UNL1        0.0369
     16 C          -6.9449  -15.8031   27.1513 C.ar    1  UNL1        0.0031
     17 C          -3.0372  -19.9784   21.1371 C.3     1  UNL1        0.0453
     18 C          -2.1399  -18.9883   20.4556 C.ar    1  UNL1        0.0541
     19 C          -2.1485  -18.6506   18.9941 C.ar    1  UNL1        0.1131
     20 N          -1.0903  -17.6157   18.7512 N.ar    1  UNL1       -0.2229
     21 C          -0.4277  -17.3137   20.0626 C.ar    1  UNL1        0.1748
     22 N          -1.0763  -18.1620   21.1160 N.ar    1  UNL1       -0.3382
     23 H          -0.8447  -18.1743   22.0728 H       1  UNL1        0.1672
@<TRIPOS>BOND
     1    11    12   ar
     2    12    13   ar
     3    13    14   ar
     4    14    10    1
     5    10     9    1
     6     9     8    1
     7     8     7    1
     8     7     1    1
     9     1     2    1
    10     2     3    1
    11     3     4    1
    12     4    17    1
    13    17    18    1
    14    18    19   ar
    15    19    20   ar
    16    20    21   ar
    17    21    22   ar
    18     4     5    1
    19     5     6    1
    20    14    15   ar
    21    15    16   ar
    22    16    11   ar
    23     6     1    1
    24    22    18   ar
    25    22    23    1
@<TRIPOS>MOLECULE
*****
 23 25 0 0 0
SMALL
GASTEIGER

@<TRIPOS>ATOM
      1 N          -7.8627  -19.8860   21.7974 N.3     1  UNL1       -0.2726
      2 C          -6.6218  -20.4399   22.4323 C.3     1  UNL1        0.0721
      3 C          -5.2967  -20.2895   21.7456 C.3     1  UNL1        0.0178
      4 C          -5.2126  -19.5851   20.4239 C.3     1  UNL1        0.0087
      5 C          -6.4536  -19.0312   19.7889 C.3     1  UNL1        0.0178
      6 C          -7.7787  -19.1816   20.4757 C.3     1  UNL1        0.0721
      7 C          -9.1878  -20.0364   22.4842 C.3     1  UNL1        0.0759
      8 C          -9.2414  -20.3623   23.9474 C.3     1  UNL1        0.0646
      9 C         -10.2499  -19.6877   24.8295 C.3     1  UNL1        0.2068
     10 O         -10.4774  -18.2096   24.7144 O.3     1  UNL1       -0.4754
     11 C         -12.3573  -16.5049   20.9983 C.ar    1  UNL1        0.0002
     12 C         -13.0436  -17.6083   21.7475 C.ar    1  UNL1        0.0031
     13 C         -12.4169  -18.1766   22.9862 C.ar    1  UNL1        0.0369
     14 C         -11.1040  -17.6413   23.4757 C.ar    1  UNL1        0.1386
     15 C         -10.4177  -16.5379   22.7265 C.ar    1  UNL1        0.0369
     16 C         -11.0444  -15.9696   21.4878 C.ar    1  UNL1        0.0031
     17 C          -3.8876  -19.4347   19.7372 C.3     1  UNL1        0.0453
     18 C          -2.9290  -18.3701   20.1817 C.ar    1  UNL1        0.0541
     19 C          -1.5820  -18.0910   19.5837 C.ar    1  UNL1        0.1131
     20 N          -0.9696  -16.9460   20.3347 N.ar    1  UNL1       -0.2229
     21 C          -1.9383  -16.5174   21.3968 C.ar    1  UNL1        0.1748
     22 N          -3.1492  -17.3975   21.3022 N.ar    1  UNL1       -0.3382
     23 H          -3.9483  -17.3459   21.8750 H       1  UNL1        0.1672
@<TRIPOS>BOND
     1    11    12   ar
     2    12    13   ar
     3    13    14   ar
     4    14    10    1
     5    10     9    1
     6     9     8    1
     7     8     7    1
     8     7     1    1
     9     1     2    1
    10     2     3    1
    11     3     4    1
    12     4    17    1
    13    17    18    1
    14    18    19   ar
    15    19    20   ar
    16    20    21   ar
    17    21    22   ar
    18     4     5    1
    19     5     6    1
    20    14    15   ar
    21    15    16   ar
    22    16    11   ar
    23     6     1    1
    24    22    18   ar
    25    22    23    1
@<TRIPOS>MOLECULE
*****
 23 25 0 0 0
SMALL
GASTEIGER

@<TRIPOS>ATOM
      1 N          -8.5782  -16.2806   25.9601 N.3     1  UNL1       -0.2726
      2 C          -8.9831  -17.6778   26.3260 C.3     1  UNL1        0.0721
      3 C          -9.9272  -18.4403   25.4444 C.3     1  UNL1        0.0178
      4 C         -10.4664  -17.8057   24.1969 C.3     1  UNL1        0.0087
      5 C         -10.0615  -16.4084   23.8309 C.3     1  UNL1        0.0178
      6 C          -9.1174  -15.6459   24.7125 C.3     1  UNL1        0.0721
      7 C          -7.6341  -15.5181   26.8417 C.3     1  UNL1        0.0759
      8 C          -6.1564  -15.7553   26.7405 C.3     1  UNL1        0.0646
      9 C          -5.3329  -14.9561   25.7744 C.3     1  UNL1        0.2068
     10 O          -5.5605  -15.0979   24.2986 O.3     1  UNL1       -0.4754
     11 C          -5.0949  -19.1154   22.3257 C.ar    1  UNL1        0.0002
     12 C          -3.9151  -18.4601   22.9803 C.ar    1  UNL1        0.0031
     13 C          -4.0703  -17.1209   23.6379 C.ar    1  UNL1        0.0369
     14 C          -5.4053  -16.4370   23.6410 C.ar    1  UNL1        0.1386
     15 C          -6.5852  -17.0924   22.9864 C.ar    1  UNL1        0.0369
     16 C          -6.4300  -18.4316   22.3288 C.ar    1  UNL1        0.0031
     17 C         -11.4105  -18.5682   23.3153 C.3     1  UNL1        0.0453
     18 C         -11.2383  -18.5344   21.8256 C.ar    1  UNL1        0.0541
     19 C         -11.9531  -17.6194   20.8759 C.ar    1  UNL1        0.1131
     20 N         -11.4776  -17.9293   19.4874 N.ar    1  UNL1       -0.2229
     21 C         -10.4690  -19.0358   19.5790 C.ar    1  UNL1        0.1748
     22 N         -10.3211  -19.4098   21.0241 N.ar    1  UNL1       -0.3382
     23 H          -9.7265  -20.1073   21.3834 H       1  UNL1        0.1672
@<TRIPOS>BOND
     1    11    12   ar
     2    12    13   ar
     3    13    14   ar
     4    14    10    1
     5    10     9    1
     6     9     8    1
     7     8     7    1
     8     7     1    1
     9     1     2    1
    10     2     3    1
    11     3     4    1
    12     4    17    1
    13    17    18    1
    14    18    19   ar
    15    19    20   ar
    16    20    21   ar
    17    21    22   ar
    18     4     5    1
    19     5     6    1
    20    14    15   ar
    21    15    16   ar
    22    16    11   ar
    23     6     1    1
    24    22    18   ar
    25    22    23    1
@<TRIPOS>MOLECULE
*****
 23 25 0 0 0
SMALL
GASTEIGER

@<TRIPOS>ATOM
      1 N         -13.9186   -3.4019   18.8743 N.3     1  UNL1       -0.2726
      2 C         -13.3832   -4.2728   19.9719 C.3     1  UNL1        0.0721
      3 C         -13.3086   -5.7588   19.7814 C.3     1  UNL1        0.0178
      4 C         -13.7694   -6.3739   18.4933 C.3     1  UNL1        0.0087
      5 C         -14.3048   -5.5030   17.3955 C.3     1  UNL1        0.0178
      6 C         -14.3794   -4.0170   17.5860 C.3     1  UNL1        0.0721
      7 C         -13.9932   -1.9159   19.0648 C.3     1  UNL1        0.0759
      8 C         -12.9111   -1.0341   18.5155 C.3     1  UNL1        0.0646
      9 C         -11.4717   -1.4241   18.6771 C.3     1  UNL1        0.2068
     10 O         -10.7666   -2.1619   17.5779 O.3     1  UNL1       -0.4754
     11 C          -9.9860   -6.5762   17.9713 C.ar    1  UNL1        0.0002
     12 C         -10.6074   -6.0331   16.7188 C.ar    1  UNL1        0.0031
     13 C         -10.8676   -4.5617   16.5877 C.ar    1  UNL1        0.0369
     14 C         -10.5064   -3.6333   17.7090 C.ar    1  UNL1        0.1386
     15 C          -9.8849   -4.1764   18.9615 C.ar    1  UNL1        0.0369
     16 C          -9.6247   -5.6478   19.0927 C.ar    1  UNL1        0.0031
     17 C         -13.6948   -7.8599   18.3028 C.3     1  UNL1        0.0453
     18 C         -14.8662   -8.7226   18.6683 C.ar    1  UNL1        0.0541
     19 C         -15.2834   -9.9841   17.9721 C.ar    1  UNL1        0.1131
     20 N         -16.5010  -10.5164   18.6677 N.ar    1  UNL1       -0.2229
     21 C         -16.8364   -9.5840   19.7938 C.ar    1  UNL1        0.1748
     22 N         -15.8260   -8.4753   19.7942 N.ar    1  UNL1       -0.3382
     23 H         -15.7977   -7.7183   20.4229 H       1  UNL1        0.1672
@<TRIPOS>BOND
     1    11    12   ar
     2    12    13   ar
     3    13    14   ar
     4    14    10    1
     5    10     9    1
     6     9     8    1
     7     8     7    1
     8     7     1    1
     9     1     2    1
    10     2     3    1
    11     3     4    1
    12     4    17    1
    13    17    18    1
    14    18    19   ar
    15    19    20   ar
    16    20    21   ar
    17    21    22   ar
    18     4     5    1
    19     5     6    1
    20    14    15   ar
    21    15    16   ar
    22    16    11   ar
    23     6     1    1
    24    22    18   ar
    25    22    23    1
@<TRIPOS>MOLECULE
*****
 23 25 0 0 0
SMALL
GASTEIGER

@<TRIPOS>ATOM
      1 N          -7.8097  -19.4326   20.9113 N.3     1  UNL1       -0.2726
      2 C          -7.2078  -19.9622   22.1790 C.3     1  UNL1        0.0721
      3 C          -5.7181  -20.0780   22.3108 C.3     1  UNL1        0.0178
      4 C          -4.8303  -19.6642   21.1748 C.3     1  UNL1        0.0087
      5 C          -5.4322  -19.1346   19.9069 C.3     1  UNL1        0.0178
      6 C          -6.9219  -19.0188   19.7752 C.3     1  UNL1        0.0721
      7 C          -9.2994  -19.3168   20.7795 C.3     1  UNL1        0.0759
      8 C          -9.9485  -17.9645   20.7683 C.3     1  UNL1        0.0646
      9 C         -10.2888  -17.2852   22.0617 C.3     1  UNL1        0.2068
     10 O          -9.6380  -17.7316   23.3372 O.3     1  UNL1       -0.4754
     11 C          -6.4455  -15.1958   25.2417 C.ar    1  UNL1        0.0002
     12 C          -6.2983  -15.6421   23.8173 C.ar    1  UNL1        0.0031
     13 C          -7.3625  -16.4874   23.1824 C.ar    1  UNL1        0.0369
     14 C          -8.5738  -16.8864   23.9720 C.ar    1  UNL1        0.1386
     15 C          -8.7209  -16.4400   25.3965 C.ar    1  UNL1        0.0369
     16 C          -7.6568  -15.5947   26.0313 C.ar    1  UNL1        0.0031
     17 C          -3.3406  -19.7800   21.3065 C.3     1  UNL1        0.0453
     18 C          -2.4689  -18.5898   21.0355 C.ar    1  UNL1        0.0541
     19 C          -2.4357  -17.3209   21.8348 C.ar    1  UNL1        0.1131
     20 N          -1.4237  -16.4063   21.2108 N.ar    1  UNL1       -0.2229
     21 C          -0.8314  -17.1100   20.0258 C.ar    1  UNL1        0.1748
     22 N          -1.4774  -18.4594   19.9175 N.ar    1  UNL1       -0.3382
     23 H          -1.2845  -19.1401   19.2328 H       1  UNL1        0.1672
@<TRIPOS>BOND
     1    11    12   ar
     2    12    13   ar
     3    13    14   ar
     4    14    10    1
     5    10     9    1
     6     9     8    1
     7     8     7    1
     8     7     1    1
     9     1     2    1
    10     2     3    1
    11     3     4    1
    12     4    17    1
    13    17    18    1
    14    18    19   ar
    15    19    20   ar
    16    20    21   ar
    17    21    22   ar
    18     4     5    1
    19     5     6    1
    20    14    15   ar
    21    15    16   ar
    22    16    11   ar
    23     6     1    1
    24    22    18   ar
    25    22    23    1
