@<TRIPOS>MOLECULE
*****
 26 28 0 0 0
SMALL
GASTEIGER

@<TRIPOS>ATOM
      1 C          -9.0947  -19.0084   20.8967 C.2     1  UNL1        0.2685
      2 O          -8.9998  -20.0006   19.7757 O.2     1  UNL1       -0.2682
      3 N          -8.1205  -19.0681   22.0357 N.am    1  UNL1       -0.2723
      4 C          -8.2154  -18.0758   23.1566 C.3     1  UNL1        0.0761
      5 C          -9.0515  -18.3849   24.3630 C.3     1  UNL1        0.0212
      6 C          -9.1464  -17.3927   25.4839 C.3     1  UNL1        0.0172
      7 C          -8.4053  -16.0914   25.3984 C.3     1  UNL1        0.0509
      8 N          -8.5003  -15.0991   26.5193 N.3     1  UNL1       -0.3222
      9 C          -7.5692  -15.7823   24.1920 C.3     1  UNL1        0.0172
     10 C          -7.4743  -16.7745   23.0711 C.3     1  UNL1        0.0212
     11 H          -9.1056  -15.4703   27.2516 H       1  UNL1        0.1188
     12 H          -8.8896  -14.2245   26.1672 H       1  UNL1        0.1188
     13 C         -13.0240  -15.8156   22.3958 C.3     1  UNL1        0.1321
     14 N         -11.9700  -16.4888   21.5677 N.ar    1  UNL1       -0.3057
     15 C         -11.6483  -16.1864   20.1341 C.ar    1  UNL1        0.1787
     16 N         -10.5321  -17.0935   19.7083 N.ar    1  UNL1       -0.2192
     17 C         -10.1639  -17.9564   20.8786 C.ar    1  UNL1        0.1535
     18 C         -11.0525  -17.5828   22.0279 C.ar    1  UNL1        0.1012
     19 C          -7.0513  -20.1200   22.0537 C.3     1  UNL1        0.1204
     20 C          -5.6663  -19.7899   21.5815 C.ar    1  UNL1       -0.0015
     21 C          -5.2081  -20.2424   20.2268 C.ar    1  UNL1       -0.0026
     22 C          -3.8231  -19.9123   19.7547 C.ar    1  UNL1        0.0006
     23 C          -2.8965  -19.1298   20.6372 C.ar    1  UNL1        0.0114
     24 C          -3.3547  -18.6773   21.9919 C.ar    1  UNL1        0.0574
     25 CL         -2.4280  -17.8947   22.8744 Cl      1  UNL1       -0.0823
     26 C          -4.7396  -19.0074   22.4641 C.ar    1  UNL1        0.0088
@<TRIPOS>BOND
     1    13    14    1
     2    14    15   ar
     3    15    16   ar
     4    16    17   ar
     5    17     1    1
     6     1     2    2
     7     1     3   am
     8     3    19    1
     9    19    20    1
    10    20    21   ar
    11    21    22   ar
    12    22    23   ar
    13    23    24   ar
    14    24    25    1
    15    24    26   ar
    16     4     3    1
    17     4     5    1
    18     5     6    1
    19     6     7    1
    20     7     8    1
    21     7     9    1
    22     9    10    1
    23    17    18   ar
    24    18    14   ar
    25    26    20   ar
    26    10     4    1
    27     8    11    1
    28     8    12    1
@<TRIPOS>MOLECULE
*****
 26 28 0 0 0
SMALL
GASTEIGER

@<TRIPOS>ATOM
      1 C          -5.8101  -20.3396   20.7895 C.2     1  UNL1        0.2685
      2 O          -6.2572  -21.5755   20.0667 O.2     1  UNL1       -0.2682
      3 N          -6.7203  -19.6815   21.7837 N.am    1  UNL1       -0.2723
      4 C          -6.2731  -18.4455   22.5066 C.3     1  UNL1        0.0761
      5 C          -4.8578  -18.3299   22.9896 C.3     1  UNL1        0.0212
      6 C          -4.4106  -17.0940   23.7125 C.3     1  UNL1        0.0172
      7 C          -5.3788  -15.9737   23.9523 C.3     1  UNL1        0.0509
      8 N          -4.9316  -14.7378   24.6752 N.3     1  UNL1       -0.3222
      9 C          -6.7942  -16.0893   23.4692 C.3     1  UNL1        0.0172
     10 C          -7.2413  -17.3252   22.7464 C.3     1  UNL1        0.0212
     11 H          -3.9480  -14.8295   24.9291 H       1  UNL1        0.1188
     12 H          -5.4908  -14.6166   25.5196 H       1  UNL1        0.1188
     13 C          -1.8998  -17.4675   18.7059 C.3     1  UNL1        0.1321
     14 N          -2.6553  -18.4415   19.5605 N.ar    1  UNL1       -0.3057
     15 C          -2.0725  -19.3034   20.6410 C.ar    1  UNL1        0.1787
     16 N          -3.1833  -20.1193   21.2329 N.ar    1  UNL1       -0.2192
     17 C          -4.4527  -19.7617   20.5182 C.ar    1  UNL1        0.1535
     18 C          -4.1265  -18.7248   19.4846 C.ar    1  UNL1        0.1012
     19 C          -8.0777  -20.2593   22.0550 C.3     1  UNL1        0.1204
     20 C          -9.3079  -19.5258   21.6092 C.ar    1  UNL1       -0.0015
     21 C          -9.4660  -19.1316   20.1706 C.ar    1  UNL1       -0.0026
     22 C         -10.6962  -18.3981   19.7249 C.ar    1  UNL1        0.0006
     23 C         -11.7681  -18.0588   20.7178 C.ar    1  UNL1        0.0114
     24 C         -11.6100  -18.4530   22.1563 C.ar    1  UNL1        0.0574
     25 CL        -12.6819  -18.1136   23.1492 Cl      1  UNL1       -0.0823
     26 C         -10.3798  -19.1864   22.6021 C.ar    1  UNL1        0.0088
@<TRIPOS>BOND
     1    13    14    1
     2    14    15   ar
     3    15    16   ar
     4    16    17   ar
     5    17     1    1
     6     1     2    2
     7     1     3   am
     8     3    19    1
     9    19    20    1
    10    20    21   ar
    11    21    22   ar
    12    22    23   ar
    13    23    24   ar
    14    24    25    1
    15    24    26   ar
    16     4     3    1
    17     4     5    1
    18     5     6    1
    19     6     7    1
    20     7     8    1
    21     7     9    1
    22     9    10    1
    23    17    18   ar
    24    18    14   ar
    25    26    20   ar
    26    10     4    1
    27     8    11    1
    28     8    12    1
@<TRIPOS>MOLECULE
*****
 26 28 0 0 0
SMALL
GASTEIGER

@<TRIPOS>ATOM
      1 C          -5.3713  -20.1992   20.7410 C.2     1  UNL1        0.2685
      2 O          -5.6602  -21.5023   20.0565 O.2     1  UNL1       -0.2682
      3 N          -6.2218  -19.7525   21.8930 N.am    1  UNL1       -0.2723
      4 C          -5.9329  -18.4494   22.5776 C.3     1  UNL1        0.0761
      5 C          -7.0128  -17.4171   22.7118 C.3     1  UNL1        0.0212
      6 C          -6.7239  -16.1141   23.3963 C.3     1  UNL1        0.0172
      7 C          -5.3550  -15.8433   23.9465 C.3     1  UNL1        0.0509
      8 N          -5.0661  -14.5402   24.6311 N.3     1  UNL1       -0.3222
      9 C          -4.2750  -16.8756   23.8123 C.3     1  UNL1        0.0172
     10 C          -4.5640  -18.1786   23.1278 C.3     1  UNL1        0.0212
     11 H          -5.9070  -13.9630   24.6322 H       1  UNL1        0.1188
     12 H          -4.3201  -14.0532   24.1343 H       1  UNL1        0.1188
     13 C          -0.5197  -18.2294   20.0605 C.3     1  UNL1        0.1321
     14 N          -2.0019  -18.4374   19.9608 N.ar    1  UNL1       -0.3057
     15 C          -2.9553  -17.6128   19.1477 C.ar    1  UNL1        0.1787
     16 N          -4.3335  -18.1724   19.3410 N.ar    1  UNL1       -0.2192
     17 C          -4.2319  -19.3429   20.2735 C.ar    1  UNL1        0.1535
     18 C          -2.7909  -19.5067   20.6566 C.ar    1  UNL1        0.1012
     19 C          -7.3611  -20.6088   22.3605 C.3     1  UNL1        0.1204
     20 C          -8.7282  -20.0137   22.5252 C.ar    1  UNL1       -0.0015
     21 C          -9.4122  -20.0637   23.8592 C.ar    1  UNL1       -0.0026
     22 C         -10.7792  -19.4687   24.0239 C.ar    1  UNL1        0.0006
     23 C         -11.4623  -18.8237   22.8545 C.ar    1  UNL1        0.0114
     24 C         -10.7783  -18.7737   21.5205 C.ar    1  UNL1        0.0574
     25 CL        -11.4613  -18.1287   20.3511 Cl      1  UNL1       -0.0823
     26 C          -9.4113  -19.3687   21.3558 C.ar    1  UNL1        0.0088
@<TRIPOS>BOND
     1    13    14    1
     2    14    15   ar
     3    15    16   ar
     4    16    17   ar
     5    17     1    1
     6     1     2    2
     7     1     3   am
     8     3    19    1
     9    19    20    1
    10    20    21   ar
    11    21    22   ar
    12    22    23   ar
    13    23    24   ar
    14    24    25    1
    15    24    26   ar
    16     4     3    1
    17     4     5    1
    18     5     6    1
    19     6     7    1
    20     7     8    1
    21     7     9    1
    22     9    10    1
    23    17    18   ar
    24    18    14   ar
    25    26    20   ar
    26    10     4    1
    27     8    11    1
    28     8    12    1
@<TRIPOS>MOLECULE
*****
 26 28 0 0 0
SMALL
GASTEIGER

@<TRIPOS>ATOM
      1 C          -7.2866  -19.6561   20.4380 C.2     1  UNL1        0.2685
      2 O          -7.4828  -20.6355   19.3190 O.2     1  UNL1       -0.2682
      3 N          -8.4664  -18.9339   21.0182 N.am    1  UNL1       -0.2723
      4 C          -8.2701  -17.9545   22.1373 C.3     1  UNL1        0.0761
      5 C          -8.6152  -18.3440   23.5440 C.3     1  UNL1        0.0212
      6 C          -8.4190  -17.3646   24.6630 C.3     1  UNL1        0.0172
      7 C          -7.8776  -15.9957   24.3752 C.3     1  UNL1        0.0509
      8 N          -7.6813  -15.0162   25.4943 N.3     1  UNL1       -0.3222
      9 C          -7.5325  -15.6061   22.9684 C.3     1  UNL1        0.0172
     10 C          -7.7288  -16.5855   21.8495 C.3     1  UNL1        0.0212
     11 H          -7.9650  -15.4452   26.3752 H       1  UNL1        0.1188
     12 H          -8.2480  -14.1857   25.3226 H       1  UNL1        0.1188
     13 C          -2.1865  -18.3268   20.7591 C.3     1  UNL1        0.1321
     14 N          -3.5663  -18.7879   21.1245 N.ar    1  UNL1       -0.3057
     15 C          -4.0199  -19.2182   22.4880 C.ar    1  UNL1        0.1787
     16 N          -5.4687  -19.5958   22.3968 N.ar    1  UNL1       -0.2192
     17 C          -5.9106  -19.3989   20.9770 C.ar    1  UNL1        0.1535
     18 C          -4.7349  -18.8995   20.1906 C.ar    1  UNL1        0.1012
     19 C          -9.8424  -19.1911   20.4793 C.3     1  UNL1        0.1204
     20 C         -10.9787  -18.2900   20.8629 C.ar    1  UNL1       -0.0015
     21 C         -11.3132  -17.1010   20.0118 C.ar    1  UNL1       -0.0026
     22 C         -12.4494  -16.2000   20.3955 C.ar    1  UNL1        0.0006
     23 C         -13.2511  -16.4881   21.6301 C.ar    1  UNL1        0.0114
     24 C         -12.9166  -17.6771   22.4811 C.ar    1  UNL1        0.0574
     25 CL        -13.7183  -17.9651   23.7157 Cl      1  UNL1       -0.0823
     26 C         -11.7804  -18.5781   22.0975 C.ar    1  UNL1        0.0088
@<TRIPOS>BOND
     1    13    14    1
     2    14    15   ar
     3    15    16   ar
     4    16    17   ar
     5    17     1    1
     6     1     2    2
     7     1     3   am
     8     3    19    1
     9    19    20    1
    10    20    21   ar
    11    21    22   ar
    12    22    23   ar
    13    23    24   ar
    14    24    25    1
    15    24    26   ar
    16     4     3    1
    17     4     5    1
    18     5     6    1
    19     6     7    1
    20     7     8    1
    21     7     9    1
    22     9    10    1
    23    17    18   ar
    24    18    14   ar
    25    26    20   ar
    26    10     4    1
    27     8    11    1
    28     8    12    1
@<TRIPOS>MOLECULE
*****
 26 28 0 0 0
SMALL
GASTEIGER

@<TRIPOS>ATOM
      1 C          -8.2025  -19.5726   20.6673 C.2     1  UNL1        0.2685
      2 O          -7.8139  -20.5989   19.6448 O.2     1  UNL1       -0.2682
      3 N          -7.2562  -19.2246   21.7779 N.am    1  UNL1       -0.2723
      4 C          -7.6449  -18.1983   22.8005 C.3     1  UNL1        0.0761
      5 C          -6.9350  -16.8777   22.8451 C.3     1  UNL1        0.0212
      6 C          -7.3237  -15.8514   23.8676 C.3     1  UNL1        0.0172
      7 C          -8.4223  -16.1458   24.8456 C.3     1  UNL1        0.0509
      8 N          -8.8110  -15.1194   25.8682 N.3     1  UNL1       -0.3222
      9 C          -9.1322  -17.4663   24.8011 C.3     1  UNL1        0.0172
     10 C          -8.7435  -18.4926   23.7785 C.3     1  UNL1        0.0212
     11 H          -8.2296  -14.2890   25.7545 H       1  UNL1        0.1188
     12 H          -8.6761  -15.5033   26.8035 H       1  UNL1        0.1188
     13 C         -11.9419  -15.9303   19.8725 C.3     1  UNL1        0.1321
     14 N         -11.2563  -17.2199   20.2140 N.ar    1  UNL1       -0.3057
     15 C         -11.9271  -18.4804   20.6737 C.ar    1  UNL1        0.1787
     16 N         -10.8648  -19.5151   20.8995 N.ar    1  UNL1       -0.2192
     17 C          -9.5375  -18.8942   20.5793 C.ar    1  UNL1        0.1535
     18 C          -9.7793  -17.4757   20.1556 C.ar    1  UNL1        0.1012
     19 C          -5.9213  -19.9030   21.8660 C.3     1  UNL1        0.1204
     20 C          -4.6626  -19.1090   21.6779 C.ar    1  UNL1       -0.0015
     21 C          -3.9826  -18.4893   22.8626 C.ar    1  UNL1       -0.0026
     22 C          -2.7240  -17.6953   22.6744 C.ar    1  UNL1        0.0006
     23 C          -2.1454  -17.5210   21.3016 C.ar    1  UNL1        0.0114
     24 C          -2.8254  -18.1407   20.1169 C.ar    1  UNL1        0.0574
     25 CL         -2.2467  -17.9664   18.7440 Cl      1  UNL1       -0.0823
     26 C          -4.0840  -18.9346   20.3050 C.ar    1  UNL1        0.0088
@<TRIPOS>BOND
     1    13    14    1
     2    14    15   ar
     3    15    16   ar
     4    16    17   ar
     5    17     1    1
     6     1     2    2
     7     1     3   am
     8     3    19    1
     9    19    20    1
    10    20    21   ar
    11    21    22   ar
    12    22    23   ar
    13    23    24   ar
    14    24    25    1
    15    24    26   ar
    16     4     3    1
    17     4     5    1
    18     5     6    1
    19     6     7    1
    20     7     8    1
    21     7     9    1
    22     9    10    1
    23    17    18   ar
    24    18    14   ar
    25    26    20   ar
    26    10     4    1
    27     8    11    1
    28     8    12    1
@<TRIPOS>MOLECULE
*****
 26 28 0 0 0
SMALL
GASTEIGER

@<TRIPOS>ATOM
      1 C          -8.9546  -19.4133   21.0212 C.2     1  UNL1        0.2685
      2 O          -9.2525  -20.4848   20.0147 O.2     1  UNL1       -0.2682
      3 N          -7.6582  -18.6616   20.9550 N.am    1  UNL1       -0.2723
      4 C          -7.3603  -17.5901   21.9616 C.3     1  UNL1        0.0761
      5 C          -8.2350  -16.3743   22.0439 C.3     1  UNL1        0.0212
      6 C          -7.9371  -15.3029   23.0505 C.3     1  UNL1        0.0172
      7 C          -6.7644  -15.4472   23.9747 C.3     1  UNL1        0.0509
      8 N          -6.4665  -14.3757   24.9813 N.3     1  UNL1       -0.3222
      9 C          -5.8897  -16.6629   23.8923 C.3     1  UNL1        0.0172
     10 C          -6.1877  -17.7344   22.8857 C.3     1  UNL1        0.0212
     11 H          -7.1568  -13.6294   24.8978 H       1  UNL1        0.1188
     12 H          -5.5348  -13.9977   24.8098 H       1  UNL1        0.1188
     13 C         -13.3418  -17.8050   23.4802 C.3     1  UNL1        0.1321
     14 N         -11.9697  -18.3542   23.2243 N.ar    1  UNL1       -0.3057
     15 C         -11.0094  -18.8483   24.2653 C.ar    1  UNL1        0.1787
     16 N          -9.7631  -19.3052   23.5668 N.ar    1  UNL1       -0.2192
     17 C          -9.9530  -19.0934   22.0940 C.ar    1  UNL1        0.1535
     18 C         -11.3168  -18.5057   21.8822 C.ar    1  UNL1        0.1012
     19 C          -6.6598  -18.9814   19.8822 C.3     1  UNL1        0.1204
     20 C          -5.2059  -19.1152   20.2265 C.ar    1  UNL1       -0.0015
     21 C          -4.7905  -19.9015   21.4344 C.ar    1  UNL1       -0.0026
     22 C          -3.3367  -20.0353   21.7787 C.ar    1  UNL1        0.0006
     23 C          -2.2983  -19.3828   20.9150 C.ar    1  UNL1        0.0114
     24 C          -2.7137  -18.5964   19.7071 C.ar    1  UNL1        0.0574
     25 CL         -1.6753  -17.9439   18.8434 Cl      1  UNL1       -0.0823
     26 C          -4.1675  -18.4627   19.3629 C.ar    1  UNL1        0.0088
@<TRIPOS>BOND
     1    13    14    1
     2    14    15   ar
     3    15    16   ar
     4    16    17   ar
     5    17     1    1
     6     1     2    2
     7     1     3   am
     8     3    19    1
     9    19    20    1
    10    20    21   ar
    11    21    22   ar
    12    22    23   ar
    13    23    24   ar
    14    24    25    1
    15    24    26   ar
    16     4     3    1
    17     4     5    1
    18     5     6    1
    19     6     7    1
    20     7     8    1
    21     7     9    1
    22     9    10    1
    23    17    18   ar
    24    18    14   ar
    25    26    20   ar
    26    10     4    1
    27     8    11    1
    28     8    12    1
@<TRIPOS>MOLECULE
*****
 26 28 0 0 0
SMALL
GASTEIGER

@<TRIPOS>ATOM
      1 C         -14.9808   -3.9679   17.3136 C.2     1  UNL1        0.2685
      2 O         -16.2752   -3.2349   17.1203 O.2     1  UNL1       -0.2682
      3 N         -14.9431   -5.4638   17.2086 N.am    1  UNL1       -0.2723
      4 C         -13.6487   -6.1968   17.4019 C.3     1  UNL1        0.0761
      5 C         -13.1016   -6.4011   18.7835 C.3     1  UNL1        0.0212
      6 C         -11.8072   -7.1340   18.9767 C.3     1  UNL1        0.0172
      7 C         -11.0600   -7.6627   17.7884 C.3     1  UNL1        0.0509
      8 N          -9.7656   -8.3957   17.9817 N.3     1  UNL1       -0.3222
      9 C         -11.6071   -7.4584   16.4068 C.3     1  UNL1        0.0172
     10 C         -12.9015   -6.7254   16.2135 C.3     1  UNL1        0.0212
     11 H          -9.5463   -8.4418   18.9767 H       1  UNL1        0.1188
     12 H          -9.0192   -7.9027   17.4915 H       1  UNL1        0.1188
     13 C         -10.4662   -1.2959   16.7139 C.3     1  UNL1        0.1321
     14 N         -11.6490   -1.9769   17.3362 N.ar    1  UNL1       -0.3057
     15 C         -11.9318   -2.0855   18.8053 C.ar    1  UNL1        0.1787
     16 N         -13.2143   -2.8445   18.9757 N.ar    1  UNL1       -0.2192
     17 C         -13.7242   -3.2051   17.6119 C.ar    1  UNL1        0.1535
     18 C         -12.7568   -2.6689   16.5985 C.ar    1  UNL1        0.1012
     19 C         -16.1997   -6.2266   16.9104 C.3     1  UNL1        0.1204
     20 C         -16.7296   -7.2171   17.9045 C.ar    1  UNL1       -0.0015
     21 C         -17.4627   -6.7384   19.1224 C.ar    1  UNL1       -0.0026
     22 C         -17.9926   -7.7289   20.1164 C.ar    1  UNL1        0.0006
     23 C         -17.7894   -9.1981   19.8925 C.ar    1  UNL1        0.0114
     24 C         -17.0564   -9.6768   18.6746 C.ar    1  UNL1        0.0574
     25 CL        -16.8532  -11.1460   18.4507 Cl      1  UNL1       -0.0823
     26 C         -16.5265   -8.6863   17.6806 C.ar    1  UNL1        0.0088
@<TRIPOS>BOND
     1    13    14    1
     2    14    15   ar
     3    15    16   ar
     4    16    17   ar
     5    17     1    1
     6     1     2    2
     7     1     3   am
     8     3    19    1
     9    19    20    1
    10    20    21   ar
    11    21    22   ar
    12    22    23   ar
    13    23    24   ar
    14    24    25    1
    15    24    26   ar
    16     4     3    1
    17     4     5    1
    18     5     6    1
    19     6     7    1
    20     7     8    1
    21     7     9    1
    22     9    10    1
    23    17    18   ar
    24    18    14   ar
    25    26    20   ar
    26    10     4    1
    27     8    11    1
    28     8    12    1
@<TRIPOS>MOLECULE
*****
 26 28 0 0 0
SMALL
GASTEIGER

@<TRIPOS>ATOM
      1 C         -13.7704   -0.1259   18.5768 C.2     1  UNL1        0.2685
      2 O         -13.0663    1.1861   18.3955 O.2     1  UNL1       -0.2682
      3 N         -12.9760   -1.3912   18.7108 N.am    1  UNL1       -0.2723
      4 C         -13.6801   -2.7032   18.8921 C.3     1  UNL1        0.0761
      5 C         -13.9199   -3.2415   20.2715 C.3     1  UNL1        0.0212
      6 C         -14.6240   -4.5534   20.4526 C.3     1  UNL1        0.0172
      7 C         -15.0884   -5.3271   19.2544 C.3     1  UNL1        0.0509
      8 N         -15.7926   -6.6392   19.4357 N.3     1  UNL1       -0.3222
      9 C         -14.8487   -4.7889   17.8750 C.3     1  UNL1        0.0172
     10 C         -14.1446   -3.4769   17.6939 C.3     1  UNL1        0.0212
     11 H         -15.8691   -6.8494   20.4308 H       1  UNL1        0.1188
     12 H         -15.2620   -7.3767   18.9721 H       1  UNL1        0.1188
     13 C         -18.7416   -0.1082   20.3565 C.3     1  UNL1        0.1321
     14 N         -17.5540   -0.1645   19.4420 N.ar    1  UNL1       -0.3057
     15 C         -17.5959   -0.3246   17.9511 C.ar    1  UNL1        0.1787
     16 N         -16.1837   -0.3296   17.4456 N.ar    1  UNL1       -0.2192
     17 C         -15.2689   -0.1726   18.6239 C.ar    1  UNL1        0.1535
     18 C         -16.1157   -0.0706   19.8578 C.ar    1  UNL1        0.1012
     19 C         -11.4775   -1.3445   18.6637 C.3     1  UNL1        0.1204
     20 C         -10.7094   -2.4914   18.0764 C.ar    1  UNL1       -0.0015
     21 C         -10.1640   -2.3933   16.6825 C.ar    1  UNL1       -0.0026
     22 C          -9.3960   -3.5402   16.0953 C.ar    1  UNL1        0.0006
     23 C          -9.1735   -4.7851   16.9019 C.ar    1  UNL1        0.0114
     24 C          -9.7189   -4.8831   18.2958 C.ar    1  UNL1        0.0574
     25 CL         -9.4963   -6.1280   19.1024 Cl      1  UNL1       -0.0823
     26 C         -10.4869   -3.7363   18.8830 C.ar    1  UNL1        0.0088
@<TRIPOS>BOND
     1    13    14    1
     2    14    15   ar
     3    15    16   ar
     4    16    17   ar
     5    17     1    1
     6     1     2    2
     7     1     3   am
     8     3    19    1
     9    19    20    1
    10    20    21   ar
    11    21    22   ar
    12    22    23   ar
    13    23    24   ar
    14    24    25    1
    15    24    26   ar
    16     4     3    1
    17     4     5    1
    18     5     6    1
    19     6     7    1
    20     7     8    1
    21     7     9    1
    22     9    10    1
    23    17    18   ar
    24    18    14   ar
    25    26    20   ar
    26    10     4    1
    27     8    11    1
    28     8    12    1
@<TRIPOS>MOLECULE
*****
 26 28 0 0 0
SMALL
GASTEIGER

@<TRIPOS>ATOM
      1 C         -11.5675   -1.1179   17.0007 C.2     1  UNL1        0.2685
      2 O         -10.3388   -0.6433   16.2831 O.2     1  UNL1       -0.2682
      3 N         -11.5435   -2.4166   17.7508 N.am    1  UNL1       -0.2723
      4 C         -12.7723   -2.8911   18.4684 C.3     1  UNL1        0.0761
      5 C         -12.8545   -2.7894   19.9626 C.3     1  UNL1        0.0212
      6 C         -14.0833   -3.2639   20.6802 C.3     1  UNL1        0.0172
      7 C         -15.2298   -3.8401   19.9035 C.3     1  UNL1        0.0509
      8 N         -16.4587   -4.3146   20.6211 N.3     1  UNL1       -0.3222
      9 C         -15.1477   -3.9419   18.4092 C.3     1  UNL1        0.0172
     10 C         -13.9189   -3.4674   17.6917 C.3     1  UNL1        0.0212
     11 H         -16.3432   -4.1712   21.6244 H       1  UNL1        0.1188
     12 H         -16.5999   -5.3072   20.4336 H       1  UNL1        0.1188
     13 C         -15.2411    2.4841   18.1891 C.3     1  UNL1        0.1321
     14 N         -14.5089    1.3621   17.5146 N.ar    1  UNL1       -0.3057
     15 C         -14.9875    0.5877   16.3224 C.ar    1  UNL1        0.1787
     16 N         -13.9440   -0.4355   15.9848 N.ar    1  UNL1       -0.2192
     17 C         -12.8204   -0.2936   16.9683 C.ar    1  UNL1        0.1535
     18 C         -13.1694    0.8174   17.9138 C.ar    1  UNL1        0.1012
     19 C         -10.2907   -3.2409   17.7832 C.3     1  UNL1        0.1204
     20 C         -10.3786   -4.7364   17.8604 C.ar    1  UNL1       -0.0015
     21 C          -9.6077   -5.4798   18.9106 C.ar    1  UNL1       -0.0026
     22 C          -9.6957   -6.9752   18.9878 C.ar    1  UNL1        0.0006
     23 C         -10.5546   -7.7272   18.0147 C.ar    1  UNL1        0.0114
     24 C         -11.3255   -6.9838   16.9645 C.ar    1  UNL1        0.0574
     25 CL        -12.1844   -7.7358   15.9915 Cl      1  UNL1       -0.0823
     26 C         -11.2375   -5.4884   16.8874 C.ar    1  UNL1        0.0088
@<TRIPOS>BOND
     1    13    14    1
     2    14    15   ar
     3    15    16   ar
     4    16    17   ar
     5    17     1    1
     6     1     2    2
     7     1     3   am
     8     3    19    1
     9    19    20    1
    10    20    21   ar
    11    21    22   ar
    12    22    23   ar
    13    23    24   ar
    14    24    25    1
    15    24    26   ar
    16     4     3    1
    17     4     5    1
    18     5     6    1
    19     6     7    1
    20     7     8    1
    21     7     9    1
    22     9    10    1
    23    17    18   ar
    24    18    14   ar
    25    26    20   ar
    26    10     4    1
    27     8    11    1
    28     8    12    1
