@<TRIPOS>MOLECULE
*****
 28 31 0 0 0
SMALL
GASTEIGER

@<TRIPOS>ATOM
      1 N          -5.6200  -15.9406   24.6990 N.pl3   1  UNL1       -0.3077
      2 C          -5.3024  -15.6859   26.1427 C.3     1  UNL1        0.0911
      3 C          -6.4115  -15.4463   27.1237 C.3     1  UNL1        0.0261
      4 C          -7.8383  -15.4613   26.6610 C.3     1  UNL1        0.0295
      5 C          -8.1559  -15.7159   25.2173 C.ar    1  UNL1       -0.0054
      6 C          -9.5827  -15.7309   24.7547 C.ar    1  UNL1        0.0371
      7 C          -9.9004  -15.9856   23.3110 C.ar    1  UNL1        0.1354
      8 C          -8.7912  -16.2252   22.3299 C.ar    1  UNL1        0.0414
      9 C          -7.3644  -16.2102   22.7926 C.ar    1  UNL1        0.0177
     10 C          -7.0468  -15.9556   24.2364 C.ar    1  UNL1        0.0440
     11 N         -11.3272  -16.0006   22.8483 N.pl3   1  UNL1       -0.1990
     12 H         -11.8235  -15.1554   22.7557 H       1  UNL1        0.2985
     13 C         -11.9977  -17.3032   22.5267 C.2     1  UNL1        0.3224
     14 N         -13.2597  -17.6927   23.2377 N.2     1  UNL1       -0.0985
     15 H         -13.6479  -17.0934   23.9154 H       1  UNL1        0.3633
     16 C         -11.4061  -18.2164   21.4941 C.ar    1  UNL1        0.1114
     17 C         -10.9141  -19.6135   21.7307 C.ar    1  UNL1        0.0144
     18 C         -10.4066  -20.1533   20.4265 C.ar    1  UNL1        0.0077
     19 C         -10.5850  -19.0899   19.3838 C.ar    1  UNL1        0.0357
     20 S         -11.2027  -17.8928   20.0436 S.2     1  UNL1       -0.0792
     21 C          -4.5109  -16.1802   23.7180 C.3     1  UNL1        0.0921
     22 C          -3.9214  -17.5519   23.5728 C.3     1  UNL1        0.0374
     23 C          -2.1535  -17.1868   20.8542 C.3     1  UNL1        0.0896
     24 N          -3.2901  -18.1469   21.0445 N.3     1  UNL1       -0.2727
     25 C          -3.8137  -19.1077   20.0186 C.3     1  UNL1        0.0721
     26 C          -4.9500  -19.8694   20.6341 C.3     1  UNL1        0.0187
     27 C          -5.1286  -19.3793   22.0405 C.3     1  UNL1        0.0174
     28 C          -4.1027  -18.3147   22.2941 C.3     1  UNL1        0.0593
@<TRIPOS>BOND
     1    23    24    1
     2    24    25    1
     3    25    26    1
     4    26    27    1
     5    27    28    1
     6    28    22    1
     7    22    21    1
     8    21     1    1
     9     1     2    1
    10     2     3    1
    11     3     4    1
    12     4     5    1
    13     5     6   ar
    14     6     7   ar
    15     7    11    1
    16    11    13    1
    17    13    14    2
    18    13    16    1
    19    16    17   ar
    20    17    18   ar
    21    18    19   ar
    22    19    20   ar
    23     7     8   ar
    24     8     9   ar
    25     9    10   ar
    26    28    24    1
    27    10     1    1
    28    10     5   ar
    29    20    16   ar
    30    11    12    1
    31    14    15    1
@<TRIPOS>MOLECULE
*****
 28 31 0 0 0
SMALL
GASTEIGER

@<TRIPOS>ATOM
      1 N          -4.8909  -17.0066   24.0827 N.pl3   1  UNL1       -0.3077
      2 C          -4.7376  -15.9521   25.1383 C.3     1  UNL1        0.0911
      3 C          -5.8634  -15.0011   25.4175 C.3     1  UNL1        0.0261
      4 C          -7.1426  -15.1046   24.6410 C.3     1  UNL1        0.0295
      5 C          -7.2960  -16.1591   23.5853 C.ar    1  UNL1       -0.0054
      6 C          -8.5752  -16.2627   22.8088 C.ar    1  UNL1        0.0371
      7 C          -8.7285  -17.3172   21.7532 C.ar    1  UNL1        0.1354
      8 C          -7.6026  -18.2683   21.4740 C.ar    1  UNL1        0.0414
      9 C          -6.3234  -18.1648   22.2505 C.ar    1  UNL1        0.0177
     10 C          -6.1701  -17.1102   23.3062 C.ar    1  UNL1        0.0440
     11 N         -10.0077  -17.4207   20.9767 N.pl3   1  UNL1       -0.1990
     12 H         -10.2064  -16.7689   20.2662 H       1  UNL1        0.2985
     13 C         -10.9842  -18.5174   21.2827 C.2     1  UNL1        0.3224
     14 N         -11.0885  -19.7044   20.3717 N.2     1  UNL1       -0.0985
     15 H         -10.5161  -19.7637   19.5729 H       1  UNL1        0.3633
     16 C         -11.8562  -18.4271   22.4998 C.ar    1  UNL1        0.1114
     17 C         -11.5267  -18.9613   23.8622 C.ar    1  UNL1        0.0144
     18 C         -12.6778  -18.6511   24.7726 C.ar    1  UNL1        0.0077
     19 C         -13.7187  -17.9252   23.9729 C.ar    1  UNL1        0.0357
     20 S         -13.2110  -17.7868   22.5683 S.2     1  UNL1       -0.0792
     21 C          -3.7650  -17.9577   23.8035 C.3     1  UNL1        0.0921
     22 C          -2.6922  -17.5831   22.8244 C.3     1  UNL1        0.0374
     23 C          -0.7568  -16.6750   20.3588 C.3     1  UNL1        0.0896
     24 N          -1.8350  -17.7160   20.2961 N.3     1  UNL1       -0.2727
     25 C          -2.2128  -18.5223   19.0890 C.3     1  UNL1        0.0721
     26 C          -3.3360  -19.4380   19.4762 C.3     1  UNL1        0.0187
     27 C          -3.6522  -19.1977   20.9227 C.3     1  UNL1        0.0174
     28 C          -2.7246  -18.1334   21.4294 C.3     1  UNL1        0.0593
@<TRIPOS>BOND
     1    23    24    1
     2    24    25    1
     3    25    26    1
     4    26    27    1
     5    27    28    1
     6    28    22    1
     7    22    21    1
     8    21     1    1
     9     1     2    1
    10     2     3    1
    11     3     4    1
    12     4     5    1
    13     5     6   ar
    14     6     7   ar
    15     7    11    1
    16    11    13    1
    17    13    14    2
    18    13    16    1
    19    16    17   ar
    20    17    18   ar
    21    18    19   ar
    22    19    20   ar
    23     7     8   ar
    24     8     9   ar
    25     9    10   ar
    26    28    24    1
    27    10     1    1
    28    10     5   ar
    29    20    16   ar
    30    11    12    1
    31    14    15    1
@<TRIPOS>MOLECULE
*****
 28 31 0 0 0
SMALL
GASTEIGER

@<TRIPOS>ATOM
      1 N         -10.8073   -4.3147   18.0417 N.pl3   1  UNL1       -0.3077
      2 C          -9.5667   -4.6819   18.8005 C.3     1  UNL1        0.0911
      3 C          -9.3380   -6.1034   19.2212 C.3     1  UNL1        0.0261
      4 C         -10.3500   -7.1577   18.8830 C.3     1  UNL1        0.0295
      5 C         -11.5907   -6.7905   18.1242 C.ar    1  UNL1       -0.0054
      6 C         -12.6027   -7.8448   17.7861 C.ar    1  UNL1        0.0371
      7 C         -13.8434   -7.4775   17.0272 C.ar    1  UNL1        0.1354
      8 C         -14.0721   -6.0560   16.6065 C.ar    1  UNL1        0.0414
      9 C         -13.0601   -5.0017   16.9447 C.ar    1  UNL1        0.0177
     10 C         -11.8194   -5.3690   17.7035 C.ar    1  UNL1        0.0440
     11 N         -14.8554   -8.5318   16.6891 N.pl3   1  UNL1       -0.1990
     12 H         -15.0653   -8.7287   15.7476 H       1  UNL1        0.2985
     13 C         -15.5476   -9.2861   17.7854 C.2     1  UNL1        0.3224
     14 N         -15.1174  -10.6830   18.1221 N.2     1  UNL1       -0.0985
     15 H         -14.3807  -11.1048   17.6235 H       1  UNL1        0.3633
     16 C         -16.6700   -8.6434   18.5450 C.ar    1  UNL1        0.1114
     17 C         -17.0433   -8.9226   19.9707 C.ar    1  UNL1        0.0144
     18 C         -18.2203   -8.0604   20.3192 C.ar    1  UNL1        0.0077
     19 C         -18.5744   -7.2483   19.1088 C.ar    1  UNL1        0.0357
     20 S         -17.6163   -7.6085   18.0124 S.2     1  UNL1       -0.0792
     21 C         -11.0360   -2.8932   17.6210 C.3     1  UNL1        0.0921
     22 C         -11.5340   -1.8873   18.6162 C.3     1  UNL1        0.0374
     23 C         -14.1758   -0.0751   17.9949 C.3     1  UNL1        0.0896
     24 N         -14.1010   -1.2243   18.9560 N.3     1  UNL1       -0.2727
     25 C         -15.2275   -1.7423   19.8002 C.3     1  UNL1        0.0721
     26 C         -14.7094   -2.8955   20.6076 C.3     1  UNL1        0.0187
     27 C         -13.2627   -3.0902   20.2623 C.3     1  UNL1        0.0174
     28 C         -12.8867   -2.0573   19.2415 C.3     1  UNL1        0.0593
@<TRIPOS>BOND
     1    23    24    1
     2    24    25    1
     3    25    26    1
     4    26    27    1
     5    27    28    1
     6    28    22    1
     7    22    21    1
     8    21     1    1
     9     1     2    1
    10     2     3    1
    11     3     4    1
    12     4     5    1
    13     5     6   ar
    14     6     7   ar
    15     7    11    1
    16    11    13    1
    17    13    14    2
    18    13    16    1
    19    16    17   ar
    20    17    18   ar
    21    18    19   ar
    22    19    20   ar
    23     7     8   ar
    24     8     9   ar
    25     9    10   ar
    26    28    24    1
    27    10     1    1
    28    10     5   ar
    29    20    16   ar
    30    11    12    1
    31    14    15    1
@<TRIPOS>MOLECULE
*****
 28 31 0 0 0
SMALL
GASTEIGER

@<TRIPOS>ATOM
      1 N         -12.1457   -7.3129   17.7530 N.pl3   1  UNL1       -0.3077
      2 C         -10.9533   -8.2132   17.8855 C.3     1  UNL1        0.0911
      3 C          -9.6453   -7.6593   18.3675 C.3     1  UNL1        0.0261
      4 C          -9.5298   -6.2051   18.7169 C.3     1  UNL1        0.0295
      5 C         -10.7222   -5.3049   18.5843 C.ar    1  UNL1       -0.0054
      6 C         -10.6066   -3.8507   18.9337 C.ar    1  UNL1        0.0371
      7 C         -11.7990   -2.9504   18.8011 C.ar    1  UNL1        0.1354
      8 C         -13.1071   -3.5043   18.3192 C.ar    1  UNL1        0.0414
      9 C         -13.2227   -4.9585   17.9698 C.ar    1  UNL1        0.0177
     10 C         -12.0302   -5.8587   18.1023 C.ar    1  UNL1        0.0440
     11 N         -11.6835   -1.4963   19.1505 N.pl3   1  UNL1       -0.1990
     12 H         -11.7266   -1.2113   20.0919 H       1  UNL1        0.2985
     13 C         -11.5022   -0.4764   18.0657 C.2     1  UNL1        0.3224
     14 N         -10.2652   -0.4955   17.2174 N.2     1  UNL1       -0.0985
     15 H          -9.5724   -1.1775   17.3727 H       1  UNL1        0.3633
     16 C         -12.5578    0.5627   17.8291 C.ar    1  UNL1        0.1114
     17 C         -13.8765    0.6571   18.5377 C.ar    1  UNL1        0.0144
     18 C         -14.6138    1.8425   17.9889 C.ar    1  UNL1        0.0077
     19 C         -13.7508    2.4808   16.9412 C.ar    1  UNL1        0.0357
     20 S         -12.4801    1.6898   16.8424 S.2     1  UNL1       -0.0792
     21 C         -13.4538   -7.8668   17.2710 C.3     1  UNL1        0.0921
     22 C         -14.2278   -8.8198   18.1327 C.3     1  UNL1        0.0374
     23 C         -16.8598  -10.7240   18.4424 C.3     1  UNL1        0.0896
     24 N         -16.7616   -9.2830   18.8471 N.3     1  UNL1       -0.2727
     25 C         -17.8559   -8.4643   19.4652 C.3     1  UNL1        0.0721
     26 C         -17.3225   -7.0829   19.7049 C.3     1  UNL1        0.0187
     27 C         -15.8984   -7.0480   19.2349 C.3     1  UNL1        0.0174
     28 C         -15.5518   -8.4077   18.7048 C.3     1  UNL1        0.0593
@<TRIPOS>BOND
     1    23    24    1
     2    24    25    1
     3    25    26    1
     4    26    27    1
     5    27    28    1
     6    28    22    1
     7    22    21    1
     8    21     1    1
     9     1     2    1
    10     2     3    1
    11     3     4    1
    12     4     5    1
    13     5     6   ar
    14     6     7   ar
    15     7    11    1
    16    11    13    1
    17    13    14    2
    18    13    16    1
    19    16    17   ar
    20    17    18   ar
    21    18    19   ar
    22    19    20   ar
    23     7     8   ar
    24     8     9   ar
    25     9    10   ar
    26    28    24    1
    27    10     1    1
    28    10     5   ar
    29    20    16   ar
    30    11    12    1
    31    14    15    1
@<TRIPOS>MOLECULE
*****
 28 31 0 0 0
SMALL
GASTEIGER

@<TRIPOS>ATOM
      1 N           3.8850   -3.1304   20.7930 N.pl3   1  UNL1       -0.3077
      2 C           4.7078   -3.8973   21.7855 C.3     1  UNL1        0.0911
      3 C           4.9587   -3.3284   23.1505 C.3     1  UNL1        0.0261
      4 C           4.3869   -1.9927   23.5231 C.3     1  UNL1        0.0295
      5 C           3.5641   -1.2259   22.5307 C.ar    1  UNL1       -0.0054
      6 C           2.9923    0.1099   22.9033 C.ar    1  UNL1        0.0371
      7 C           2.1695    0.8767   21.9109 C.ar    1  UNL1        0.1354
      8 C           1.9186    0.3079   20.5458 C.ar    1  UNL1        0.0414
      9 C           2.4904   -1.0278   20.1732 C.ar    1  UNL1        0.0177
     10 C           3.3132   -1.7947   21.1657 C.ar    1  UNL1        0.0440
     11 N           1.5977    2.2124   22.2836 N.pl3   1  UNL1       -0.1990
     12 H           2.1720    3.0120   22.2804 H       1  UNL1        0.2985
     13 C           0.1507    2.3299   22.6611 C.2     1  UNL1        0.3224
     14 N          -0.8903    2.5069   21.5958 N.2     1  UNL1       -0.0985
     15 H          -0.6239    2.5459   20.6488 H       1  UNL1        0.3633
     16 C          -0.2552    2.2704   24.1039 C.ar    1  UNL1        0.1114
     17 C           0.1992    1.2513   25.1063 C.ar    1  UNL1        0.0144
     18 C          -0.4515    1.5707   26.4196 C.ar    1  UNL1        0.0077
     19 C          -1.3081    2.7872   26.2288 C.ar    1  UNL1        0.0357
     20 S          -1.1867    3.2197   24.7976 S.2     1  UNL1       -0.0792
     21 C           3.6341   -3.6993   19.4279 C.3     1  UNL1        0.0921
     22 C           4.7217   -3.6783   18.3951 C.3     1  UNL1        0.0374
     23 C           3.9069   -0.9656   16.7743 C.3     1  UNL1        0.0896
     24 N           5.2036   -1.2107   17.4875 N.3     1  UNL1       -0.2727
     25 C           6.3534   -0.2519   17.5809 C.3     1  UNL1        0.0721
     26 C           7.4385   -0.9063   18.3837 C.3     1  UNL1        0.0187
     27 C           6.9594   -2.2694   18.7863 C.3     1  UNL1        0.0174
     28 C           5.5781   -2.4576   18.2325 C.3     1  UNL1        0.0593
@<TRIPOS>BOND
     1    23    24    1
     2    24    25    1
     3    25    26    1
     4    26    27    1
     5    27    28    1
     6    28    22    1
     7    22    21    1
     8    21     1    1
     9     1     2    1
    10     2     3    1
    11     3     4    1
    12     4     5    1
    13     5     6   ar
    14     6     7   ar
    15     7    11    1
    16    11    13    1
    17    13    14    2
    18    13    16    1
    19    16    17   ar
    20    17    18   ar
    21    18    19   ar
    22    19    20   ar
    23     7     8   ar
    24     8     9   ar
    25     9    10   ar
    26    28    24    1
    27    10     1    1
    28    10     5   ar
    29    20    16   ar
    30    11    12    1
    31    14    15    1
@<TRIPOS>MOLECULE
*****
 28 31 0 0 0
SMALL
GASTEIGER

@<TRIPOS>ATOM
      1 N         -11.3192   -7.1579   17.0395 N.pl3   1  UNL1       -0.3077
      2 C         -10.4270   -7.9228   17.9716 C.3     1  UNL1        0.0911
      3 C          -9.5756   -7.1895   18.9652 C.3     1  UNL1        0.0261
      4 C          -9.6164   -5.6913   19.0267 C.3     1  UNL1        0.0295
      5 C         -10.5087   -4.9264   18.0947 C.ar    1  UNL1       -0.0054
      6 C         -10.5495   -3.4282   18.1562 C.ar    1  UNL1        0.0371
      7 C         -11.4418   -2.6634   17.2242 C.ar    1  UNL1        0.1354
      8 C         -12.2933   -3.3967   16.2305 C.ar    1  UNL1        0.0414
      9 C         -12.2524   -4.8948   16.1690 C.ar    1  UNL1        0.0177
     10 C         -11.3601   -5.6597   17.1011 C.ar    1  UNL1        0.0440
     11 N         -11.4826   -1.1652   17.2858 N.pl3   1  UNL1       -0.1990
     12 H         -10.8080   -0.6341   16.8040 H       1  UNL1        0.2985
     13 C         -12.5513   -0.4761   18.0813 C.2     1  UNL1        0.3224
     14 N         -12.5227    1.0150   18.2422 N.2     1  UNL1       -0.0985
     15 H         -11.8026    1.5413   17.8256 H       1  UNL1        0.3633
     16 C         -13.6485   -1.2780   18.7161 C.ar    1  UNL1        0.1114
     17 C         -13.4820   -2.2849   19.8154 C.ar    1  UNL1        0.0144
     18 C         -14.8355   -2.8431   20.1417 C.ar    1  UNL1        0.0077
     19 C         -15.8386   -2.1812   19.2441 C.ar    1  UNL1        0.0357
     20 S         -15.1050   -1.2140   18.3630 S.2     1  UNL1       -0.0792
     21 C         -12.1707   -7.8912   16.0458 C.3     1  UNL1        0.0921
     22 C         -13.6458   -7.6263   15.9822 C.3     1  UNL1        0.0374
     23 C         -15.5089   -5.4387   17.5288 C.3     1  UNL1        0.0896
     24 N         -15.3644   -6.8870   17.8913 N.3     1  UNL1       -0.2727
     25 C         -16.0509   -7.5841   19.0283 C.3     1  UNL1        0.0721
     26 C         -15.6187   -9.0205   19.0201 C.3     1  UNL1        0.0187
     27 C         -14.6652   -9.2111   17.8781 C.3     1  UNL1        0.0174
     28 C         -14.5080   -7.8926   17.1804 C.3     1  UNL1        0.0593
@<TRIPOS>BOND
     1    23    24    1
     2    24    25    1
     3    25    26    1
     4    26    27    1
     5    27    28    1
     6    28    22    1
     7    22    21    1
     8    21     1    1
     9     1     2    1
    10     2     3    1
    11     3     4    1
    12     4     5    1
    13     5     6   ar
    14     6     7   ar
    15     7    11    1
    16    11    13    1
    17    13    14    2
    18    13    16    1
    19    16    17   ar
    20    17    18   ar
    21    18    19   ar
    22    19    20   ar
    23     7     8   ar
    24     8     9   ar
    25     9    10   ar
    26    28    24    1
    27    10     1    1
    28    10     5   ar
    29    20    16   ar
    30    11    12    1
    31    14    15    1
@<TRIPOS>MOLECULE
*****
 28 31 0 0 0
SMALL
GASTEIGER

@<TRIPOS>ATOM
      1 N           7.9711   -5.0812   23.0698 N.pl3   1  UNL1       -0.3077
      2 C           8.7288   -6.1833   22.3907 C.3     1  UNL1        0.0911
      3 C           9.0739   -7.4323   23.1463 C.3     1  UNL1        0.0261
      4 C           8.6613   -7.5792   24.5809 C.3     1  UNL1        0.0295
      5 C           7.9036   -6.4770   25.2600 C.ar    1  UNL1       -0.0054
      6 C           7.4911   -6.6239   26.6947 C.ar    1  UNL1        0.0371
      7 C           6.7334   -5.5218   27.3738 C.ar    1  UNL1        0.1354
      8 C           6.3882   -4.2728   26.6182 C.ar    1  UNL1        0.0414
      9 C           6.8008   -4.1259   25.1836 C.ar    1  UNL1        0.0177
     10 C           7.5585   -5.2281   24.5045 C.ar    1  UNL1        0.0440
     11 N           6.3208   -5.6687   28.8084 N.pl3   1  UNL1       -0.1990
     12 H           5.4800   -6.1284   29.0342 H       1  UNL1        0.2985
     13 C           7.1892   -5.1151   29.8990 C.2     1  UNL1        0.3224
     14 N           8.5189   -5.7447   30.1912 N.2     1  UNL1       -0.0985
     15 H           8.8217   -6.5212   29.6672 H       1  UNL1        0.3633
     16 C           6.7278   -3.9320   30.6973 C.ar    1  UNL1        0.1114
     17 C           6.4805   -3.9088   32.1766 C.ar    1  UNL1        0.0144
     18 C           6.0326   -2.5268   32.5502 C.ar    1  UNL1        0.0077
     19 C           6.0032   -1.6958   31.3017 C.ar    1  UNL1        0.0357
     20 S           6.4329   -2.5643   30.1566 S.2     1  UNL1       -0.0792
     21 C           7.6259   -3.8321   22.3143 C.3     1  UNL1        0.0921
     22 C           7.4375   -3.8832   20.8270 C.3     1  UNL1        0.0374
     23 C           6.9733   -2.0687   18.1547 C.3     1  UNL1        0.0896
     24 N           5.8981   -2.6876   18.9979 N.3     1  UNL1       -0.2727
     25 C           4.4208   -2.5812   18.7607 C.3     1  UNL1        0.0721
     26 C           3.7211   -3.3494   19.8425 C.3     1  UNL1        0.0187
     27 C           4.7660   -3.9307   20.7482 C.3     1  UNL1        0.0174
     28 C           6.1115   -3.5216   20.2262 C.3     1  UNL1        0.0593
@<TRIPOS>BOND
     1    23    24    1
     2    24    25    1
     3    25    26    1
     4    26    27    1
     5    27    28    1
     6    28    22    1
     7    22    21    1
     8    21     1    1
     9     1     2    1
    10     2     3    1
    11     3     4    1
    12     4     5    1
    13     5     6   ar
    14     6     7   ar
    15     7    11    1
    16    11    13    1
    17    13    14    2
    18    13    16    1
    19    16    17   ar
    20    17    18   ar
    21    18    19   ar
    22    19    20   ar
    23     7     8   ar
    24     8     9   ar
    25     9    10   ar
    26    28    24    1
    27    10     1    1
    28    10     5   ar
    29    20    16   ar
    30    11    12    1
    31    14    15    1
@<TRIPOS>MOLECULE
*****
 28 31 0 0 0
SMALL
GASTEIGER

@<TRIPOS>ATOM
      1 N           7.7995   -4.4012   23.9583 N.pl3   1  UNL1       -0.3077
      2 C           9.1724   -4.8605   23.5658 C.3     1  UNL1        0.0911
      3 C           9.5360   -4.9839   22.1158 C.3     1  UNL1        0.0261
      4 C           8.5266   -4.6480   21.0583 C.3     1  UNL1        0.0295
      5 C           7.1537   -4.1888   21.4508 C.ar    1  UNL1       -0.0054
      6 C           6.1443   -3.8529   20.3932 C.ar    1  UNL1        0.0371
      7 C           4.7714   -3.3937   20.7857 C.ar    1  UNL1        0.1354
      8 C           4.4077   -3.2702   22.2358 C.ar    1  UNL1        0.0414
      9 C           5.4171   -3.6061   23.2933 C.ar    1  UNL1        0.0177
     10 C           6.7901   -4.0654   22.9008 C.ar    1  UNL1        0.0440
     11 N           3.7620   -3.0578   19.7282 N.pl3   1  UNL1       -0.1990
     12 H           2.8976   -3.5286   19.7055 H       1  UNL1        0.2985
     13 C           4.0695   -2.0048   18.7053 C.2     1  UNL1        0.3224
     14 N           4.8194   -2.3673   17.4578 N.2     1  UNL1       -0.0985
     15 H           5.1097   -3.2964   17.3104 H       1  UNL1        0.3633
     16 C           3.6272   -0.5892   18.9298 C.ar    1  UNL1        0.1114
     17 C           2.8159    0.2421   17.9807 C.ar    1  UNL1        0.0144
     18 C           2.6057    1.5888   18.6072 C.ar    1  UNL1        0.0077
     19 C           3.2872    1.5897   19.9435 C.ar    1  UNL1        0.0357
     20 S           3.9185    0.2437   20.1428 S.2     1  UNL1       -0.0792
     21 C           7.4358   -4.2777   25.4084 C.3     1  UNL1        0.0921
     22 C           6.7588   -5.4168   26.1114 C.3     1  UNL1        0.0374
     23 C           7.5264   -5.9527   29.2376 C.3     1  UNL1        0.0896
     24 N           7.9239   -6.8099   28.0727 N.3     1  UNL1       -0.2727
     25 C           8.7440   -8.0641   28.1402 C.3     1  UNL1        0.0721
     26 C           8.8981   -8.5929   26.7449 C.3     1  UNL1        0.0187
     27 C           8.1732   -7.6655   25.8151 C.3     1  UNL1        0.0174
     28 C           7.5711   -6.5636   26.6357 C.3     1  UNL1        0.0593
@<TRIPOS>BOND
     1    23    24    1
     2    24    25    1
     3    25    26    1
     4    26    27    1
     5    27    28    1
     6    28    22    1
     7    22    21    1
     8    21     1    1
     9     1     2    1
    10     2     3    1
    11     3     4    1
    12     4     5    1
    13     5     6   ar
    14     6     7   ar
    15     7    11    1
    16    11    13    1
    17    13    14    2
    18    13    16    1
    19    16    17   ar
    20    17    18   ar
    21    18    19   ar
    22    19    20   ar
    23     7     8   ar
    24     8     9   ar
    25     9    10   ar
    26    28    24    1
    27    10     1    1
    28    10     5   ar
    29    20    16   ar
    30    11    12    1
    31    14    15    1
@<TRIPOS>MOLECULE
*****
 28 31 0 0 0
SMALL
GASTEIGER

@<TRIPOS>ATOM
      1 N           5.9462    0.8288   36.5534 N.pl3   1  UNL1       -0.3077
      2 C           7.2091    1.6150   36.7455 C.3     1  UNL1        0.0911
      3 C           8.3400    1.4672   35.7712 C.3     1  UNL1        0.0261
      4 C           8.2079    0.5332   34.6049 C.3     1  UNL1        0.0295
      5 C           6.9450   -0.2529   34.4128 C.ar    1  UNL1       -0.0054
      6 C           6.8129   -1.1869   33.2465 C.ar    1  UNL1        0.0371
      7 C           5.5500   -1.9731   33.0545 C.ar    1  UNL1        0.1354
      8 C           4.4191   -1.8253   34.0288 C.ar    1  UNL1        0.0414
      9 C           4.5511   -0.8913   35.1951 C.ar    1  UNL1        0.0177
     10 C           5.8141   -0.1051   35.3871 C.ar    1  UNL1        0.0440
     11 N           5.4180   -2.9070   31.8882 N.pl3   1  UNL1       -0.1990
     12 H           4.6636   -2.8102   31.2630 H       1  UNL1        0.2985
     13 C           6.4352   -3.9884   31.6744 C.2     1  UNL1        0.3224
     14 N           6.4237   -5.2112   32.5431 N.2     1  UNL1       -0.0985
     15 H           5.7485   -5.3040   33.2535 H       1  UNL1        0.3633
     16 C           7.4639   -3.8470   30.5919 C.ar    1  UNL1        0.1114
     17 C           8.8559   -3.3147   30.7625 C.ar    1  UNL1        0.0144
     18 C           9.5335   -3.3518   29.4248 C.ar    1  UNL1        0.0077
     19 C           8.5604   -3.9071   28.4275 C.ar    1  UNL1        0.0357
     20 S           7.2813   -4.2132   29.1488 S.2     1  UNL1       -0.0792
     21 C           4.8152    0.9766   37.5277 C.3     1  UNL1        0.0921
     22 C           3.5250    1.6037   37.0896 C.3     1  UNL1        0.0374
     23 C           1.4053    4.0726   37.3372 C.3     1  UNL1        0.0896
     24 N           1.3929    2.8145   38.1540 N.3     1  UNL1       -0.2727
     25 C           0.4039    2.4704   39.2280 C.3     1  UNL1        0.0721
     26 C           0.7670    1.1229   39.7780 C.3     1  UNL1        0.0187
     27 C           1.9804    0.6343   39.0439 C.3     1  UNL1        0.0174
     28 C           2.3672    1.6797   38.0402 C.3     1  UNL1        0.0593
@<TRIPOS>BOND
     1    23    24    1
     2    24    25    1
     3    25    26    1
     4    26    27    1
     5    27    28    1
     6    28    22    1
     7    22    21    1
     8    21     1    1
     9     1     2    1
    10     2     3    1
    11     3     4    1
    12     4     5    1
    13     5     6   ar
    14     6     7   ar
    15     7    11    1
    16    11    13    1
    17    13    14    2
    18    13    16    1
    19    16    17   ar
    20    17    18   ar
    21    18    19   ar
    22    19    20   ar
    23     7     8   ar
    24     8     9   ar
    25     9    10   ar
    26    28    24    1
    27    10     1    1
    28    10     5   ar
    29    20    16   ar
    30    11    12    1
    31    14    15    1
