@<TRIPOS>MOLECULE
*****
 32 35 0 0 0
SMALL
GASTEIGER

@<TRIPOS>ATOM
      1 C          -8.8375  -18.0155   22.4281 C.ar    1  UNL1       -0.0004
      2 C          -8.2643  -19.2840   21.8692 C.ar    1  UNL1       -0.0024
      3 C          -6.7874  -19.5356   21.9424 C.ar    1  UNL1       -0.0002
      4 C          -5.8837  -18.5188   22.5744 C.ar    1  UNL1        0.0030
      5 C          -4.4067  -18.7706   22.6475 C.ar    1  UNL1        0.0369
      6 C          -3.5030  -17.7538   23.2796 C.ar    1  UNL1        0.1386
      7 C          -4.0763  -16.4852   23.8384 C.ar    1  UNL1        0.0369
      8 C          -5.5532  -16.2336   23.7653 C.ar    1  UNL1        0.0031
      9 C          -6.4569  -17.2504   23.1332 C.ar    1  UNL1       -0.0001
     10 C          -7.9338  -16.9987   23.0601 C.ar    1  UNL1       -0.0024
     11 C         -10.3145  -17.7638   22.3549 C.3     1  UNL1        0.1240
     12 N         -10.9132  -17.1677   21.1155 N.ar    1  UNL1       -0.3045
     13 C         -11.1075  -15.7050   20.8458 C.ar    1  UNL1        0.0983
     14 C         -11.7371  -15.5629   19.4917 C.ar    1  UNL1        0.1193
     15 N         -11.9320  -16.9378   18.9246 N.ar    1  UNL1       -0.2223
     16 C         -11.4228  -17.9296   19.9281 C.ar    1  UNL1        0.1788
     17 C         -11.1926  -18.1082   23.5212 C.3     1  UNL1        0.0827
     18 C         -12.6588  -17.7947   23.4744 C.3     1  UNL1        0.0197
     19 N         -10.6047  -18.7660   24.7343 N.3     1  UNL1       -0.2708
     20 C          -9.9655  -17.9315   25.8044 C.3     1  UNL1        0.0897
     21 C          -9.4686  -21.0899   24.4918 C.3     1  UNL1        0.0188
     22 C         -10.6559  -20.2583   24.8772 C.3     1  UNL1        0.0722
     23 O          -2.0262  -18.0054   23.3527 O.3     1  UNL1       -0.4751
     24 C          -1.2756  -18.4281   22.1247 C.3     1  UNL1        0.2103
     25 C          -1.9786  -18.4929   20.8012 C.3     1  UNL1        0.0723
     26 C          -2.5780  -18.2635   19.4454 C.3     1  UNL1        0.0088
     27 C          -3.2971  -19.5155   19.0387 C.3     1  UNL1        0.0005
     28 C          -3.1422  -20.5186   20.1431 C.3     1  UNL1        0.0005
     29 C          -2.3273  -19.8866   21.2324 C.3     1  UNL1        0.0088
     30 C          -1.4829  -17.0857   20.6467 C.2     1  UNL1        0.0532
     31 O          -0.0695  -16.8317   20.2133 O.co2   1  UNL1       -0.5491
     32 O          -2.4006  -15.9324   20.9257 O.co2   1  UNL1       -0.5491
@<TRIPOS>UNITY_ATOM_ATTR
31 1
charge -1
@<TRIPOS>BOND
     1    21    22    1
     2    22    19    1
     3    19    20    1
     4    19    17    1
     5    17    18    1
     6    17    11    1
     7    11     1    1
     8     1     2   ar
     9     2     3   ar
    10     3     4   ar
    11     4     5   ar
    12     5     6   ar
    13     6    23    1
    14    23    24    1
    15    24    25    1
    16    25    30    1
    17    30    31   ar
    18    30    32   ar
    19    25    26    1
    20    26    27    1
    21    27    28    1
    22    28    29    1
    23     6     7   ar
    24     7     8   ar
    25     8     9   ar
    26     9    10   ar
    27    11    12    1
    28    12    13   ar
    29    13    14   ar
    30    14    15   ar
    31    15    16   ar
    32    10     1   ar
    33    16    12   ar
    34     9     4   ar
    35    29    25    1
@<TRIPOS>MOLECULE
*****
 32 35 0 0 0
SMALL
GASTEIGER

@<TRIPOS>ATOM
      1 C          -9.1240  -18.1619   21.9818 C.ar    1  UNL1       -0.0004
      2 C          -8.4702  -19.4301   21.5190 C.ar    1  UNL1       -0.0024
      3 C          -7.0043  -19.6465   21.7521 C.ar    1  UNL1       -0.0002
      4 C          -6.1923  -18.5947   22.4480 C.ar    1  UNL1        0.0030
      5 C          -4.7263  -18.8112   22.6812 C.ar    1  UNL1        0.0369
      6 C          -3.9143  -17.7594   23.3771 C.ar    1  UNL1        0.1386
      7 C          -4.5681  -16.4912   23.8399 C.ar    1  UNL1        0.0369
      8 C          -6.0340  -16.2748   23.6068 C.ar    1  UNL1        0.0031
      9 C          -6.8460  -17.3265   22.9109 C.ar    1  UNL1       -0.0001
     10 C          -8.3119  -17.1101   22.6777 C.ar    1  UNL1       -0.0024
     11 C         -10.5899  -17.9454   21.7487 C.3     1  UNL1        0.1240
     12 N         -11.5663  -18.1548   22.8680 N.ar    1  UNL1       -0.3045
     13 C         -12.9965  -17.7031   22.8865 C.ar    1  UNL1        0.0983
     14 C         -13.5980  -18.1218   24.1953 C.ar    1  UNL1        0.1193
     15 N         -12.5395  -18.8323   24.9857 N.ar    1  UNL1       -0.2223
     16 C         -11.2838  -18.8527   24.1654 C.ar    1  UNL1        0.1788
     17 C         -11.0794  -17.5195   20.3963 C.3     1  UNL1        0.0827
     18 C         -11.4505  -18.5522   19.3735 C.3     1  UNL1        0.0197
     19 N         -11.1978  -16.0610   20.0666 N.3     1  UNL1       -0.2708
     20 C         -12.1267  -15.6112   18.9780 C.3     1  UNL1        0.0897
     21 C          -9.3039  -14.2836   20.1289 C.3     1  UNL1        0.0188
     22 C         -10.3874  -15.0524   20.8254 C.3     1  UNL1        0.0722
     23 O          -2.4484  -17.9759   23.6102 O.3     1  UNL1       -0.4751
     24 C          -1.5301  -18.2074   22.4470 C.3     1  UNL1        0.2103
     25 C          -2.0886  -18.3040   21.0582 C.3     1  UNL1        0.0723
     26 C          -2.5474  -18.1044   19.6441 C.3     1  UNL1        0.0088
     27 C          -3.1910  -19.3779   19.1815 C.3     1  UNL1        0.0005
     28 C          -3.1299  -20.3646   20.3096 C.3     1  UNL1        0.0005
     29 C          -2.4486  -19.7009   21.4695 C.3     1  UNL1        0.0088
     30 C          -1.6118  -16.8870   20.9372 C.2     1  UNL1        0.0532
     31 O          -2.4641  -15.7628   21.4470 O.co2   1  UNL1       -0.5491
     32 O          -0.2828  -16.5941   20.3066 O.co2   1  UNL1       -0.5491
@<TRIPOS>UNITY_ATOM_ATTR
31 1
charge -1
@<TRIPOS>BOND
     1    21    22    1
     2    22    19    1
     3    19    20    1
     4    19    17    1
     5    17    18    1
     6    17    11    1
     7    11     1    1
     8     1     2   ar
     9     2     3   ar
    10     3     4   ar
    11     4     5   ar
    12     5     6   ar
    13     6    23    1
    14    23    24    1
    15    24    25    1
    16    25    30    1
    17    30    31   ar
    18    30    32   ar
    19    25    26    1
    20    26    27    1
    21    27    28    1
    22    28    29    1
    23     6     7   ar
    24     7     8   ar
    25     8     9   ar
    26     9    10   ar
    27    11    12    1
    28    12    13   ar
    29    13    14   ar
    30    14    15   ar
    31    15    16   ar
    32    10     1   ar
    33    16    12   ar
    34     9     4   ar
    35    29    25    1
@<TRIPOS>MOLECULE
*****
 32 35 0 0 0
SMALL
GASTEIGER

@<TRIPOS>ATOM
      1 C           3.1538   -1.2777   20.9267 C.ar    1  UNL1       -0.0004
      2 C           1.9421   -1.1937   20.0466 C.ar    1  UNL1       -0.0024
      3 C           0.8700   -0.1867   20.3406 C.ar    1  UNL1       -0.0002
      4 C           1.0096    0.7363   21.5148 C.ar    1  UNL1        0.0030
      5 C          -0.0626    1.7433   21.8088 C.ar    1  UNL1        0.0369
      6 C           0.0770    2.6663   22.9829 C.ar    1  UNL1        0.1386
      7 C           1.2888    2.5822   23.8631 C.ar    1  UNL1        0.0369
      8 C           2.3609    1.5752   23.5691 C.ar    1  UNL1        0.0031
      9 C           2.2213    0.6523   22.3949 C.ar    1  UNL1       -0.0001
     10 C           3.2934   -0.3548   22.1009 C.ar    1  UNL1       -0.0024
     11 C           4.2260   -2.2848   20.6328 C.3     1  UNL1        0.1240
     12 N           5.1784   -2.7033   21.7134 N.ar    1  UNL1       -0.3045
     13 C           4.8560   -3.5941   22.8764 C.ar    1  UNL1        0.0983
     14 C           6.0988   -3.7459   23.7025 C.ar    1  UNL1        0.1193
     15 N           7.1893   -2.9490   23.0500 N.ar    1  UNL1       -0.2223
     16 C           6.6204   -2.3047   21.8207 C.ar    1  UNL1        0.1788
     17 C           4.3457   -2.8732   19.2582 C.3     1  UNL1        0.0827
     18 C           3.7332   -4.2093   18.9584 C.3     1  UNL1        0.0197
     19 N           5.0779   -2.1256   18.1835 N.3     1  UNL1       -0.2708
     20 C           6.5550   -2.3195   18.0082 C.3     1  UNL1        0.0897
     21 C           4.2244    0.2680   17.6433 C.3     1  UNL1        0.0188
     22 C           4.3331   -1.1843   17.2841 C.3     1  UNL1        0.0722
     23 O          -0.9951    3.6733   23.2769 O.3     1  UNL1       -0.4751
     24 C          -2.2555    3.6862   22.4636 C.3     1  UNL1        0.2103
     25 C          -3.5888    3.5996   23.1452 C.3     1  UNL1        0.0723
     26 C          -5.0299    3.4597   23.5373 C.3     1  UNL1        0.0088
     27 C          -5.1265    3.6464   25.0224 C.3     1  UNL1        0.0005
     28 C          -3.7451    3.9017   25.5483 C.3     1  UNL1        0.0005
     29 C          -2.7948    3.8727   24.3881 C.3     1  UNL1        0.0088
     30 C          -4.1041    3.3445   21.7598 C.2     1  UNL1        0.0532
     31 O          -3.1911    2.7799   20.7121 O.co2   1  UNL1       -0.5491
     32 O          -5.5324    3.6541   21.4221 O.co2   1  UNL1       -0.5491
@<TRIPOS>UNITY_ATOM_ATTR
31 1
charge -1
@<TRIPOS>BOND
     1    21    22    1
     2    22    19    1
     3    19    20    1
     4    19    17    1
     5    17    18    1
     6    17    11    1
     7    11     1    1
     8     1     2   ar
     9     2     3   ar
    10     3     4   ar
    11     4     5   ar
    12     5     6   ar
    13     6    23    1
    14    23    24    1
    15    24    25    1
    16    25    30    1
    17    30    31   ar
    18    30    32   ar
    19    25    26    1
    20    26    27    1
    21    27    28    1
    22    28    29    1
    23     6     7   ar
    24     7     8   ar
    25     8     9   ar
    26     9    10   ar
    27    11    12    1
    28    12    13   ar
    29    13    14   ar
    30    14    15   ar
    31    15    16   ar
    32    10     1   ar
    33    16    12   ar
    34     9     4   ar
    35    29    25    1
@<TRIPOS>MOLECULE
*****
 32 35 0 0 0
SMALL
GASTEIGER

@<TRIPOS>ATOM
      1 C           2.9115   -0.6590   20.3755 C.ar    1  UNL1       -0.0004
      2 C           1.5964   -0.0535   19.9832 C.ar    1  UNL1       -0.0024
      3 C           0.7390    0.6126   21.0181 C.ar    1  UNL1       -0.0002
      4 C           1.1966    0.6732   22.4453 C.ar    1  UNL1        0.0030
      5 C           0.3391    1.3393   23.4803 C.ar    1  UNL1        0.0369
      6 C           0.7967    1.3999   24.9075 C.ar    1  UNL1        0.1386
      7 C           2.1118    0.7943   25.2998 C.ar    1  UNL1        0.0369
      8 C           2.9692    0.1282   24.2649 C.ar    1  UNL1        0.0031
      9 C           2.5116    0.0676   22.8377 C.ar    1  UNL1       -0.0001
     10 C           3.3691   -0.5984   21.8028 C.ar    1  UNL1       -0.0024
     11 C           3.7690   -1.3252   19.3406 C.3     1  UNL1        0.1240
     12 N           4.1191   -2.7772   19.4783 N.ar    1  UNL1       -0.3045
     13 C           3.2391   -3.9351   19.1110 C.ar    1  UNL1        0.0983
     14 C           3.9868   -5.1998   19.4132 C.ar    1  UNL1        0.1193
     15 N           5.3290   -4.8236   19.9673 N.ar    1  UNL1       -0.2223
     16 C           5.4108   -3.3264   20.0076 C.ar    1  UNL1        0.1788
     17 C           4.2764   -0.5393   18.1681 C.3     1  UNL1        0.0827
     18 C           3.7734   -0.8424   16.7878 C.3     1  UNL1        0.0197
     19 N           5.2867    0.5498   18.3758 N.3     1  UNL1       -0.2708
     20 C           6.6288    0.2260   18.9624 C.3     1  UNL1        0.0897
     21 C           3.6827    2.5908   18.4836 C.3     1  UNL1        0.0188
     22 C           4.9550    1.9628   17.9969 C.3     1  UNL1        0.0722
     23 O          -0.0608    2.0660   25.9424 O.3     1  UNL1       -0.4751
     24 C          -0.4826    1.3093   27.1670 C.3     1  UNL1        0.2103
     25 C           0.1528    1.6121   28.4916 C.3     1  UNL1        0.0723
     26 C           0.7881    1.6032   29.8504 C.3     1  UNL1        0.0088
     27 C           1.0483    3.0255   30.2497 C.3     1  UNL1        0.0005
     28 C           0.5738    3.9134   29.1378 C.3     1  UNL1        0.0005
     29 C           0.0203    3.0399   28.0512 C.3     1  UNL1        0.0088
     30 C           0.1525    0.1211   28.6551 C.2     1  UNL1        0.0532
     31 O           1.4493   -0.6169   28.8092 O.co2   1  UNL1       -0.5491
     32 O          -1.1447   -0.6320   28.6644 O.co2   1  UNL1       -0.5491
@<TRIPOS>UNITY_ATOM_ATTR
31 1
charge -1
@<TRIPOS>BOND
     1    21    22    1
     2    22    19    1
     3    19    20    1
     4    19    17    1
     5    17    18    1
     6    17    11    1
     7    11     1    1
     8     1     2   ar
     9     2     3   ar
    10     3     4   ar
    11     4     5   ar
    12     5     6   ar
    13     6    23    1
    14    23    24    1
    15    24    25    1
    16    25    30    1
    17    30    31   ar
    18    30    32   ar
    19    25    26    1
    20    26    27    1
    21    27    28    1
    22    28    29    1
    23     6     7   ar
    24     7     8   ar
    25     8     9   ar
    26     9    10   ar
    27    11    12    1
    28    12    13   ar
    29    13    14   ar
    30    14    15   ar
    31    15    16   ar
    32    10     1   ar
    33    16    12   ar
    34     9     4   ar
    35    29    25    1
@<TRIPOS>MOLECULE
*****
 32 35 0 0 0
SMALL
GASTEIGER

@<TRIPOS>ATOM
      1 C          -1.6377    3.5637   19.6926 C.ar    1  UNL1       -0.0004
      2 C          -0.8579    4.0461   18.5056 C.ar    1  UNL1       -0.0024
      3 C           0.4118    3.3522   18.1100 C.ar    1  UNL1       -0.0002
      4 C           0.9016    2.1759   18.9014 C.ar    1  UNL1        0.0030
      5 C           2.1713    1.4821   18.5058 C.ar    1  UNL1        0.0369
      6 C           2.6611    0.3058   19.2972 C.ar    1  UNL1        0.1386
      7 C           1.8813   -0.1766   20.4843 C.ar    1  UNL1        0.0369
      8 C           0.6116    0.5172   20.8799 C.ar    1  UNL1        0.0031
      9 C           0.1218    1.6935   20.0885 C.ar    1  UNL1       -0.0001
     10 C          -1.1478    2.3874   20.4841 C.ar    1  UNL1       -0.0024
     11 C          -2.9074    4.2576   20.0883 C.3     1  UNL1        0.1240
     12 N          -3.4935    4.0298   21.4501 N.ar    1  UNL1       -0.3045
     13 C          -4.6302    3.1075   21.7778 C.ar    1  UNL1        0.0983
     14 C          -4.8851    3.1920   23.2535 C.ar    1  UNL1        0.1193
     15 N          -3.9060    4.1665   23.8380 N.ar    1  UNL1       -0.2223
     16 C          -3.0459    4.6843   22.7234 C.ar    1  UNL1        0.1788
     17 C          -3.5908    5.1792   19.1222 C.3     1  UNL1        0.0827
     18 C          -3.2950    6.6495   19.1510 C.3     1  UNL1        0.0197
     19 N          -4.5701    4.6305   18.1272 N.3     1  UNL1       -0.2708
     20 C          -4.0772    4.0085   16.8543 C.3     1  UNL1        0.0897
     21 C          -6.7974    3.4636   18.7808 C.3     1  UNL1        0.0188
     22 C          -6.0423    4.7040   18.4050 C.3     1  UNL1        0.0722
     23 O           3.9308   -0.3881   18.9016 O.3     1  UNL1       -0.4751
     24 C           4.5224   -1.4369   19.7961 C.3     1  UNL1        0.2103
     25 C           4.9077   -2.7726   19.2328 C.3     1  UNL1        0.0723
     26 C           5.5597   -3.9623   18.5927 C.3     1  UNL1        0.0088
     27 C           4.6065   -5.1170   18.6819 C.3     1  UNL1        0.0005
     28 C           3.3655   -4.6412   19.3771 C.3     1  UNL1        0.0005
     29 C           3.5516   -3.1922   19.7176 C.3     1  UNL1        0.0088
     30 C           6.1832   -2.0738   18.8657 C.2     1  UNL1        0.0532
     31 O           6.6764   -2.1078   17.4495 O.co2   1  UNL1       -0.5491
     32 O           6.9655   -1.3410   19.9150 O.co2   1  UNL1       -0.5491
@<TRIPOS>UNITY_ATOM_ATTR
31 1
charge -1
@<TRIPOS>BOND
     1    21    22    1
     2    22    19    1
     3    19    20    1
     4    19    17    1
     5    17    18    1
     6    17    11    1
     7    11     1    1
     8     1     2   ar
     9     2     3   ar
    10     3     4   ar
    11     4     5   ar
    12     5     6   ar
    13     6    23    1
    14    23    24    1
    15    24    25    1
    16    25    30    1
    17    30    31   ar
    18    30    32   ar
    19    25    26    1
    20    26    27    1
    21    27    28    1
    22    28    29    1
    23     6     7   ar
    24     7     8   ar
    25     8     9   ar
    26     9    10   ar
    27    11    12    1
    28    12    13   ar
    29    13    14   ar
    30    14    15   ar
    31    15    16   ar
    32    10     1   ar
    33    16    12   ar
    34     9     4   ar
    35    29    25    1
@<TRIPOS>MOLECULE
*****
 32 35 0 0 0
SMALL
GASTEIGER

@<TRIPOS>ATOM
      1 C           3.5194   -0.7083   20.6180 C.ar    1  UNL1       -0.0004
      2 C           2.1126   -0.1881   20.6111 C.ar    1  UNL1       -0.0024
      3 C           1.5516    0.4733   21.8350 C.ar    1  UNL1       -0.0002
      4 C           2.3975    0.6145   23.0656 C.ar    1  UNL1        0.0030
      5 C           1.8365    1.2759   24.2895 C.ar    1  UNL1        0.0369
      6 C           2.6823    1.4171   25.5202 C.ar    1  UNL1        0.1386
      7 C           4.0893    0.8968   25.5270 C.ar    1  UNL1        0.0369
      8 C           4.6502    0.2354   24.3031 C.ar    1  UNL1        0.0031
      9 C           3.8043    0.0943   23.0725 C.ar    1  UNL1       -0.0001
     10 C           4.3653   -0.5671   21.8486 C.ar    1  UNL1       -0.0024
     11 C           4.0804   -1.3698   19.3941 C.3     1  UNL1        0.1240
     12 N           4.3240   -2.8499   19.3864 N.ar    1  UNL1       -0.3045
     13 C           3.2888   -3.9126   19.1652 C.ar    1  UNL1        0.0983
     14 C           3.9705   -5.2466   19.2407 C.ar    1  UNL1        0.1193
     15 N           5.4270   -5.0084   19.5086 N.ar    1  UNL1       -0.2223
     16 C           5.6455   -3.5271   19.5987 C.ar    1  UNL1        0.1788
     17 C           4.3979   -0.5512   18.1779 C.3     1  UNL1        0.0827
     18 C           3.7312   -0.8609   16.8703 C.3     1  UNL1        0.0197
     19 N           5.3820    0.5772   18.2693 N.3     1  UNL1       -0.2708
     20 C           6.8302    0.2898   18.5344 C.3     1  UNL1        0.0897
     21 C           4.1162    2.6573   19.1753 C.3     1  UNL1        0.0188
     22 C           4.9180    1.9930   18.0956 C.3     1  UNL1        0.0722
     23 O           2.1214    2.0785   26.7440 O.3     1  UNL1       -0.4751
     24 C           2.1103    1.3469   28.0535 C.3     1  UNL1        0.2103
     25 C           0.8871    0.5906   28.4798 C.3     1  UNL1        0.0723
     26 C          -0.1290   -0.3734   29.0167 C.3     1  UNL1        0.0088
     27 C          -1.4923    0.1825   28.7299 C.3     1  UNL1        0.0005
     28 C          -1.3189    1.4901   28.0157 C.3     1  UNL1        0.0005
     29 C           0.1517    1.7424   27.8611 C.3     1  UNL1        0.0088
     30 C           1.8782   -0.4030   29.0093 C.2     1  UNL1        0.0532
     31 O           2.7275   -1.1943   28.0593 O.co2   1  UNL1       -0.5491
     32 O           2.0200   -0.6052   30.4888 O.co2   1  UNL1       -0.5491
@<TRIPOS>UNITY_ATOM_ATTR
31 1
charge -1
@<TRIPOS>BOND
     1    21    22    1
     2    22    19    1
     3    19    20    1
     4    19    17    1
     5    17    18    1
     6    17    11    1
     7    11     1    1
     8     1     2   ar
     9     2     3   ar
    10     3     4   ar
    11     4     5   ar
    12     5     6   ar
    13     6    23    1
    14    23    24    1
    15    24    25    1
    16    25    30    1
    17    30    31   ar
    18    30    32   ar
    19    25    26    1
    20    26    27    1
    21    27    28    1
    22    28    29    1
    23     6     7   ar
    24     7     8   ar
    25     8     9   ar
    26     9    10   ar
    27    11    12    1
    28    12    13   ar
    29    13    14   ar
    30    14    15   ar
    31    15    16   ar
    32    10     1   ar
    33    16    12   ar
    34     9     4   ar
    35    29    25    1
@<TRIPOS>MOLECULE
*****
 32 35 0 0 0
SMALL
GASTEIGER

@<TRIPOS>ATOM
      1 C           3.9146   -1.7600   21.8150 C.ar    1  UNL1       -0.0004
      2 C           3.4223   -0.8675   22.9155 C.ar    1  UNL1       -0.0024
      3 C           3.9783   -1.0092   24.3013 C.ar    1  UNL1       -0.0002
      4 C           5.0266   -2.0434   24.5868 C.ar    1  UNL1        0.0030
      5 C           5.5826   -2.1851   25.9727 C.ar    1  UNL1        0.0369
      6 C           6.6309   -3.2194   26.2582 C.ar    1  UNL1        0.1386
      7 C           7.1231   -4.1119   25.1576 C.ar    1  UNL1        0.0369
      8 C           6.5671   -3.9702   23.7717 C.ar    1  UNL1        0.0031
      9 C           5.5189   -2.9360   23.4863 C.ar    1  UNL1       -0.0001
     10 C           4.9629   -2.7942   22.1004 C.ar    1  UNL1       -0.0024
     11 C           3.3586   -1.6183   20.4290 C.3     1  UNL1        0.1240
     12 N           2.3706   -0.5314   20.1248 N.ar    1  UNL1       -0.3045
     13 C           2.7030    0.8740   19.7191 C.ar    1  UNL1        0.0983
     14 C           1.4147    1.6150   19.5164 C.ar    1  UNL1        0.1193
     15 N           0.2860    0.6676   19.7968 N.ar    1  UNL1       -0.2223
     16 C           0.8768   -0.6589   20.1729 C.ar    1  UNL1        0.1788
     17 C           3.7905   -2.5635   19.3474 C.3     1  UNL1        0.0827
     18 C           3.2704   -3.9704   19.3290 C.3     1  UNL1        0.0197
     19 N           4.7425   -2.1019   18.2841 N.3     1  UNL1       -0.2708
     20 C           4.2760   -1.1526   17.2205 C.3     1  UNL1        0.0897
     21 C           7.2124   -1.8376   19.0455 C.3     1  UNL1        0.0188
     22 C           6.1610   -2.5895   18.2844 C.3     1  UNL1        0.0722
     23 O           7.1869   -3.3611   27.6440 O.3     1  UNL1       -0.4751
     24 C           6.5318   -4.2892   28.6237 C.3     1  UNL1        0.2103
     25 C           6.6517   -4.0313   30.0965 C.3     1  UNL1        0.0723
     26 C           6.8309   -4.0809   31.5849 C.3     1  UNL1        0.0088
     27 C           6.6325   -2.6945   32.1221 C.3     1  UNL1        0.0005
     28 C           6.3307   -1.7881   30.9657 C.3     1  UNL1        0.0005
     29 C           6.3426   -2.6143   29.7138 C.3     1  UNL1        0.0088
     30 C           6.9357   -5.5022   30.1713 C.2     1  UNL1        0.0532
     31 O           6.8422   -6.2183   31.4860 O.co2   1  UNL1       -0.5491
     32 O           7.3133   -6.2571   28.9313 O.co2   1  UNL1       -0.5491
@<TRIPOS>UNITY_ATOM_ATTR
31 1
charge -1
@<TRIPOS>BOND
     1    21    22    1
     2    22    19    1
     3    19    20    1
     4    19    17    1
     5    17    18    1
     6    17    11    1
     7    11     1    1
     8     1     2   ar
     9     2     3   ar
    10     3     4   ar
    11     4     5   ar
    12     5     6   ar
    13     6    23    1
    14    23    24    1
    15    24    25    1
    16    25    30    1
    17    30    31   ar
    18    30    32   ar
    19    25    26    1
    20    26    27    1
    21    27    28    1
    22    28    29    1
    23     6     7   ar
    24     7     8   ar
    25     8     9   ar
    26     9    10   ar
    27    11    12    1
    28    12    13   ar
    29    13    14   ar
    30    14    15   ar
    31    15    16   ar
    32    10     1   ar
    33    16    12   ar
    34     9     4   ar
    35    29    25    1
@<TRIPOS>MOLECULE
*****
 32 35 0 0 0
SMALL
GASTEIGER

@<TRIPOS>ATOM
      1 C          -1.0217    3.1219   19.9769 C.ar    1  UNL1       -0.0004
      2 C          -0.2251    3.7282   18.8598 C.ar    1  UNL1       -0.0024
      3 C           0.9527    2.9922   18.2933 C.ar    1  UNL1       -0.0002
      4 C           1.3340    1.6500   18.8438 C.ar    1  UNL1        0.0030
      5 C           2.5119    0.9140   18.2772 C.ar    1  UNL1        0.0369
      6 C           2.8932   -0.4282   18.8277 C.ar    1  UNL1        0.1386
      7 C           2.0965   -1.0345   19.9448 C.ar    1  UNL1        0.0369
      8 C           0.9187   -0.2985   20.5113 C.ar    1  UNL1        0.0031
      9 C           0.5374    1.0437   19.9608 C.ar    1  UNL1       -0.0001
     10 C          -0.6404    1.7796   20.5274 C.ar    1  UNL1       -0.0024
     11 C          -2.1996    3.8578   20.5435 C.3     1  UNL1        0.1240
     12 N          -2.4962    3.7812   22.0119 N.ar    1  UNL1       -0.3045
     13 C          -1.5050    3.9663   23.1224 C.ar    1  UNL1        0.0983
     14 C          -2.2323    3.8055   24.4245 C.ar    1  UNL1        0.1193
     15 N          -3.6730    3.5211   24.1186 N.ar    1  UNL1       -0.2223
     16 C          -3.8361    3.5061   22.6276 C.ar    1  UNL1        0.1788
     17 C          -3.0809    4.6703   19.6417 C.3     1  UNL1        0.0827
     18 C          -2.9949    6.1678   19.6594 C.3     1  UNL1        0.0197
     19 N          -4.0481    3.9854   18.7223 N.3     1  UNL1       -0.2708
     20 C          -3.7421    3.8767   17.2578 C.3     1  UNL1        0.0897
     21 C          -6.4916    4.3054   19.5451 C.3     1  UNL1        0.0188
     22 C          -5.3212    3.4092   19.2673 C.3     1  UNL1        0.0722
     23 O           4.0710   -1.1641   18.2611 O.3     1  UNL1       -0.4751
     24 C           4.2226   -2.6367   18.5033 C.3     1  UNL1        0.2103
     25 C           5.3480   -3.1448   19.3550 C.3     1  UNL1        0.0723
     26 C           6.2518   -3.8354   20.3328 C.3     1  UNL1        0.0088
     27 C           7.6350   -3.2830   20.1554 C.3     1  UNL1        0.0005
     28 C           7.5862   -2.2511   19.0678 C.3     1  UNL1        0.0005
     29 C           6.1726   -2.1657   18.5732 C.3     1  UNL1        0.0088
     30 C           4.2880   -4.0177   19.9587 C.2     1  UNL1        0.0532
     31 O           4.4311   -4.5039   21.3705 O.co2   1  UNL1       -0.5491
     32 O           3.0849   -4.4044   19.1507 O.co2   1  UNL1       -0.5491
@<TRIPOS>UNITY_ATOM_ATTR
31 1
charge -1
@<TRIPOS>BOND
     1    21    22    1
     2    22    19    1
     3    19    20    1
     4    19    17    1
     5    17    18    1
     6    17    11    1
     7    11     1    1
     8     1     2   ar
     9     2     3   ar
    10     3     4   ar
    11     4     5   ar
    12     5     6   ar
    13     6    23    1
    14    23    24    1
    15    24    25    1
    16    25    30    1
    17    30    31   ar
    18    30    32   ar
    19    25    26    1
    20    26    27    1
    21    27    28    1
    22    28    29    1
    23     6     7   ar
    24     7     8   ar
    25     8     9   ar
    26     9    10   ar
    27    11    12    1
    28    12    13   ar
    29    13    14   ar
    30    14    15   ar
    31    15    16   ar
    32    10     1   ar
    33    16    12   ar
    34     9     4   ar
    35    29    25    1
@<TRIPOS>MOLECULE
*****
 32 35 0 0 0
SMALL
GASTEIGER

@<TRIPOS>ATOM
      1 C           0.9007    1.3518   26.0127 C.ar    1  UNL1       -0.0004
      2 C           2.1794    0.5793   26.1479 C.ar    1  UNL1       -0.0024
      3 C           2.8529    0.0245   24.9279 C.ar    1  UNL1       -0.0002
      4 C           2.2478    0.2421   23.5727 C.ar    1  UNL1        0.0030
      5 C           2.9214   -0.3128   22.3527 C.ar    1  UNL1        0.0369
      6 C           2.3163   -0.0953   20.9975 C.ar    1  UNL1        0.1386
      7 C           1.0375    0.6772   20.8624 C.ar    1  UNL1        0.0369
      8 C           0.3640    1.2321   22.0824 C.ar    1  UNL1        0.0031
      9 C           0.9691    1.0145   23.4376 C.ar    1  UNL1       -0.0001
     10 C           0.2956    1.5693   24.6576 C.ar    1  UNL1       -0.0024
     11 C           0.2271    1.9066   27.2328 C.3     1  UNL1        0.1240
     12 N          -0.3715    3.2816   27.1990 N.ar    1  UNL1       -0.3045
     13 C           0.3102    4.5505   27.6175 C.ar    1  UNL1        0.0983
     14 C          -0.6539    5.6822   27.4180 C.ar    1  UNL1        0.1193
     15 N          -1.9314    5.1128   26.8761 N.ar    1  UNL1       -0.2223
     16 C          -1.7569    3.6291   26.7408 C.ar    1  UNL1        0.1788
     17 C           0.1521    1.0866   28.4865 C.3     1  UNL1        0.0827
     18 C          -0.7923   -0.0760   28.5669 C.3     1  UNL1        0.0197
     19 N           1.0216    1.4291   29.6599 N.3     1  UNL1       -0.2708
     20 C           0.5291    2.3870   30.7039 C.3     1  UNL1        0.0897
     21 C           2.5210   -0.6273   30.1824 C.3     1  UNL1        0.0188
     22 C           2.3834    0.8137   29.7892 C.3     1  UNL1        0.0722
     23 O           2.9898   -0.6501   19.7775 O.3     1  UNL1       -0.4751
     24 C           4.4173   -1.1051   19.8504 C.3     1  UNL1        0.2103
     25 C           4.8226   -2.4064   19.2241 C.3     1  UNL1        0.0723
     26 C           5.4794   -3.5460   18.5030 C.3     1  UNL1        0.0088
     27 C           4.5979   -4.7517   18.6416 C.3     1  UNL1        0.0005
     28 C           3.3964   -4.3573   19.4483 C.3     1  UNL1        0.0005
     29 C           3.5353   -2.9078   19.8084 C.3     1  UNL1        0.0088
     30 C           6.0252   -1.6329   18.7708 C.2     1  UNL1        0.0532
     31 O           6.6100   -1.8837   17.4124 O.co2   1  UNL1       -0.5491
     32 O           6.6430   -0.6086   19.6758 O.co2   1  UNL1       -0.5491
@<TRIPOS>UNITY_ATOM_ATTR
31 1
charge -1
@<TRIPOS>BOND
     1    21    22    1
     2    22    19    1
     3    19    20    1
     4    19    17    1
     5    17    18    1
     6    17    11    1
     7    11     1    1
     8     1     2   ar
     9     2     3   ar
    10     3     4   ar
    11     4     5   ar
    12     5     6   ar
    13     6    23    1
    14    23    24    1
    15    24    25    1
    16    25    30    1
    17    30    31   ar
    18    30    32   ar
    19    25    26    1
    20    26    27    1
    21    27    28    1
    22    28    29    1
    23     6     7   ar
    24     7     8   ar
    25     8     9   ar
    26     9    10   ar
    27    11    12    1
    28    12    13   ar
    29    13    14   ar
    30    14    15   ar
    31    15    16   ar
    32    10     1   ar
    33    16    12   ar
    34     9     4   ar
    35    29    25    1
