@<TRIPOS>MOLECULE
*****
 36 40 0 0 0
SMALL
GASTEIGER

@<TRIPOS>ATOM
      1 C           4.6387   -3.7543   18.9167 C.2     1  UNL1        0.1953
      2 N           5.4496   -4.2777   20.0648 N.2     1  UNL1       -0.0672
      3 C           5.2586   -3.7079   21.4392 C.cat   1  UNL1        0.4243
      4 N           6.3183   -4.4530   22.7139 N.2     1  UNL1       -0.0703
      5 C           6.8449   -4.6164   24.1089 C.ar    1  UNL1        0.1587
      6 C           7.9074   -5.5397   24.7380 C.ar    1  UNL1        0.0402
      7 C           8.4339   -5.7031   26.1330 C.ar    1  UNL1        0.0397
      8 C           7.8964   -4.8485   27.2424 C.ar    1  UNL1        0.1371
      9 C           6.8324   -3.8305   26.9568 C.ar    1  UNL1        0.0442
     10 C           7.0234   -4.4002   25.5825 C.ar    1  UNL1        0.0383
     11 C           6.2949   -2.9760   28.0663 C.3     1  UNL1        0.1721
     12 O           5.4757   -1.9397   28.7769 O.3     1  UNL1       -0.3441
     13 C           4.4737   -0.8466   29.0031 C.3     1  UNL1        0.1686
     14 C           3.4097    0.1714   28.7176 C.2     1  UNL1        0.0036
     15 C           2.4120    0.9915   27.9547 C.2     1  UNL1        0.0036
     16 C           1.6010    1.5148   26.8064 C.3     1  UNL1        0.1686
     17 O           1.0744    1.6783   25.4114 O.3     1  UNL1       -0.3443
     18 C           0.8959    1.4621   23.9379 C.3     1  UNL1        0.1691
     19 C           1.0869    0.8924   22.5635 C.ar    1  UNL1        0.0074
     20 C           0.4395    1.1877   21.1958 C.ar    1  UNL1       -0.0018
     21 C           0.6305    0.6180   19.8214 C.ar    1  UNL1       -0.0002
     22 C           1.6326   -0.4751   19.5952 C.ar    1  UNL1        0.0026
     23 C           2.4436   -0.9985   20.7434 C.ar    1  UNL1        0.0286
     24 C           1.6244    0.0379   21.4541 C.ar    1  UNL1        0.0008
     25 C           3.4457   -2.0916   20.5172 C.2     1  UNL1        0.1117
     26 C           3.6367   -2.6613   19.1428 C.2     1  UNL1        0.0713
     27 N           4.2566   -2.6149   21.6654 N.pl3   1  UNL1       -0.2000
     28 H           4.1313   -2.2410   22.5675 H       1  UNL1        0.2515
     29 O           8.4229   -5.0120   28.6374 O.3     1  UNL1       -0.4742
     30 C           7.8455   -6.0629   29.5387 C.3     1  UNL1        0.2226
     31 C           7.0022   -5.6630   30.7130 C.3     1  UNL1        0.1200
     32 N           7.2659   -4.3659   31.4186 N.3     1  UNL1       -0.2696
     33 C           8.6142   -3.8172   31.7805 C.3     1  UNL1        0.0722
     34 C           8.4091   -2.5019   32.4719 C.3     1  UNL1        0.0188
     35 C           6.9341   -2.2376   32.5372 C.3     1  UNL1        0.0188
     36 C           6.2275   -3.3896   31.8863 C.3     1  UNL1        0.0722
@<TRIPOS>BOND
     1     1     2    2
     2     2     3    1
     3     3     4    2
     4     4     5    1
     5     5     6   ar
     6     6     7   ar
     7     7     8   ar
     8     8    29    1
     9    29    30    1
    10    30    31    1
    11    31    32    1
    12    32    33    1
    13    33    34    1
    14    34    35    1
    15    35    36    1
    16     8     9   ar
    17     9    10   ar
    18     9    11    1
    19    11    12    1
    20    12    13    1
    21    13    14    1
    22    14    15    2
    23    15    16    1
    24    16    17    1
    25    17    18    1
    26    18    19    1
    27    19    20   ar
    28    20    21   ar
    29    21    22   ar
    30    22    23   ar
    31    23    24   ar
    32    23    25    1
    33    25    26    2
    34    25    27    1
    35    26     1    1
    36    27     3    1
    37    10     5   ar
    38    24    19   ar
    39    36    32    1
    40    27    28    1
@<TRIPOS>MOLECULE
*****
 36 40 0 0 0
SMALL
GASTEIGER

@<TRIPOS>ATOM
      1 C           1.5570    1.8861   29.0998 C.2     1  UNL1        0.1953
      2 N           1.8423    1.4208   27.7027 N.2     1  UNL1       -0.0672
      3 C           2.7761    0.2699   27.4715 C.cat   1  UNL1        0.4243
      4 N           3.0115   -0.1652   25.7227 N.2     1  UNL1       -0.0703
      5 C           3.5921   -0.9651   24.5944 C.ar    1  UNL1        0.1587
      6 C           3.4332   -0.9040   23.0620 C.ar    1  UNL1        0.0402
      7 C           4.0138   -1.7040   21.9337 C.ar    1  UNL1        0.0397
      8 C           4.9629   -2.8289   22.2226 C.ar    1  UNL1        0.1371
      9 C           5.3316   -3.1540   23.6398 C.ar    1  UNL1        0.0442
     10 C           4.3978   -2.0031   23.8710 C.ar    1  UNL1        0.0383
     11 C           6.2808   -4.2790   23.9286 C.3     1  UNL1        0.1721
     12 O           7.1309   -5.2424   24.7027 O.3     1  UNL1       -0.3441
     13 C           7.7794   -5.9280   25.8686 C.3     1  UNL1        0.1686
     14 C           8.1481   -6.2531   27.2858 C.2     1  UNL1        0.0036
     15 C           8.1924   -6.1784   28.7833 C.2     1  UNL1        0.0036
     16 C           7.9071   -5.7131   30.1805 C.3     1  UNL1        0.1686
     17 O           7.3266   -4.9132   31.3088 O.3     1  UNL1       -0.3443
     18 C           6.5208   -3.8752   32.0322 C.3     1  UNL1        0.1691
     19 C           5.5871   -2.7243   32.2634 C.ar    1  UNL1        0.0074
     20 C           5.0848   -2.0071   33.5324 C.ar    1  UNL1       -0.0018
     21 C           4.1510   -0.8562   33.7636 C.ar    1  UNL1       -0.0002
     22 C           3.5025   -0.1706   32.5976 C.ar    1  UNL1        0.0026
     23 C           3.7878   -0.6359   31.2005 C.ar    1  UNL1        0.0286
     24 C           4.6379   -1.5993   31.9746 C.ar    1  UNL1        0.0008
     25 C           3.1393    0.0497   30.0345 C.2     1  UNL1        0.1117
     26 C           2.2055    1.2006   30.2657 C.2     1  UNL1        0.0713
     27 N           3.4246   -0.4157   28.6374 N.pl3   1  UNL1       -0.2000
     28 H           4.0374   -1.1710   28.4856 H       1  UNL1        0.2515
     29 O           5.5435   -3.6289   21.0943 O.3     1  UNL1       -0.4742
     30 C           4.6360   -4.3048   20.1095 C.3     1  UNL1        0.2226
     31 C           4.7424   -3.9831   18.6483 C.3     1  UNL1        0.1200
     32 N           5.1599   -2.6103   18.2110 N.3     1  UNL1       -0.2696
     33 C           4.2398   -1.4798   17.8571 C.3     1  UNL1        0.0722
     34 C           5.0821   -0.2978   17.4782 C.3     1  UNL1        0.0188
     35 C           6.5228   -0.6979   17.5979 C.3     1  UNL1        0.0188
     36 C           6.5709   -2.1271   18.0508 C.3     1  UNL1        0.0722
@<TRIPOS>BOND
     1     1     2    2
     2     2     3    1
     3     3     4    2
     4     4     5    1
     5     5     6   ar
     6     6     7   ar
     7     7     8   ar
     8     8    29    1
     9    29    30    1
    10    30    31    1
    11    31    32    1
    12    32    33    1
    13    33    34    1
    14    34    35    1
    15    35    36    1
    16     8     9   ar
    17     9    10   ar
    18     9    11    1
    19    11    12    1
    20    12    13    1
    21    13    14    1
    22    14    15    2
    23    15    16    1
    24    16    17    1
    25    17    18    1
    26    18    19    1
    27    19    20   ar
    28    20    21   ar
    29    21    22   ar
    30    22    23   ar
    31    23    24   ar
    32    23    25    1
    33    25    26    2
    34    25    27    1
    35    26     1    1
    36    27     3    1
    37    10     5   ar
    38    24    19   ar
    39    36    32    1
    40    27    28    1
@<TRIPOS>MOLECULE
*****
 36 40 0 0 0
SMALL
GASTEIGER

@<TRIPOS>ATOM
      1 C           3.8540   -1.2123   22.3692 C.2     1  UNL1        0.1953
      2 N           3.1629   -0.4886   23.4866 N.2     1  UNL1       -0.0672
      3 C           3.4761   -0.8357   24.9119 C.cat   1  UNL1        0.4243
      4 N           2.5524    0.1341   26.1403 N.2     1  UNL1       -0.0703
      5 C           2.1631    0.5342   27.5326 C.ar    1  UNL1        0.1587
      6 C           1.1776    1.5763   28.0981 C.ar    1  UNL1        0.0402
      7 C           0.7882    1.9764   29.4904 C.ar    1  UNL1        0.0397
      8 C           1.4173    1.2959   30.6698 C.ar    1  UNL1        0.1371
      9 C           2.4357    0.2153   30.4571 C.ar    1  UNL1        0.0442
     10 C           2.1225    0.5624   29.0318 C.ar    1  UNL1        0.0383
     11 C           3.0647   -0.4652   31.6365 C.3     1  UNL1        0.1721
     12 O           3.9338   -1.3971   32.4280 O.3     1  UNL1       -0.3441
     13 C           4.9381   -2.4679   32.7359 C.3     1  UNL1        0.1686
     14 C           5.9564   -3.5484   32.5231 C.2     1  UNL1        0.0036
     15 C           6.8660   -4.5085   31.8154 C.2     1  UNL1        0.0036
     16 C           7.5572   -5.2322   30.6979 C.3     1  UNL1        0.1686
     17 O           7.9465   -5.6323   29.3056 O.3     1  UNL1       -0.3443
     18 C           7.9870   -5.6605   27.8065 C.3     1  UNL1        0.1691
     19 C           7.6739   -5.3134   26.3812 C.ar    1  UNL1        0.0074
     20 C           8.1844   -5.8426   25.0261 C.ar    1  UNL1       -0.0018
     21 C           7.8712   -5.4955   23.6008 C.ar    1  UNL1       -0.0002
     22 C           6.8669   -4.4247   23.2929 C.ar    1  UNL1        0.0026
     23 C           6.1758   -3.7010   24.4103 C.ar    1  UNL1        0.0286
     24 C           7.0449   -4.6329   25.2017 C.ar    1  UNL1        0.0008
     25 C           5.1714   -2.6302   24.1024 C.2     1  UNL1        0.1117
     26 C           4.8583   -2.2831   22.6771 C.2     1  UNL1        0.0713
     27 N           4.4803   -1.9065   25.2198 N.pl3   1  UNL1       -0.2000
     28 H           4.6859   -2.1343   26.1553 H       1  UNL1        0.2515
     29 O           1.0280    1.6959   32.0621 O.3     1  UNL1       -0.4742
     30 C           1.7244    2.8409   32.7358 C.3     1  UNL1        0.2226
     31 C           2.6723    2.5803   33.8688 C.3     1  UNL1        0.1200
     32 N           2.3270    3.0361   35.2555 N.3     1  UNL1       -0.2696
     33 C           2.6757    2.3256   36.5297 C.3     1  UNL1        0.0722
     34 C           2.1365    3.1330   37.6732 C.3     1  UNL1        0.0188
     35 C           1.4545    4.3425   37.1057 C.3     1  UNL1        0.0188
     36 C           1.5722    4.2826   35.6115 C.3     1  UNL1        0.0722
@<TRIPOS>BOND
     1     1     2    2
     2     2     3    1
     3     3     4    2
     4     4     5    1
     5     5     6   ar
     6     6     7   ar
     7     7     8   ar
     8     8    29    1
     9    29    30    1
    10    30    31    1
    11    31    32    1
    12    32    33    1
    13    33    34    1
    14    34    35    1
    15    35    36    1
    16     8     9   ar
    17     9    10   ar
    18     9    11    1
    19    11    12    1
    20    12    13    1
    21    13    14    1
    22    14    15    2
    23    15    16    1
    24    16    17    1
    25    17    18    1
    26    18    19    1
    27    19    20   ar
    28    20    21   ar
    29    21    22   ar
    30    22    23   ar
    31    23    24   ar
    32    23    25    1
    33    25    26    2
    34    25    27    1
    35    26     1    1
    36    27     3    1
    37    10     5   ar
    38    24    19   ar
    39    36    32    1
    40    27    28    1
@<TRIPOS>MOLECULE
*****
 36 40 0 0 0
SMALL
GASTEIGER

@<TRIPOS>ATOM
      1 C           0.7368    2.3814   25.1397 C.2     1  UNL1        0.1953
      2 N           0.9902    2.2625   26.6133 N.2     1  UNL1       -0.0672
      3 C           1.9227    1.2080   27.1314 C.cat   1  UNL1        0.4243
      4 N           2.1177    1.2013   28.9383 N.2     1  UNL1       -0.0703
      5 C           2.6740    0.6966   30.2367 C.ar    1  UNL1        0.1587
      6 C           2.4780    1.1170   31.7070 C.ar    1  UNL1        0.0402
      7 C           3.0343    0.6123   33.0054 C.ar    1  UNL1        0.0397
      8 C           3.9946   -0.5399   33.0125 C.ar    1  UNL1        0.1371
      9 C           4.3987   -1.1875   31.7212 C.ar    1  UNL1        0.0442
     10 C           3.4662   -0.1330   31.2032 C.ar    1  UNL1        0.0383
     11 C           5.3590   -2.3398   31.7284 C.3     1  UNL1        0.1721
     12 O           6.2313   -3.4508   31.2237 O.3     1  UNL1       -0.3441
     13 C           6.9105   -4.3865   30.2682 C.3     1  UNL1        0.1686
     14 C           7.3145   -5.0342   28.9769 C.2     1  UNL1        0.0036
     15 C           7.3946   -5.3155   27.5057 C.2     1  UNL1        0.0036
     16 C           7.1413   -5.1968   26.0320 C.3     1  UNL1        0.1686
     17 O           6.5849   -4.6921   24.7336 O.3     1  UNL1       -0.3443
     18 C           5.7928   -3.8625   23.7671 C.3     1  UNL1        0.1691
     19 C           4.8603   -2.8079   23.2490 C.ar    1  UNL1        0.0074
     20 C           4.3859   -2.4162   21.8353 C.ar    1  UNL1       -0.0018
     21 C           3.4534   -1.3616   21.3173 C.ar    1  UNL1       -0.0002
     22 C           2.7742   -0.4259   22.2729 C.ar    1  UNL1        0.0026
     23 C           3.0276   -0.5447   23.7465 C.ar    1  UNL1        0.0286
     24 C           3.9000   -1.6557   23.2419 C.ar    1  UNL1        0.0008
     25 C           2.3485    0.3911   24.7022 C.2     1  UNL1        0.1117
     26 C           1.4160    1.4456   24.1841 C.2     1  UNL1        0.0713
     27 N           2.6018    0.2723   26.1758 N.pl3   1  UNL1       -0.2000
     28 H           3.2139   -0.4199   26.5159 H       1  UNL1        0.2515
     29 O           4.5510   -1.0446   34.3109 O.3     1  UNL1       -0.4742
     30 C           5.4233   -0.1572   35.1485 C.3     1  UNL1        0.2226
     31 C           5.1359    0.0128   36.6109 C.3     1  UNL1        0.1200
     32 N           4.0791    0.9777   37.0603 N.3     1  UNL1       -0.2696
     33 C           3.5410    2.1298   36.2645 C.3     1  UNL1        0.0722
     34 C           2.5041    2.8240   37.0968 C.3     1  UNL1        0.0188
     35 C           2.4012    2.1011   38.4071 C.3     1  UNL1        0.0188
     36 C           3.3746    0.9599   38.3845 C.3     1  UNL1        0.0722
@<TRIPOS>BOND
     1     1     2    2
     2     2     3    1
     3     3     4    2
     4     4     5    1
     5     5     6   ar
     6     6     7   ar
     7     7     8   ar
     8     8    29    1
     9    29    30    1
    10    30    31    1
    11    31    32    1
    12    32    33    1
    13    33    34    1
    14    34    35    1
    15    35    36    1
    16     8     9   ar
    17     9    10   ar
    18     9    11    1
    19    11    12    1
    20    12    13    1
    21    13    14    1
    22    14    15    2
    23    15    16    1
    24    16    17    1
    25    17    18    1
    26    18    19    1
    27    19    20   ar
    28    20    21   ar
    29    21    22   ar
    30    22    23   ar
    31    23    24   ar
    32    23    25    1
    33    25    26    2
    34    25    27    1
    35    26     1    1
    36    27     3    1
    37    10     5   ar
    38    24    19   ar
    39    36    32    1
    40    27    28    1
@<TRIPOS>MOLECULE
*****
 36 40 0 0 0
SMALL
GASTEIGER

@<TRIPOS>ATOM
      1 C           0.9899    2.2886   31.1139 C.2     1  UNL1        0.1953
      2 N           0.8399    2.2843   29.6214 N.2     1  UNL1       -0.0672
      3 C           1.6564    1.3413   28.7883 C.cat   1  UNL1        0.4243
      4 N           1.3532    1.4652   27.0007 N.2     1  UNL1       -0.0703
      5 C           1.5642    1.0896   25.5638 C.ar    1  UNL1        0.1587
      6 C           0.9520    1.5863   24.2389 C.ar    1  UNL1        0.0402
      7 C           1.1631    1.2107   22.8021 C.ar    1  UNL1        0.0397
      8 C           2.1508    0.1401   22.4441 C.ar    1  UNL1        0.1371
      9 C           2.9274   -0.5550   23.5229 C.ar    1  UNL1        0.0442
     10 C           2.1110    0.3880   24.3561 C.ar    1  UNL1        0.0383
     11 C           3.9151   -1.6256   23.1649 C.3     1  UNL1        0.1721
     12 O           4.9550   -2.6947   23.3252 O.3     1  UNL1       -0.3441
     13 C           5.9215   -3.6334   23.9844 C.3     1  UNL1        0.1686
     14 C           6.6981   -4.3285   25.0632 C.2     1  UNL1        0.0036
     15 C           7.1912   -4.6960   26.4313 C.2     1  UNL1        0.0036
     16 C           7.3413   -4.6917   27.9238 C.3     1  UNL1        0.1686
     17 O           7.1302   -4.3161   29.3607 O.3     1  UNL1       -0.3443
     18 C           6.5834   -3.6146   30.5685 C.3     1  UNL1        0.1691
     19 C           5.7670   -2.6716   31.4016 C.ar    1  UNL1        0.0074
     20 C           5.6725   -2.4092   32.9180 C.ar    1  UNL1       -0.0018
     21 C           4.8560   -1.4662   33.7511 C.ar    1  UNL1       -0.0002
     22 C           3.8895   -0.5275   33.0918 C.ar    1  UNL1        0.0026
     23 C           3.7395   -0.5318   31.5993 C.ar    1  UNL1        0.0286
     24 C           4.7793   -1.6010   31.7596 C.ar    1  UNL1        0.0008
     25 C           2.7729    0.4069   30.9400 C.2     1  UNL1        0.1117
     26 C           1.9564    1.3499   31.7732 C.2     1  UNL1        0.0713
     27 N           2.6229    0.4026   29.4475 N.pl3   1  UNL1       -0.2000
     28 H           3.1587   -0.2163   28.9007 H       1  UNL1        0.2515
     29 O           2.3619   -0.2355   21.0073 O.3     1  UNL1       -0.4742
     30 C           3.5174    0.3402   20.2436 C.3     1  UNL1        0.2226
     31 C           4.2131   -0.4844   19.2014 C.3     1  UNL1        0.1200
     32 N           4.5298   -1.9251   19.4734 N.3     1  UNL1       -0.2696
     33 C           5.8586   -2.4691   19.9075 C.3     1  UNL1        0.0722
     34 C           5.7232   -3.9551   20.0614 C.3     1  UNL1        0.0188
     35 C           4.3108   -4.3295   19.7225 C.3     1  UNL1        0.0188
     36 C           3.5732   -3.0749   19.3590 C.3     1  UNL1        0.0722
@<TRIPOS>BOND
     1     1     2    2
     2     2     3    1
     3     3     4    2
     4     4     5    1
     5     5     6   ar
     6     6     7   ar
     7     7     8   ar
     8     8    29    1
     9    29    30    1
    10    30    31    1
    11    31    32    1
    12    32    33    1
    13    33    34    1
    14    34    35    1
    15    35    36    1
    16     8     9   ar
    17     9    10   ar
    18     9    11    1
    19    11    12    1
    20    12    13    1
    21    13    14    1
    22    14    15    2
    23    15    16    1
    24    16    17    1
    25    17    18    1
    26    18    19    1
    27    19    20   ar
    28    20    21   ar
    29    21    22   ar
    30    22    23   ar
    31    23    24   ar
    32    23    25    1
    33    25    26    2
    34    25    27    1
    35    26     1    1
    36    27     3    1
    37    10     5   ar
    38    24    19   ar
    39    36    32    1
    40    27    28    1
@<TRIPOS>MOLECULE
*****
 36 40 0 0 0
SMALL
GASTEIGER

@<TRIPOS>ATOM
      1 C           0.8517    2.5265   29.7647 C.2     1  UNL1        0.1953
      2 N           0.9784    2.2207   28.3017 N.2     1  UNL1       -0.0672
      3 C           1.9062    1.1364   27.8397 C.cat   1  UNL1        0.4243
      4 N           1.9403    0.8955   26.0387 N.2     1  UNL1       -0.0703
      5 C           2.4008    0.2403   24.7703 C.ar    1  UNL1        0.1587
      6 C           2.0571    0.4550   23.2827 C.ar    1  UNL1        0.0402
      7 C           2.5176   -0.2002   22.0143 C.ar    1  UNL1        0.0397
      8 C           3.5226   -1.3125   22.0668 C.ar    1  UNL1        0.1371
      9 C           4.0672   -1.7696   23.3876 C.ar    1  UNL1        0.0442
     10 C           3.1394   -0.6853   23.8496 C.ar    1  UNL1        0.0383
     11 C           5.0723   -2.8818   23.4400 C.3     1  UNL1        0.1721
     12 O           6.0333   -3.8879   24.0005 O.3     1  UNL1       -0.3441
     13 C           6.8345   -4.6664   25.0015 C.3     1  UNL1        0.1686
     14 C           7.3791   -5.1235   26.3222 C.2     1  UNL1        0.0036
     15 C           7.6015   -5.2040   27.8035 C.2     1  UNL1        0.0036
     16 C           7.4749   -4.8983   29.2666 C.3     1  UNL1        0.1686
     17 O           7.0144   -4.2431   30.5350 O.3     1  UNL1       -0.3443
     18 C           6.2758   -3.3175   31.4556 C.3     1  UNL1        0.1691
     19 C           5.3480   -2.2332   31.9177 C.ar    1  UNL1        0.0074
     20 C           4.9842   -1.6720   33.3068 C.ar    1  UNL1       -0.0018
     21 C           4.0564   -0.5877   33.7688 C.ar    1  UNL1       -0.0002
     22 C           3.2552    0.1909   32.7677 C.ar    1  UNL1        0.0026
     23 C           3.3819   -0.1149   31.3047 C.ar    1  UNL1        0.0286
     24 C           4.3430   -1.1210   31.8653 C.ar    1  UNL1        0.0008
     25 C           2.5807    0.6636   30.3037 C.2     1  UNL1        0.1117
     26 C           1.6529    1.7479   30.7657 C.2     1  UNL1        0.0713
     27 N           2.7074    0.3579   28.8407 N.pl3   1  UNL1       -0.2000
     28 H           3.3163   -0.3538   28.5374 H       1  UNL1        0.2515
     29 O           3.9830   -1.9677   20.7984 O.3     1  UNL1       -0.4742
     30 C           4.4007   -1.1267   19.6287 C.3     1  UNL1        0.2226
     31 C           3.4276   -0.8440   18.5227 C.3     1  UNL1        0.1200
     32 N           2.6751    0.4534   18.4992 N.3     1  UNL1       -0.2696
     33 C           3.2822    1.8251   18.5113 C.3     1  UNL1        0.0722
     34 C           2.1657    2.8264   18.4791 C.3     1  UNL1        0.0188
     35 C           0.8687    2.0736   18.4471 C.3     1  UNL1        0.0188
     36 C           1.1836    0.6070   18.4596 C.3     1  UNL1        0.0722
@<TRIPOS>BOND
     1     1     2    2
     2     2     3    1
     3     3     4    2
     4     4     5    1
     5     5     6   ar
     6     6     7   ar
     7     7     8   ar
     8     8    29    1
     9    29    30    1
    10    30    31    1
    11    31    32    1
    12    32    33    1
    13    33    34    1
    14    34    35    1
    15    35    36    1
    16     8     9   ar
    17     9    10   ar
    18     9    11    1
    19    11    12    1
    20    12    13    1
    21    13    14    1
    22    14    15    2
    23    15    16    1
    24    16    17    1
    25    17    18    1
    26    18    19    1
    27    19    20   ar
    28    20    21   ar
    29    21    22   ar
    30    22    23   ar
    31    23    24   ar
    32    23    25    1
    33    25    26    2
    34    25    27    1
    35    26     1    1
    36    27     3    1
    37    10     5   ar
    38    24    19   ar
    39    36    32    1
    40    27    28    1
@<TRIPOS>MOLECULE
*****
 36 40 0 0 0
SMALL
GASTEIGER

@<TRIPOS>ATOM
      1 C           0.4651    1.9432   23.6301 C.2     1  UNL1        0.1953
      2 N           0.3756    2.2554   25.0946 N.2     1  UNL1       -0.0672
      3 C           1.2431    1.5198   26.0725 C.cat   1  UNL1        0.4243
      4 N           1.0102    2.0185   27.8046 N.2     1  UNL1       -0.0703
      5 C           1.2864    1.9597   29.2778 C.ar    1  UNL1        0.1587
      6 C           0.7188    2.7209   30.4924 C.ar    1  UNL1        0.0402
      7 C           0.9950    2.6621   31.9656 C.ar    1  UNL1        0.0397
      8 C           2.0168    1.7024   32.4993 C.ar    1  UNL1        0.1371
      9 C           2.7624    0.8014   31.5599 C.ar    1  UNL1        0.0442
     10 C           1.8949    1.5370   30.5820 C.ar    1  UNL1        0.0383
     11 C           3.7841   -0.1583   32.0937 C.3     1  UNL1        0.1721
     12 O           4.8369   -1.2264   32.1189 O.3     1  UNL1       -0.3441
     13 C           5.7938   -2.2741   31.6325 C.3     1  UNL1        0.1686
     14 C           6.5394   -3.1751   30.6931 C.2     1  UNL1        0.0036
     15 C           6.9836   -3.8205   29.4141 C.2     1  UNL1        0.0036
     16 C           7.0731   -4.1327   27.9496 C.3     1  UNL1        0.1686
     17 O           6.7969   -4.0739   26.4764 O.3     1  UNL1       -0.3443
     18 C           6.1884   -3.6513   25.1722 C.3     1  UNL1        0.1691
     19 C           5.3209   -2.9157   24.1942 C.ar    1  UNL1        0.0074
     20 C           5.1601   -2.9833   22.6623 C.ar    1  UNL1       -0.0018
     21 C           4.2927   -2.2477   21.6843 C.ar    1  UNL1       -0.0002
     22 C           3.3357   -1.2000   22.1708 C.ar    1  UNL1        0.0026
     23 C           3.2463   -0.8878   23.6352 C.ar    1  UNL1        0.0286
     24 C           4.2992   -1.9560   23.6604 C.ar    1  UNL1        0.0008
     25 C           2.2894    0.1599   24.1217 C.2     1  UNL1        0.1117
     26 C           1.4219    0.8955   23.1437 C.2     1  UNL1        0.0713
     27 N           2.2000    0.4721   25.5861 N.pl3   1  UNL1       -0.2000
     28 H           2.7693   -0.0107   26.2280 H       1  UNL1        0.2515
     29 O           2.2930    1.6436   33.9725 O.3     1  UNL1       -0.4742
     30 C           2.2929    2.9035   34.7865 C.3     1  UNL1        0.2226
     31 C           2.9946    2.9403   36.1117 C.3     1  UNL1        0.1200
     32 N           2.3197    2.3903   37.3332 N.3     1  UNL1       -0.2696
     33 C           1.2769    3.0889   38.1544 C.3     1  UNL1        0.0722
     34 C           0.8819    2.1754   39.2767 C.3     1  UNL1        0.0188
     35 C           1.6806    0.9122   39.1491 C.3     1  UNL1        0.0188
     36 C           2.5693    1.0450   37.9480 C.3     1  UNL1        0.0722
@<TRIPOS>BOND
     1     1     2    2
     2     2     3    1
     3     3     4    2
     4     4     5    1
     5     5     6   ar
     6     6     7   ar
     7     7     8   ar
     8     8    29    1
     9    29    30    1
    10    30    31    1
    11    31    32    1
    12    32    33    1
    13    33    34    1
    14    34    35    1
    15    35    36    1
    16     8     9   ar
    17     9    10   ar
    18     9    11    1
    19    11    12    1
    20    12    13    1
    21    13    14    1
    22    14    15    2
    23    15    16    1
    24    16    17    1
    25    17    18    1
    26    18    19    1
    27    19    20   ar
    28    20    21   ar
    29    21    22   ar
    30    22    23   ar
    31    23    24   ar
    32    23    25    1
    33    25    26    2
    34    25    27    1
    35    26     1    1
    36    27     3    1
    37    10     5   ar
    38    24    19   ar
    39    36    32    1
    40    27    28    1
@<TRIPOS>MOLECULE
*****
 36 40 0 0 0
SMALL
GASTEIGER

@<TRIPOS>ATOM
      1 C           4.9634    1.4201   28.7896 C.2     1  UNL1        0.1953
      2 N           5.1618    1.3015   27.3076 N.2     1  UNL1       -0.0672
      3 C           5.6912    0.0263   26.7214 C.cat   1  UNL1        0.4243
      4 N           5.8714    0.0502   24.9131 N.2     1  UNL1       -0.0703
      5 C           6.2277   -0.5415   23.5815 C.ar    1  UNL1        0.1587
      6 C           6.1811   -0.0034   22.1375 C.ar    1  UNL1        0.0402
      7 C           6.5374   -0.5950   20.8059 C.ar    1  UNL1        0.0397
      8 C           7.0610   -1.9983   20.7247 C.ar    1  UNL1        0.1371
      9 C           7.2283   -2.8100   21.9750 C.ar    1  UNL1        0.0442
     10 C           6.6989   -1.5348   22.5612 C.ar    1  UNL1        0.0383
     11 C           7.7519   -4.2132   21.8937 C.3     1  UNL1        0.1721
     12 O           8.2067   -5.5754   22.3271 O.3     1  UNL1       -0.3441
     13 C           8.5376   -6.7320   23.2230 C.3     1  UNL1        0.1686
     14 C           8.7049   -7.5437   24.4733 C.2     1  UNL1        0.0036
     15 C           8.6884   -7.9124   25.9271 C.2     1  UNL1        0.0036
     16 C           8.4900   -7.7939   27.4093 C.3     1  UNL1        0.1686
     17 O           8.1337   -7.2023   28.7409 O.3     1  UNL1       -0.3443
     18 C           7.6625   -6.2090   29.7612 C.3     1  UNL1        0.1691
     19 C           7.1331   -4.9338   30.3474 C.ar    1  UNL1        0.0074
     20 C           6.8167   -4.4817   31.7871 C.ar    1  UNL1       -0.0018
     21 C           6.2873   -3.2065   32.3733 C.ar    1  UNL1       -0.0002
     22 C           5.9564   -2.0498   31.4773 C.ar    1  UNL1        0.0026
     23 C           6.1547   -2.1684   29.9953 C.ar    1  UNL1        0.0286
     24 C           6.6095   -3.5305   30.4287 C.ar    1  UNL1        0.0008
     25 C           5.8238   -1.0117   29.0993 C.2     1  UNL1        0.1117
     26 C           5.2944    0.2635   29.6855 C.2     1  UNL1        0.0713
     27 N           6.0222   -1.1303   27.6172 N.pl3   1  UNL1       -0.2000
     28 H           6.3696   -1.9673   27.2325 H       1  UNL1        0.2515
     29 O           7.4173   -2.5899   19.3931 O.3     1  UNL1       -0.4742
     30 C           6.5718   -2.2931   18.1902 C.3     1  UNL1        0.2226
     31 C           5.1529   -2.7764   18.1330 C.3     1  UNL1        0.1200
     32 N           4.0447   -1.9123   18.6577 N.3     1  UNL1       -0.2696
     33 C           3.2393   -2.1673   19.8972 C.3     1  UNL1        0.0722
     34 C           2.2441   -1.0541   20.0405 C.3     1  UNL1        0.0188
     35 C           2.4344   -0.1112   18.8896 C.3     1  UNL1        0.0188
     36 C           3.5473   -0.6416   18.0349 C.3     1  UNL1        0.0722
@<TRIPOS>BOND
     1     1     2    2
     2     2     3    1
     3     3     4    2
     4     4     5    1
     5     5     6   ar
     6     6     7   ar
     7     7     8   ar
     8     8    29    1
     9    29    30    1
    10    30    31    1
    11    31    32    1
    12    32    33    1
    13    33    34    1
    14    34    35    1
    15    35    36    1
    16     8     9   ar
    17     9    10   ar
    18     9    11    1
    19    11    12    1
    20    12    13    1
    21    13    14    1
    22    14    15    2
    23    15    16    1
    24    16    17    1
    25    17    18    1
    26    18    19    1
    27    19    20   ar
    28    20    21   ar
    29    21    22   ar
    30    22    23   ar
    31    23    24   ar
    32    23    25    1
    33    25    26    2
    34    25    27    1
    35    26     1    1
    36    27     3    1
    37    10     5   ar
    38    24    19   ar
    39    36    32    1
    40    27    28    1
@<TRIPOS>MOLECULE
*****
 36 40 0 0 0
SMALL
GASTEIGER

@<TRIPOS>ATOM
      1 C           8.3053   -5.9668   26.5262 C.2     1  UNL1        0.1953
      2 N           7.5734   -5.3574   25.3674 N.2     1  UNL1       -0.0672
      3 C           6.5776   -4.2605   25.6023 C.cat   1  UNL1        0.4243
      4 N           5.7816   -3.6344   24.0933 N.2     1  UNL1       -0.0703
      5 C           4.8450   -2.7489   23.3259 C.ar    1  UNL1        0.1587
      6 C           4.5078   -2.6106   21.8278 C.ar    1  UNL1        0.0402
      7 C           3.5713   -1.7250   21.0604 C.ar    1  UNL1        0.0397
      8 C           2.7279   -0.7184   21.7853 C.ar    1  UNL1        0.1371
      9 C           2.8210   -0.5973   23.2775 C.ar    1  UNL1        0.0442
     10 C           3.8169   -1.6941   23.0426 C.ar    1  UNL1        0.0383
     11 C           1.9777    0.4093   24.0023 C.3     1  UNL1        0.1721
     12 O           1.3884    1.2044   25.1296 O.3     1  UNL1       -0.3441
     13 C           1.1244    1.6918   26.5234 C.3     1  UNL1        0.1686
     14 C           1.2175    1.8130   28.0156 C.2     1  UNL1        0.0036
     15 C           1.6565    1.5532   29.4262 C.2     1  UNL1        0.0036
     16 C           2.3884    0.9438   30.5851 C.3     1  UNL1        0.1686
     17 O           3.3249    0.0583   31.3525 O.3     1  UNL1       -0.3443
     18 C           4.3530   -0.9965   31.6358 C.3     1  UNL1        0.1691
     19 C           5.3489   -2.0934   31.4009 C.ar    1  UNL1        0.0074
     20 C           6.2536   -2.9201   32.3364 C.ar    1  UNL1       -0.0018
     21 C           7.2494   -4.0169   32.1015 C.ar    1  UNL1       -0.0002
     22 C           7.5134   -4.5044   30.7076 C.ar    1  UNL1        0.0026
     23 C           6.7815   -3.8950   29.5488 C.ar    1  UNL1        0.0286
     24 C           6.1923   -3.1000   30.6761 C.ar    1  UNL1        0.0008
     25 C           7.0455   -4.3825   28.1549 C.2     1  UNL1        0.1117
     26 C           8.0413   -5.4793   27.9200 C.2     1  UNL1        0.0713
     27 N           6.3136   -3.7731   26.9961 N.pl3   1  UNL1       -0.2000
     28 H           5.6600   -3.0532   27.1502 H       1  UNL1        0.2515
     29 O           1.7914    0.1671   21.0179 O.3     1  UNL1       -0.4742
     30 C           2.1903    1.5754   20.6903 C.3     1  UNL1        0.2226
     31 C           3.4124    1.8349   19.8600 C.3     1  UNL1        0.1200
     32 N           3.8343    0.8437   18.8162 N.3     1  UNL1       -0.2696
     33 C           2.9279    0.1447   17.8466 C.3     1  UNL1        0.0722
     34 C           3.7701   -0.7535   16.9898 C.3     1  UNL1        0.0188
     35 C           5.1968   -0.6096   17.4298 C.3     1  UNL1        0.0188
     36 C           5.2365    0.3776   18.5585 C.3     1  UNL1        0.0722
@<TRIPOS>BOND
     1     1     2    2
     2     2     3    1
     3     3     4    2
     4     4     5    1
     5     5     6   ar
     6     6     7   ar
     7     7     8   ar
     8     8    29    1
     9    29    30    1
    10    30    31    1
    11    31    32    1
    12    32    33    1
    13    33    34    1
    14    34    35    1
    15    35    36    1
    16     8     9   ar
    17     9    10   ar
    18     9    11    1
    19    11    12    1
    20    12    13    1
    21    13    14    1
    22    14    15    2
    23    15    16    1
    24    16    17    1
    25    17    18    1
    26    18    19    1
    27    19    20   ar
    28    20    21   ar
    29    21    22   ar
    30    22    23   ar
    31    23    24   ar
    32    23    25    1
    33    25    26    2
    34    25    27    1
    35    26     1    1
    36    27     3    1
    37    10     5   ar
    38    24    19   ar
    39    36    32    1
    40    27    28    1
