@<TRIPOS>MOLECULE
*****
 30 32 0 0 0
SMALL
GASTEIGER

@<TRIPOS>ATOM
      1 C          -4.9310  -19.8583   20.1120 C.3     1  UNL1        0.0722
      2 N          -9.0048  -18.7326   21.6570 N.pl3   1  UNL1       -0.3023
      3 C          -8.8594  -19.3224   20.2855 C.3     1  UNL1        0.1082
      4 C          -7.5015  -19.6977   19.7705 C.3     1  UNL1        0.0938
      5 N          -6.2889  -19.4831   20.6270 N.3     1  UNL1       -0.2698
      6 C          -6.4342  -18.8932   21.9985 C.3     1  UNL1        0.0938
      7 C          -7.7922  -18.5179   22.5134 C.3     1  UNL1        0.1082
      8 C         -11.2100  -17.3811   21.4110 C.ar    1  UNL1        0.1519
      9 C         -12.5679  -17.0058   21.9259 C.ar    1  UNL1        0.0382
     10 C         -13.0786  -17.6069   23.2019 C.ar    1  UNL1        0.0032
     11 C         -12.2314  -18.5831   23.9628 C.ar    1  UNL1        0.0015
     12 C         -10.8734  -18.9583   23.4478 C.ar    1  UNL1        0.0176
     13 C         -10.3628  -18.3573   22.1719 C.ar    1  UNL1        0.0824
     14 C         -11.5170  -15.7525   19.4101 C.3     1  UNL1        0.2525
     15 O         -10.6993  -16.7800   20.1351 O.3     1  UNL1       -0.4702
     16 C          -3.7239  -19.6876   20.9860 C.3     1  UNL1        0.0188
     17 C          -2.9566  -18.3990   20.9617 C.3     1  UNL1        0.0203
     18 C          -2.7213  -17.6421   22.2351 C.3     1  UNL1        0.0915
     19 N          -3.3057  -16.2719   22.4122 N.3     1  UNL1       -0.1794
     20 H          -3.7004  -16.0015   21.5114 H       1  UNL1        0.1488
     21 S          -4.3730  -16.0389   23.4401 S.O2    1  UNL1        0.0602
     22 O          -4.0768  -17.3766   24.0509 O.2     1  UNL1       -0.1530
     23 O          -4.6693  -14.7013   22.8293 O.2     1  UNL1       -0.1530
     24 C          -5.4404  -15.8060   24.4680 C.ar    1  UNL1        0.1219
     25 C          -6.8401  -15.4833   24.0358 C.ar    1  UNL1        0.0196
     26 C          -7.9074  -15.2503   25.0637 C.ar    1  UNL1       -0.0029
     27 C          -7.5750  -15.3400   26.5237 C.ar    1  UNL1       -0.0218
     28 C          -8.6423  -15.1070   27.5516 C.3     1  UNL1        0.0310
     29 C          -6.1753  -15.6626   26.9558 C.ar    1  UNL1       -0.0029
     30 C          -5.1080  -15.8956   25.9279 C.ar    1  UNL1        0.0196
@<TRIPOS>BOND
     1    14    15    1
     2    15     8    1
     3     8     9   ar
     4     9    10   ar
     5    10    11   ar
     6    11    12   ar
     7    12    13   ar
     8    13     2    1
     9     2     3    1
    10     3     4    1
    11     4     5    1
    12     5     1    1
    13     1    16    1
    14    16    17    1
    15    17    18    1
    16    18    19    1
    17    19    21    1
    18    21    22    2
    19    21    23    2
    20    21    24    1
    21    24    25   ar
    22    25    26   ar
    23    26    27   ar
    24    27    28    1
    25    27    29   ar
    26    29    30   ar
    27     5     6    1
    28     6     7    1
    29    13     8   ar
    30     7     2    1
    31    30    24   ar
    32    19    20    1
@<TRIPOS>MOLECULE
*****
 30 32 0 0 0
SMALL
GASTEIGER

@<TRIPOS>ATOM
      1 C         -11.4067  -18.4770   20.7041 C.3     1  UNL1        0.0722
      2 N          -8.8561  -16.7266   23.9722 N.pl3   1  UNL1       -0.3023
      3 C          -9.0507  -15.9749   22.6888 C.3     1  UNL1        0.1082
      4 C          -9.9009  -16.5584   21.5994 C.3     1  UNL1        0.0938
      5 N         -10.5565  -17.8935   21.7934 N.3     1  UNL1       -0.2698
      6 C         -10.3619  -18.6452   23.0768 C.3     1  UNL1        0.0938
      7 C          -9.5116  -18.0617   24.1662 C.3     1  UNL1        0.1082
      8 C          -6.5486  -15.8839   24.8182 C.ar    1  UNL1        0.1519
      9 C          -5.6985  -15.3005   25.9075 C.ar    1  UNL1        0.0382
     10 C          -6.3055  -14.9762   27.2403 C.ar    1  UNL1        0.0032
     11 C          -7.7628  -15.2354   27.4837 C.ar    1  UNL1        0.0015
     12 C          -8.6129  -15.8188   26.3944 C.ar    1  UNL1        0.0176
     13 C          -8.0058  -16.1431   25.0616 C.ar    1  UNL1        0.0824
     14 C          -4.6549  -16.9759   23.4141 C.3     1  UNL1        0.2525
     15 O          -5.9415  -16.2082   23.4854 O.3     1  UNL1       -0.4702
     16 C         -10.7817  -18.8886   19.4041 C.3     1  UNL1        0.0188
     17 C          -9.7543  -19.9811   19.3785 C.3     1  UNL1        0.0203
     18 C          -8.2967  -19.6381   19.2913 C.3     1  UNL1        0.0915
     19 N          -7.3646  -20.0380   20.3965 N.3     1  UNL1       -0.1794
     20 H          -7.3944  -21.0560   20.4529 H       1  UNL1        0.1488
     21 S          -5.9170  -19.6500   20.3340 S.O2    1  UNL1        0.0602
     22 O          -5.5349  -21.0953   20.2108 O.2     1  UNL1       -0.1530
     23 O          -6.2991  -18.2047   20.4572 O.2     1  UNL1       -0.1530
     24 C          -4.4694  -19.2620   20.2715 C.ar    1  UNL1        0.1219
     25 C          -3.5237  -19.7183   21.3427 C.ar    1  UNL1        0.0196
     26 C          -2.0761  -19.3303   21.2802 C.ar    1  UNL1       -0.0029
     27 C          -1.5742  -18.4859   20.1465 C.ar    1  UNL1       -0.0218
     28 C          -0.1266  -18.0979   20.0840 C.3     1  UNL1        0.0310
     29 C          -2.5199  -18.0296   19.0753 C.ar    1  UNL1       -0.0029
     30 C          -3.9675  -18.4177   19.1378 C.ar    1  UNL1        0.0196
@<TRIPOS>BOND
     1    14    15    1
     2    15     8    1
     3     8     9   ar
     4     9    10   ar
     5    10    11   ar
     6    11    12   ar
     7    12    13   ar
     8    13     2    1
     9     2     3    1
    10     3     4    1
    11     4     5    1
    12     5     1    1
    13     1    16    1
    14    16    17    1
    15    17    18    1
    16    18    19    1
    17    19    21    1
    18    21    22    2
    19    21    23    2
    20    21    24    1
    21    24    25   ar
    22    25    26   ar
    23    26    27   ar
    24    27    28    1
    25    27    29   ar
    26    29    30   ar
    27     5     6    1
    28     6     7    1
    29    13     8   ar
    30     7     2    1
    31    30    24   ar
    32    19    20    1
@<TRIPOS>MOLECULE
*****
 30 32 0 0 0
SMALL
GASTEIGER

@<TRIPOS>ATOM
      1 C          -4.8234  -19.7000   20.2272 C.3     1  UNL1        0.0722
      2 N          -9.0102  -18.7236   21.5566 N.pl3   1  UNL1       -0.3023
      3 C          -8.7758  -19.3424   20.2105 C.3     1  UNL1        0.1082
      4 C          -7.3803  -19.6678   19.7673 C.3     1  UNL1        0.0938
      5 N          -6.2190  -19.3745   20.6703 N.3     1  UNL1       -0.2698
      6 C          -6.4533  -18.7557   22.0165 C.3     1  UNL1        0.0938
      7 C          -7.8490  -18.4302   22.4596 C.3     1  UNL1        0.1082
      8 C         -10.8146  -18.6328   23.4237 C.ar    1  UNL1        0.1519
      9 C         -12.2101  -18.3073   23.8668 C.ar    1  UNL1        0.0382
     10 C         -13.1970  -17.7471   22.8859 C.ar    1  UNL1        0.0032
     11 C         -12.7883  -17.5124   21.4619 C.ar    1  UNL1        0.0015
     12 C         -11.3927  -17.8379   21.0188 C.ar    1  UNL1        0.0176
     13 C         -10.4058  -18.3981   21.9998 C.ar    1  UNL1        0.0824
     14 C          -9.7504  -20.6743   24.6279 C.3     1  UNL1        0.2525
     15 O          -9.8277  -19.1930   24.4047 O.3     1  UNL1       -0.4702
     16 C          -3.8232  -18.5996   20.0304 C.3     1  UNL1        0.0188
     17 C          -2.5632  -18.5771   20.8439 C.3     1  UNL1        0.0203
     18 C          -2.5437  -17.8907   22.1775 C.3     1  UNL1        0.0915
     19 N          -3.1028  -16.5057   22.3164 N.3     1  UNL1       -0.1794
     20 H          -3.4894  -16.2517   21.4074 H       1  UNL1        0.1488
     21 S          -4.1688  -16.2258   23.3339 S.O2    1  UNL1        0.0602
     22 O          -3.9286  -17.5697   23.9553 O.2     1  UNL1       -0.1530
     23 O          -4.4090  -14.8818   22.7125 O.2     1  UNL1       -0.1530
     24 C          -5.2348  -15.9458   24.3514 C.ar    1  UNL1        0.1219
     25 C          -4.9350  -16.0989   25.8132 C.ar    1  UNL1        0.0196
     26 C          -6.0010  -15.8189   26.8307 C.ar    1  UNL1       -0.0029
     27 C          -7.3667  -15.3860   26.3864 C.ar    1  UNL1       -0.0218
     28 C          -8.4327  -15.1061   27.4039 C.3     1  UNL1        0.0310
     29 C          -7.6665  -15.2330   24.9247 C.ar    1  UNL1       -0.0029
     30 C          -6.6005  -15.5129   23.9072 C.ar    1  UNL1        0.0196
@<TRIPOS>BOND
     1    14    15    1
     2    15     8    1
     3     8     9   ar
     4     9    10   ar
     5    10    11   ar
     6    11    12   ar
     7    12    13   ar
     8    13     2    1
     9     2     3    1
    10     3     4    1
    11     4     5    1
    12     5     1    1
    13     1    16    1
    14    16    17    1
    15    17    18    1
    16    18    19    1
    17    19    21    1
    18    21    22    2
    19    21    23    2
    20    21    24    1
    21    24    25   ar
    22    25    26   ar
    23    26    27   ar
    24    27    28    1
    25    27    29   ar
    26    29    30   ar
    27     5     6    1
    28     6     7    1
    29    13     8   ar
    30     7     2    1
    31    30    24   ar
    32    19    20    1
@<TRIPOS>MOLECULE
*****
 30 32 0 0 0
SMALL
GASTEIGER

@<TRIPOS>ATOM
      1 C          -8.4202  -15.4935   26.3485 C.3     1  UNL1        0.0722
      2 N          -8.9271  -17.7796   22.5057 N.pl3   1  UNL1       -0.3023
      3 C          -9.3220  -18.4074   23.8095 C.3     1  UNL1        0.1082
      4 C          -9.1530  -17.6454   25.0904 C.3     1  UNL1        0.0938
      5 N          -8.5892  -16.2555   25.0676 N.3     1  UNL1       -0.2698
      6 C          -8.1944  -15.6278   23.7637 C.3     1  UNL1        0.0938
      7 C          -8.3634  -16.3898   22.4828 C.3     1  UNL1        0.1082
      8 C         -10.4403  -18.6063   20.5622 C.ar    1  UNL1        0.1519
      9 C         -10.6092  -19.3684   19.2814 C.ar    1  UNL1        0.0382
     10 C          -9.4340  -20.0658   18.6630 C.ar    1  UNL1        0.0032
     11 C          -8.0898  -20.0012   19.3255 C.ar    1  UNL1        0.0015
     12 C          -7.9209  -19.2392   20.6064 C.ar    1  UNL1        0.0176
     13 C          -9.0961  -18.5417   21.2248 C.ar    1  UNL1        0.0824
     14 C         -11.9447  -16.4999   20.7851 C.3     1  UNL1        0.2525
     15 O         -11.6155  -17.9088   21.1806 O.3     1  UNL1       -0.4702
     16 C          -7.1613  -15.6438   27.1501 C.3     1  UNL1        0.0188
     17 C          -5.9708  -14.7838   26.8451 C.3     1  UNL1        0.0203
     18 C          -5.0921  -15.1077   25.6734 C.3     1  UNL1        0.0915
     19 N          -5.1905  -16.4497   25.0104 N.3     1  UNL1       -0.1794
     20 H          -6.1325  -16.5194   24.6252 H       1  UNL1        0.1488
     21 S          -4.2430  -16.8116   23.9053 S.O2    1  UNL1        0.0602
     22 O          -4.6548  -15.5828   23.1499 O.2     1  UNL1       -0.1530
     23 O          -3.8312  -18.0403   24.6607 O.2     1  UNL1       -0.1530
     24 C          -3.2955  -17.1734   22.8002 C.ar    1  UNL1        0.1219
     25 C          -2.4917  -16.1042   22.1212 C.ar    1  UNL1        0.0196
     26 C          -1.5442  -16.4661   21.0162 C.ar    1  UNL1       -0.0029
     27 C          -1.4004  -17.8971   20.5900 C.ar    1  UNL1       -0.0218
     28 C          -0.4528  -18.2590   19.4849 C.3     1  UNL1        0.0310
     29 C          -2.2041  -18.9662   21.2690 C.ar    1  UNL1       -0.0029
     30 C          -3.1516  -18.6044   22.3741 C.ar    1  UNL1        0.0196
@<TRIPOS>BOND
     1    14    15    1
     2    15     8    1
     3     8     9   ar
     4     9    10   ar
     5    10    11   ar
     6    11    12   ar
     7    12    13   ar
     8    13     2    1
     9     2     3    1
    10     3     4    1
    11     4     5    1
    12     5     1    1
    13     1    16    1
    14    16    17    1
    15    17    18    1
    16    18    19    1
    17    19    21    1
    18    21    22    2
    19    21    23    2
    20    21    24    1
    21    24    25   ar
    22    25    26   ar
    23    26    27   ar
    24    27    28    1
    25    27    29   ar
    26    29    30   ar
    27     5     6    1
    28     6     7    1
    29    13     8   ar
    30     7     2    1
    31    30    24   ar
    32    19    20    1
@<TRIPOS>MOLECULE
*****
 30 32 0 0 0
SMALL
GASTEIGER

@<TRIPOS>ATOM
      1 C          -8.4415  -15.5205   26.2988 C.3     1  UNL1        0.0722
      2 N          -9.0685  -17.7628   22.4479 N.pl3   1  UNL1       -0.3023
      3 C          -8.4533  -16.3949   22.4277 C.3     1  UNL1        0.1082
      4 C          -8.2443  -15.6474   23.7113 C.3     1  UNL1        0.0938
      5 N          -8.6505  -16.2679   25.0152 N.3     1  UNL1       -0.2698
      6 C          -9.2656  -17.6358   25.0354 C.3     1  UNL1        0.0938
      7 C          -9.4746  -18.3832   23.7517 C.3     1  UNL1        0.1082
      8 C          -8.1250  -19.2113   20.5084 C.ar    1  UNL1        0.1519
      9 C          -8.3340  -19.9587   19.2248 C.ar    1  UNL1        0.0382
     10 C          -9.6955  -20.0049   18.5970 C.ar    1  UNL1        0.0032
     11 C         -10.8480  -19.3037   19.2528 C.ar    1  UNL1        0.0015
     12 C         -10.6390  -18.5564   20.5364 C.ar    1  UNL1        0.0176
     13 C          -9.2775  -18.5102   21.1642 C.ar    1  UNL1        0.0824
     14 C          -6.3170  -20.2747   22.0415 C.3     1  UNL1        0.2525
     15 O          -6.7635  -19.1652   21.1363 O.3     1  UNL1       -0.4702
     16 C          -7.1888  -15.7344   27.0958 C.3     1  UNL1        0.0188
     17 C          -5.9530  -14.9467   26.7763 C.3     1  UNL1        0.0203
     18 C          -5.1906  -15.2261   25.5151 C.3     1  UNL1        0.0915
     19 N          -5.0657  -16.6332   25.0104 N.3     1  UNL1       -0.1794
     20 H          -5.9983  -16.9249   24.7178 H       1  UNL1        0.1488
     21 S          -4.1385  -16.9423   23.8725 S.O2    1  UNL1        0.0602
     22 O          -4.6118  -15.7141   23.1531 O.2     1  UNL1       -0.1530
     23 O          -3.6651  -18.1704   24.5919 O.2     1  UNL1       -0.1530
     24 C          -3.2112  -17.2514   22.7347 C.ar    1  UNL1        0.1219
     25 C          -2.4001  -16.1554   22.1093 C.ar    1  UNL1        0.0196
     26 C          -1.4728  -16.4645   20.9715 C.ar    1  UNL1       -0.0029
     27 C          -1.3567  -17.8695   20.4590 C.ar    1  UNL1       -0.0218
     28 C          -0.4295  -18.1786   19.3212 C.3     1  UNL1        0.0310
     29 C          -2.1679  -18.9654   21.0844 C.ar    1  UNL1       -0.0029
     30 C          -3.0951  -18.6563   22.2222 C.ar    1  UNL1        0.0196
@<TRIPOS>BOND
     1    14    15    1
     2    15     8    1
     3     8     9   ar
     4     9    10   ar
     5    10    11   ar
     6    11    12   ar
     7    12    13   ar
     8    13     2    1
     9     2     3    1
    10     3     4    1
    11     4     5    1
    12     5     1    1
    13     1    16    1
    14    16    17    1
    15    17    18    1
    16    18    19    1
    17    19    21    1
    18    21    22    2
    19    21    23    2
    20    21    24    1
    21    24    25   ar
    22    25    26   ar
    23    26    27   ar
    24    27    28    1
    25    27    29   ar
    26    29    30   ar
    27     5     6    1
    28     6     7    1
    29    13     8   ar
    30     7     2    1
    31    30    24   ar
    32    19    20    1
@<TRIPOS>MOLECULE
*****
 30 32 0 0 0
SMALL
GASTEIGER

@<TRIPOS>ATOM
      1 C          -5.6532  -14.8894   26.1122 C.3     1  UNL1        0.0722
      2 N          -5.1352  -17.9308   22.8363 N.pl3   1  UNL1       -0.3023
      3 C          -4.0903  -17.7927   23.9036 C.3     1  UNL1        0.1082
      4 C          -4.2629  -16.7790   24.9955 C.3     1  UNL1        0.0938
      5 N          -5.4805  -15.9032   25.0202 N.3     1  UNL1       -0.2698
      6 C          -6.5254  -16.0413   23.9529 C.3     1  UNL1        0.0938
      7 C          -6.3527  -17.0551   22.8609 C.3     1  UNL1        0.1082
      8 C          -3.8598  -18.7848   20.7400 C.ar    1  UNL1        0.1519
      9 C          -3.6872  -19.7986   19.6481 C.ar    1  UNL1        0.0382
     10 C          -4.6171  -20.9723   19.5605 C.ar    1  UNL1        0.0032
     11 C          -5.7197  -21.1321   20.5647 C.ar    1  UNL1        0.0015
     12 C          -5.8924  -20.1183   21.6567 C.ar    1  UNL1        0.0176
     13 C          -4.9624  -18.9447   21.7443 C.ar    1  UNL1        0.0824
     14 C          -1.4479  -17.8320   20.8973 C.3     1  UNL1        0.2525
     15 O          -2.9299  -17.6111   20.8276 O.3     1  UNL1       -0.4702
     16 C          -6.5083  -15.2078   27.3028 C.3     1  UNL1        0.0188
     17 C          -7.2406  -16.5150   27.3722 C.3     1  UNL1        0.0203
     18 C          -8.6869  -16.5861   26.9809 C.3     1  UNL1        0.0915
     19 N          -9.2892  -17.8971   26.5702 N.3     1  UNL1       -0.1794
     20 H         -10.1573  -17.9998   27.0957 H       1  UNL1        0.1488
     21 S          -9.6222  -18.1509   25.1298 S.O2    1  UNL1        0.0602
     22 O          -9.7296  -19.6199   25.4135 O.2     1  UNL1       -0.1530
     23 O          -9.5148  -16.6819   24.8461 O.2     1  UNL1       -0.1530
     24 C          -9.9553  -18.4048   23.6894 C.ar    1  UNL1        0.1219
     25 C         -10.3435  -19.7826   23.2410 C.ar    1  UNL1        0.0196
     26 C         -10.6765  -20.0365   21.8006 C.ar    1  UNL1       -0.0029
     27 C         -10.6214  -18.9125   20.8087 C.ar    1  UNL1       -0.0218
     28 C         -10.9544  -19.1664   19.3684 C.3     1  UNL1        0.0310
     29 C         -10.2333  -17.5348   21.2572 C.ar    1  UNL1       -0.0029
     30 C          -9.9002  -17.2810   22.6976 C.ar    1  UNL1        0.0196
@<TRIPOS>BOND
     1    14    15    1
     2    15     8    1
     3     8     9   ar
     4     9    10   ar
     5    10    11   ar
     6    11    12   ar
     7    12    13   ar
     8    13     2    1
     9     2     3    1
    10     3     4    1
    11     4     5    1
    12     5     1    1
    13     1    16    1
    14    16    17    1
    15    17    18    1
    16    18    19    1
    17    19    21    1
    18    21    22    2
    19    21    23    2
    20    21    24    1
    21    24    25   ar
    22    25    26   ar
    23    26    27   ar
    24    27    28    1
    25    27    29   ar
    26    29    30   ar
    27     5     6    1
    28     6     7    1
    29    13     8   ar
    30     7     2    1
    31    30    24   ar
    32    19    20    1
@<TRIPOS>MOLECULE
*****
 30 32 0 0 0
SMALL
GASTEIGER

@<TRIPOS>ATOM
      1 C          -6.2375  -15.1425   26.9647 C.3     1  UNL1        0.0722
      2 N          -3.9147  -16.8903   23.5295 N.pl3   1  UNL1       -0.3023
      3 C          -3.7282  -17.4343   24.9149 C.3     1  UNL1        0.1082
      4 C          -4.5025  -16.8517   26.0599 C.3     1  UNL1        0.0938
      5 N          -5.4632  -15.7251   25.8196 N.3     1  UNL1       -0.2698
      6 C          -5.6497  -15.1811   24.4342 C.3     1  UNL1        0.0938
      7 C          -4.8754  -15.7637   23.2892 C.3     1  UNL1        0.1082
      8 C          -3.4393  -18.8632   21.9073 C.ar    1  UNL1        0.1519
      9 C          -2.6650  -19.4458   20.7623 C.ar    1  UNL1        0.0382
     10 C          -1.5919  -18.6381   20.0945 C.ar    1  UNL1        0.0032
     11 C          -1.2930  -17.2478   20.5717 C.ar    1  UNL1        0.0015
     12 C          -2.0673  -16.6652   21.7167 C.ar    1  UNL1        0.0176
     13 C          -3.1404  -17.4729   22.3845 C.ar    1  UNL1        0.0824
     14 C          -5.9070  -19.6676   22.0228 C.3     1  UNL1        0.2525
     15 O          -4.5124  -19.6709   22.5751 O.3     1  UNL1       -0.4702
     16 C          -7.6767  -15.5152   27.1636 C.3     1  UNL1        0.0188
     17 C          -8.0515  -16.9424   27.4331 C.3     1  UNL1        0.0203
     18 C          -9.3469  -17.4892   26.9105 C.3     1  UNL1        0.0915
     19 N          -9.3551  -18.3603   25.6894 N.3     1  UNL1       -0.1794
     20 H          -9.8938  -19.1936   25.9257 H       1  UNL1        0.1488
     21 S          -9.9112  -17.8368   24.3984 S.O2    1  UNL1        0.0602
     22 O          -8.6571  -17.0435   24.1798 O.2     1  UNL1       -0.1530
     23 O         -11.1654  -18.6302   24.6170 O.2     1  UNL1       -0.1530
     24 C         -10.4674  -17.3133   23.1074 C.ar    1  UNL1        0.1219
     25 C         -11.8381  -17.7260   22.6592 C.ar    1  UNL1        0.0196
     26 C         -12.3943  -17.2025   21.3682 C.ar    1  UNL1       -0.0029
     27 C         -11.5797  -16.2664   20.5254 C.ar    1  UNL1       -0.0218
     28 C         -12.1359  -15.7429   19.2344 C.3     1  UNL1        0.0310
     29 C         -10.2091  -15.8537   20.9737 C.ar    1  UNL1       -0.0029
     30 C          -9.6529  -16.3772   22.2647 C.ar    1  UNL1        0.0196
@<TRIPOS>BOND
     1    14    15    1
     2    15     8    1
     3     8     9   ar
     4     9    10   ar
     5    10    11   ar
     6    11    12   ar
     7    12    13   ar
     8    13     2    1
     9     2     3    1
    10     3     4    1
    11     4     5    1
    12     5     1    1
    13     1    16    1
    14    16    17    1
    15    17    18    1
    16    18    19    1
    17    19    21    1
    18    21    22    2
    19    21    23    2
    20    21    24    1
    21    24    25   ar
    22    25    26   ar
    23    26    27   ar
    24    27    28    1
    25    27    29   ar
    26    29    30   ar
    27     5     6    1
    28     6     7    1
    29    13     8   ar
    30     7     2    1
    31    30    24   ar
    32    19    20    1
@<TRIPOS>MOLECULE
*****
 30 32 0 0 0
SMALL
GASTEIGER

@<TRIPOS>ATOM
      1 C         -11.2985  -16.3013   20.1127 C.3     1  UNL1        0.0722
      2 N          -8.7359  -15.7662   23.7728 N.pl3   1  UNL1       -0.3023
      3 C         -10.0741  -16.4344   23.8854 C.3     1  UNL1        0.1082
      4 C         -10.9283  -16.6128   22.6654 C.3     1  UNL1        0.0938
      5 N         -10.4443  -16.1230   21.3327 N.3     1  UNL1       -0.2698
      6 C          -9.1061  -15.4548   21.2202 C.3     1  UNL1        0.0938
      7 C          -8.2519  -15.2764   22.4403 C.3     1  UNL1        0.1082
      8 C          -6.3959  -15.4375   24.8528 C.ar    1  UNL1        0.1519
      9 C          -5.5417  -15.2591   26.0728 C.ar    1  UNL1        0.0382
     10 C          -6.1734  -15.2312   27.4331 C.ar    1  UNL1        0.0032
     11 C          -7.6592  -15.3816   27.5732 C.ar    1  UNL1        0.0015
     12 C          -8.5133  -15.5600   26.3532 C.ar    1  UNL1        0.0176
     13 C          -7.8817  -15.5879   24.9929 C.ar    1  UNL1        0.0824
     14 C          -4.3235  -15.8549   23.3425 C.3     1  UNL1        0.2525
     15 O          -5.7642  -15.4654   23.4926 O.3     1  UNL1       -0.4702
     16 C         -11.3731  -17.6391   19.4384 C.3     1  UNL1        0.0188
     17 C         -11.4561  -18.8903   20.2616 C.3     1  UNL1        0.0203
     18 C         -10.2009  -19.5917   20.6888 C.3     1  UNL1        0.0915
     19 N          -9.0700  -19.7628   19.7183 N.3     1  UNL1       -0.1794
     20 H          -9.2210  -19.0884   18.9682 H       1  UNL1        0.1488
     21 S          -7.6533  -19.5878   20.1791 S.O2    1  UNL1        0.0602
     22 O          -8.1227  -18.6808   21.2778 O.2     1  UNL1       -0.1530
     23 O          -7.1839  -20.4948   19.0805 O.2     1  UNL1       -0.1530
     24 C          -6.2366  -19.4128   20.6400 C.ar    1  UNL1        0.1219
     25 C          -5.1418  -19.2033   19.6361 C.ar    1  UNL1        0.0196
     26 C          -3.7251  -19.0283   20.0969 C.ar    1  UNL1       -0.0029
     27 C          -3.4032  -19.0628   21.5616 C.ar    1  UNL1       -0.0218
     28 C          -1.9865  -18.8878   22.0225 C.3     1  UNL1        0.0310
     29 C          -4.4980  -19.2723   22.5654 C.ar    1  UNL1       -0.0029
     30 C          -5.9146  -19.4473   22.1046 C.ar    1  UNL1        0.0196
@<TRIPOS>BOND
     1    14    15    1
     2    15     8    1
     3     8     9   ar
     4     9    10   ar
     5    10    11   ar
     6    11    12   ar
     7    12    13   ar
     8    13     2    1
     9     2     3    1
    10     3     4    1
    11     4     5    1
    12     5     1    1
    13     1    16    1
    14    16    17    1
    15    17    18    1
    16    18    19    1
    17    19    21    1
    18    21    22    2
    19    21    23    2
    20    21    24    1
    21    24    25   ar
    22    25    26   ar
    23    26    27   ar
    24    27    28    1
    25    27    29   ar
    26    29    30   ar
    27     5     6    1
    28     6     7    1
    29    13     8   ar
    30     7     2    1
    31    30    24   ar
    32    19    20    1
@<TRIPOS>MOLECULE
*****
 30 32 0 0 0
SMALL
GASTEIGER

@<TRIPOS>ATOM
      1 C           8.4221   -6.5814   25.7135 C.3     1  UNL1        0.0722
      2 N           7.5468   -4.3490   21.9056 N.pl3   1  UNL1       -0.3023
      3 C           8.5484   -5.4657   21.9071 C.3     1  UNL1        0.1082
      4 C           8.8401   -6.2098   23.1763 C.3     1  UNL1        0.0938
      5 N           8.1303   -5.8373   24.4442 N.3     1  UNL1       -0.2698
      6 C           7.1287   -4.7207   24.4427 C.3     1  UNL1        0.0938
      7 C           6.8370   -3.9766   23.1734 C.3     1  UNL1        0.1082
      8 C           5.9201   -3.7547   19.9689 C.ar    1  UNL1        0.1519
      9 C           5.6284   -3.0106   18.6996 C.ar    1  UNL1        0.0382
     10 C           6.6717   -2.1167   18.0976 C.ar    1  UNL1        0.0032
     11 C           8.0067   -1.9668   18.7649 C.ar    1  UNL1        0.0015
     12 C           8.2984   -2.7110   20.0342 C.ar    1  UNL1        0.0176
     13 C           7.2551   -3.6049   20.6362 C.ar    1  UNL1        0.0824
     14 C           3.7010   -5.0880   19.7496 C.3     1  UNL1        0.2525
     15 O           4.8768   -4.6487   20.5709 O.3     1  UNL1       -0.4702
     16 C           8.3937   -8.0811   25.7272 C.3     1  UNL1        0.0188
     17 C           8.8220   -8.8282   26.9553 C.3     1  UNL1        0.0203
     18 C           7.7981   -9.5103   27.8134 C.3     1  UNL1        0.0915
     19 N           7.7259  -11.0082   27.8476 N.3     1  UNL1       -0.1794
     20 H           8.2809  -11.3116   28.6478 H       1  UNL1        0.1488
     21 S           6.3958  -11.6926   27.9588 S.O2    1  UNL1        0.0602
     22 O           5.7204  -10.4682   27.4160 O.2     1  UNL1       -0.1530
     23 O           7.0712  -12.9170   28.5017 O.2     1  UNL1       -0.1530
     24 C           5.0657  -12.3770   28.0700 C.ar    1  UNL1        0.1219
     25 C           4.1314  -12.0233   29.1890 C.ar    1  UNL1        0.0196
     26 C           2.8013  -12.7077   29.3002 C.ar    1  UNL1       -0.0029
     27 C           2.4054  -13.7458   28.2924 C.ar    1  UNL1       -0.0218
     28 C           1.0753  -14.4303   28.4036 C.3     1  UNL1        0.0310
     29 C           3.3397  -14.0995   27.1735 C.ar    1  UNL1       -0.0029
     30 C           4.6698  -13.4151   27.0623 C.ar    1  UNL1        0.0196
@<TRIPOS>BOND
     1    14    15    1
     2    15     8    1
     3     8     9   ar
     4     9    10   ar
     5    10    11   ar
     6    11    12   ar
     7    12    13   ar
     8    13     2    1
     9     2     3    1
    10     3     4    1
    11     4     5    1
    12     5     1    1
    13     1    16    1
    14    16    17    1
    15    17    18    1
    16    18    19    1
    17    19    21    1
    18    21    22    2
    19    21    23    2
    20    21    24    1
    21    24    25   ar
    22    25    26   ar
    23    26    27   ar
    24    27    28    1
    25    27    29   ar
    26    29    30   ar
    27     5     6    1
    28     6     7    1
    29    13     8   ar
    30     7     2    1
    31    30    24   ar
    32    19    20    1
