@<TRIPOS>MOLECULE
*****
 28 32 0 0 0
SMALL
GASTEIGER

@<TRIPOS>ATOM
      1 C           7.9157   -5.1990   25.3644 C.2     1  UNL1        0.3762
      2 N           8.6121   -5.4556   24.0609 N.2     1  UNL1       -0.0256
      3 C           7.8605   -4.7317   22.9834 C.2     1  UNL1        0.2907
      4 C           8.0832   -4.6226   21.5040 C.2     1  UNL1        0.3160
      5 O           9.2441   -5.3267   20.8664 O.2     1  UNL1       -0.2638
      6 N           7.1450   -3.8095   20.6623 N.am    1  UNL1       -0.1720
      7 C           5.9840   -3.1054   21.2999 C.ar    1  UNL1        0.0775
      8 C           5.0458   -2.2923   20.4581 C.ar    1  UNL1        0.0167
      9 C           3.8849   -1.5883   21.0958 C.ar    1  UNL1        0.0013
     10 C           3.6622   -1.6974   22.5751 C.ar    1  UNL1        0.0002
     11 C           4.6004   -2.5105   23.4169 C.ar    1  UNL1        0.0051
     12 C           5.7613   -3.2145   22.7793 C.ar    1  UNL1        0.0623
     13 C           6.6996   -4.0277   23.6210 C.2     1  UNL1        0.2419
     14 N           6.7337   -4.3164   25.0925 N.2     1  UNL1       -0.0303
     15 C           9.3754   -3.4283   27.2968 C.3     1  UNL1        0.0313
     16 C           9.0587   -4.8461   27.6707 C.ar    1  UNL1       -0.0136
     17 C           9.4718   -5.3784   29.0108 C.ar    1  UNL1       -0.0040
     18 C           9.1551   -6.7961   29.3847 C.ar    1  UNL1        0.0005
     19 C           8.4252   -7.6814   28.4185 C.ar    1  UNL1        0.0116
     20 C           8.0121   -7.1491   27.0784 C.ar    1  UNL1        0.0648
     21 CL          7.2822   -8.0344   26.1122 Cl      1  UNL1       -0.0820
     22 C           8.3288   -5.7314   26.7045 C.ar    1  UNL1        0.0950
     23 C           2.9466   -0.7752   20.2540 C.ar    1  UNL1        0.0000
     24 C           3.4283   -0.1625   18.9724 C.ar    1  UNL1        0.0000
     25 C           2.4901    0.6506   18.1306 C.ar    1  UNL1        0.0000
     26 C           1.0701    0.8511   18.5705 C.ar    1  UNL1        0.0000
     27 C           0.5883    0.2385   19.8522 C.ar    1  UNL1        0.0000
     28 C           1.5266   -0.5747   20.6939 C.ar    1  UNL1        0.0000
@<TRIPOS>BOND
     1    15    16    1
     2    16    17   ar
     3    17    18   ar
     4    18    19   ar
     5    19    20   ar
     6    20    21    1
     7    20    22   ar
     8    22     1    1
     9     1     2    1
    10     2     3    2
    11     3     4    1
    12     4     5    2
    13     4     6    1
    14     6     7    2
    15     7     8   ar
    16     8     9   ar
    17     9    23    1
    18    23    24   ar
    19    24    25   ar
    20    25    26   ar
    21    26    27   ar
    22    27    28   ar
    23     9    10   ar
    24    10    11   ar
    25    11    12   ar
    26    12    13    2
    27    13    14    1
    28    22    16   ar
    29    14     1    2
    30    13     3    1
    31    12     7   ar
    32    28    23   ar
@<TRIPOS>MOLECULE
*****
 28 32 0 0 0
SMALL
GASTEIGER

@<TRIPOS>ATOM
      1 C          -2.8676    3.8072   20.7459 C.2     1  UNL1        0.3762
      2 N          -2.1084    4.7411   19.8507 N.2     1  UNL1       -0.0256
      3 C          -0.8679    4.0350   19.3895 C.2     1  UNL1        0.2907
      4 C           0.2558    4.4628   18.4927 C.2     1  UNL1        0.3160
      5 O           0.2483    5.8331   17.8825 O.2     1  UNL1       -0.2638
      6 N           1.3870    3.5204   18.2062 N.am    1  UNL1       -0.1720
      7 C           1.3945    2.1501   18.8165 C.ar    1  UNL1        0.0775
      8 C           2.5257    1.2077   18.5299 C.ar    1  UNL1        0.0167
      9 C           2.5332   -0.1625   19.1402 C.ar    1  UNL1        0.0013
     10 C           1.4095   -0.5903   20.0370 C.ar    1  UNL1        0.0002
     11 C           0.2782    0.3521   20.3235 C.ar    1  UNL1        0.0051
     12 C           0.2708    1.7223   19.7132 C.ar    1  UNL1        0.0623
     13 C          -0.8605    2.6648   19.9998 C.2     1  UNL1        0.2419
     14 N          -2.0963    2.5240   20.8381 N.2     1  UNL1       -0.0303
     15 C          -5.4409    3.6255   19.2145 C.3     1  UNL1        0.0313
     16 C          -5.4562    4.0135   20.6634 C.ar    1  UNL1       -0.0136
     17 C          -6.7581    4.3106   21.3466 C.ar    1  UNL1       -0.0040
     18 C          -6.7734    4.6986   22.7954 C.ar    1  UNL1        0.0005
     19 C          -5.4867    4.7894   23.5611 C.ar    1  UNL1        0.0116
     20 C          -4.1848    4.4923   22.8780 C.ar    1  UNL1        0.0648
     21 CL         -2.8982    4.5831   23.6437 Cl      1  UNL1       -0.0820
     22 C          -4.1696    4.1043   21.4292 C.ar    1  UNL1        0.0950
     23 C           3.6644   -1.1051   18.8537 C.ar    1  UNL1        0.0000
     24 C           4.9097   -0.6012   18.1862 C.ar    1  UNL1        0.0000
     25 C           6.0409   -1.5436   17.8997 C.ar    1  UNL1        0.0000
     26 C           5.9269   -2.9900   18.2806 C.ar    1  UNL1        0.0000
     27 C           4.6817   -3.4939   18.9481 C.ar    1  UNL1        0.0000
     28 C           3.5504   -2.5514   19.2346 C.ar    1  UNL1        0.0000
@<TRIPOS>BOND
     1    15    16    1
     2    16    17   ar
     3    17    18   ar
     4    18    19   ar
     5    19    20   ar
     6    20    21    1
     7    20    22   ar
     8    22     1    1
     9     1     2    1
    10     2     3    2
    11     3     4    1
    12     4     5    2
    13     4     6    1
    14     6     7    2
    15     7     8   ar
    16     8     9   ar
    17     9    23    1
    18    23    24   ar
    19    24    25   ar
    20    25    26   ar
    21    26    27   ar
    22    27    28   ar
    23     9    10   ar
    24    10    11   ar
    25    11    12   ar
    26    12    13    2
    27    13    14    1
    28    22    16   ar
    29    14     1    2
    30    13     3    1
    31    12     7   ar
    32    28    23   ar
@<TRIPOS>MOLECULE
*****
 28 32 0 0 0
SMALL
GASTEIGER

@<TRIPOS>ATOM
      1 C          -2.8283    3.8245   20.9219 C.2     1  UNL1        0.3762
      2 N          -2.0813    4.7690   20.0275 N.2     1  UNL1       -0.0256
      3 C          -0.8518    4.0656   19.5341 C.2     1  UNL1        0.2907
      4 C           0.2577    4.5027   18.6243 C.2     1  UNL1        0.3160
      5 O           0.2447    5.8820   18.0347 O.2     1  UNL1       -0.2638
      6 N           1.3802    3.5607   18.3039 N.am    1  UNL1       -0.1720
      7 C           1.3932    2.1814   18.8935 C.ar    1  UNL1        0.0775
      8 C           2.5156    1.2394   18.5731 C.ar    1  UNL1        0.0167
      9 C           2.5285   -0.1398   19.1626 C.ar    1  UNL1        0.0013
     10 C           1.4190   -0.5770   20.0725 C.ar    1  UNL1        0.0002
     11 C           0.2966    0.3651   20.3929 C.ar    1  UNL1        0.0051
     12 C           0.2837    1.7442   19.8033 C.ar    1  UNL1        0.0623
     13 C          -0.8388    2.6864   20.1237 C.2     1  UNL1        0.2419
     14 N          -2.0603    2.5373   20.9813 N.2     1  UNL1       -0.0303
     15 C          -2.8062    4.5448   23.8341 C.3     1  UNL1        0.0313
     16 C          -4.1059    4.4761   23.0883 C.ar    1  UNL1       -0.0136
     17 C          -5.3945    4.7676   23.7986 C.ar    1  UNL1       -0.0040
     18 C          -6.6941    4.6989   23.0528 C.ar    1  UNL1        0.0005
     19 C          -6.7051    4.3387   21.5967 C.ar    1  UNL1        0.0116
     20 C          -5.4166    4.0473   20.8864 C.ar    1  UNL1        0.0648
     21 CL         -5.4276    3.6871   19.4303 Cl      1  UNL1       -0.0820
     22 C          -4.1169    4.1159   21.6322 C.ar    1  UNL1        0.0950
     23 C           3.6510   -1.0819   18.8423 C.ar    1  UNL1        0.0000
     24 C           3.5267   -2.5384   19.1785 C.ar    1  UNL1        0.0000
     25 C           4.6491   -3.4805   18.8582 C.ar    1  UNL1        0.0000
     26 C           5.8959   -2.9661   18.2017 C.ar    1  UNL1        0.0000
     27 C           6.0202   -1.5095   17.8655 C.ar    1  UNL1        0.0000
     28 C           4.8977   -0.5674   18.1858 C.ar    1  UNL1        0.0000
@<TRIPOS>BOND
     1    15    16    1
     2    16    17   ar
     3    17    18   ar
     4    18    19   ar
     5    19    20   ar
     6    20    21    1
     7    20    22   ar
     8    22     1    1
     9     1     2    1
    10     2     3    2
    11     3     4    1
    12     4     5    2
    13     4     6    1
    14     6     7    2
    15     7     8   ar
    16     8     9   ar
    17     9    23    1
    18    23    24   ar
    19    24    25   ar
    20    25    26   ar
    21    26    27   ar
    22    27    28   ar
    23     9    10   ar
    24    10    11   ar
    25    11    12   ar
    26    12    13    2
    27    13    14    1
    28    22    16   ar
    29    14     1    2
    30    13     3    1
    31    12     7   ar
    32    28    23   ar
@<TRIPOS>MOLECULE
*****
 28 32 0 0 0
SMALL
GASTEIGER

@<TRIPOS>ATOM
      1 C          -2.5757    3.6967   21.4670 C.2     1  UNL1        0.3762
      2 N          -1.5725    4.2971   22.4067 N.2     1  UNL1       -0.0256
      3 C          -0.3469    3.4325   22.3906 C.2     1  UNL1        0.2907
      4 C           0.9611    3.5318   23.1180 C.2     1  UNL1        0.3160
      5 O           1.2068    4.6665   24.0679 O.2     1  UNL1       -0.2638
      6 N           2.0235    2.4964   22.8957 N.am    1  UNL1       -0.1720
      7 C           1.7778    1.3617   21.9459 C.ar    1  UNL1        0.0775
      8 C           2.8401    0.3264   21.7236 C.ar    1  UNL1        0.0167
      9 C           2.5944   -0.8083   20.7738 C.ar    1  UNL1        0.0013
     10 C           1.2864   -0.9077   20.0464 C.ar    1  UNL1        0.0002
     11 C           0.2240    0.1277   20.2687 C.ar    1  UNL1        0.0051
     12 C           0.4697    1.2624   21.2185 C.ar    1  UNL1        0.0623
     13 C          -0.5926    2.2978   21.4408 C.2     1  UNL1        0.2419
     14 N          -1.9701    2.4611   20.8700 N.2     1  UNL1       -0.0303
     15 C          -2.9733    5.6373   19.2140 C.3     1  UNL1        0.0313
     16 C          -4.1431    5.2074   20.0488 C.ar    1  UNL1       -0.0136
     17 C          -5.5116    5.7478   19.7571 C.ar    1  UNL1       -0.0040
     18 C          -6.6813    5.3180   20.5920 C.ar    1  UNL1        0.0005
     19 C          -6.4825    4.3477   21.7185 C.ar    1  UNL1        0.0116
     20 C          -5.1140    3.8073   22.0102 C.ar    1  UNL1        0.0648
     21 CL         -4.9152    2.8370   23.1367 Cl      1  UNL1       -0.0820
     22 C          -3.9443    4.2371   21.1753 C.ar    1  UNL1        0.0950
     23 C           3.6568   -1.8437   20.5515 C.ar    1  UNL1        0.0000
     24 C           4.0537   -2.2232   19.1556 C.ar    1  UNL1        0.0000
     25 C           5.1160   -3.2585   18.9332 C.ar    1  UNL1        0.0000
     26 C           5.7814   -3.9145   20.1067 C.ar    1  UNL1        0.0000
     27 C           5.3844   -3.5351   21.5025 C.ar    1  UNL1        0.0000
     28 C           4.3221   -2.4997   21.7249 C.ar    1  UNL1        0.0000
@<TRIPOS>BOND
     1    15    16    1
     2    16    17   ar
     3    17    18   ar
     4    18    19   ar
     5    19    20   ar
     6    20    21    1
     7    20    22   ar
     8    22     1    1
     9     1     2    1
    10     2     3    2
    11     3     4    1
    12     4     5    2
    13     4     6    1
    14     6     7    2
    15     7     8   ar
    16     8     9   ar
    17     9    23    1
    18    23    24   ar
    19    24    25   ar
    20    25    26   ar
    21    26    27   ar
    22    27    28   ar
    23     9    10   ar
    24    10    11   ar
    25    11    12   ar
    26    12    13    2
    27    13    14    1
    28    22    16   ar
    29    14     1    2
    30    13     3    1
    31    12     7   ar
    32    28    23   ar
@<TRIPOS>MOLECULE
*****
 28 32 0 0 0
SMALL
GASTEIGER

@<TRIPOS>ATOM
      1 C          -2.5660    3.7804   21.3970 C.2     1  UNL1        0.3762
      2 N          -1.5949    4.3895   22.3646 N.2     1  UNL1       -0.0256
      3 C          -0.3751    3.5176   22.4078 C.2     1  UNL1        0.2907
      4 C           0.9053    3.6207   23.1823 C.2     1  UNL1        0.3160
      5 O           1.1224    4.7687   24.1232 O.2     1  UNL1       -0.2638
      6 N           1.9686    2.5759   23.0161 N.am    1  UNL1       -0.1720
      7 C           1.7515    1.4279   22.0753 C.ar    1  UNL1        0.0775
      8 C           2.8148    0.3830   21.9090 C.ar    1  UNL1        0.0167
      9 C           2.5976   -0.7649   20.9682 C.ar    1  UNL1        0.0013
     10 C           1.3172   -0.8679   20.1937 C.ar    1  UNL1        0.0002
     11 C           0.2539    0.1769   20.3599 C.ar    1  UNL1        0.0051
     12 C           0.4711    1.3248   21.3007 C.ar    1  UNL1        0.0623
     13 C          -0.5923    2.3697   21.4670 C.2     1  UNL1        0.2419
     14 N          -1.9462    2.5321   20.8423 N.2     1  UNL1       -0.0303
     15 C          -4.9564    3.0373   23.0504 C.3     1  UNL1        0.0313
     16 C          -5.1144    3.9526   21.8725 C.ar    1  UNL1       -0.0136
     17 C          -6.4675    4.4963   21.5214 C.ar    1  UNL1       -0.0040
     18 C          -6.6254    5.4115   20.3435 C.ar    1  UNL1        0.0005
     19 C          -5.4302    5.7831   19.5169 C.ar    1  UNL1        0.0116
     20 C          -4.0771    5.2394   19.8680 C.ar    1  UNL1        0.0648
     21 CL         -2.8819    5.6109   19.0413 Cl      1  UNL1       -0.0820
     22 C          -3.9192    4.3242   21.0458 C.ar    1  UNL1        0.0950
     23 C           3.6609   -1.8098   20.8019 C.ar    1  UNL1        0.0000
     24 C           4.2117   -2.1090   19.4392 C.ar    1  UNL1        0.0000
     25 C           5.2750   -3.1539   19.2728 C.ar    1  UNL1        0.0000
     26 C           5.7875   -3.8995   20.4693 C.ar    1  UNL1        0.0000
     27 C           5.2367   -3.6003   21.8320 C.ar    1  UNL1        0.0000
     28 C           4.1734   -2.5554   21.9983 C.ar    1  UNL1        0.0000
@<TRIPOS>BOND
     1    15    16    1
     2    16    17   ar
     3    17    18   ar
     4    18    19   ar
     5    19    20   ar
     6    20    21    1
     7    20    22   ar
     8    22     1    1
     9     1     2    1
    10     2     3    2
    11     3     4    1
    12     4     5    2
    13     4     6    1
    14     6     7    2
    15     7     8   ar
    16     8     9   ar
    17     9    23    1
    18    23    24   ar
    19    24    25   ar
    20    25    26   ar
    21    26    27   ar
    22    27    28   ar
    23     9    10   ar
    24    10    11   ar
    25    11    12   ar
    26    12    13    2
    27    13    14    1
    28    22    16   ar
    29    14     1    2
    30    13     3    1
    31    12     7   ar
    32    28    23   ar
@<TRIPOS>MOLECULE
*****
 28 32 0 0 0
SMALL
GASTEIGER

@<TRIPOS>ATOM
      1 C           6.6741   -2.5100   31.5886 C.2     1  UNL1        0.3762
      2 N           7.2812   -3.8775   31.4820 N.2     1  UNL1       -0.0256
      3 C           7.2660   -4.2800   30.0371 C.2     1  UNL1        0.2907
      4 C           7.7339   -5.5207   29.3358 C.2     1  UNL1        0.3160
      5 O           8.3504   -6.6395   30.1222 O.2     1  UNL1       -0.2638
      6 N           7.5853   -5.6426   27.8482 N.am    1  UNL1       -0.1720
      7 C           6.9688   -4.5239   27.0618 C.ar    1  UNL1        0.0775
      8 C           6.8203   -4.6458   25.5742 C.ar    1  UNL1        0.0167
      9 C           6.2038   -3.5271   24.7879 C.ar    1  UNL1        0.0013
     10 C           5.7359   -2.2864   25.4891 C.ar    1  UNL1        0.0002
     11 C           5.8845   -2.1644   26.9767 C.ar    1  UNL1        0.0051
     12 C           6.5010   -3.2832   27.7631 C.ar    1  UNL1        0.0623
     13 C           6.6496   -3.1613   29.2508 C.2     1  UNL1        0.2419
     14 N           6.2837   -2.0673   30.2096 N.2     1  UNL1       -0.0303
     15 C           8.9583   -0.9246   32.7152 C.3     1  UNL1        0.0313
     16 C           7.6318   -0.9306   33.4157 C.ar    1  UNL1       -0.0136
     17 C           7.4475   -0.1438   34.6794 C.ar    1  UNL1       -0.0040
     18 C           6.1212   -0.1498   35.3798 C.ar    1  UNL1        0.0005
     19 C           4.9791   -0.9424   34.8165 C.ar    1  UNL1        0.0116
     20 C           5.1634   -1.7292   33.5528 C.ar    1  UNL1        0.0648
     21 CL          4.0213   -2.5219   32.9895 Cl      1  UNL1       -0.0820
     22 C           6.4898   -1.7232   32.8524 C.ar    1  UNL1        0.0950
     23 C           6.0552   -3.6490   23.3002 C.ar    1  UNL1        0.0000
     24 C           4.6971   -3.5484   22.6714 C.ar    1  UNL1        0.0000
     25 C           4.5484   -3.6703   21.1838 C.ar    1  UNL1        0.0000
     26 C           5.7580   -3.8928   20.3249 C.ar    1  UNL1        0.0000
     27 C           7.1161   -3.9935   20.9537 C.ar    1  UNL1        0.0000
     28 C           7.2647   -3.8716   22.4414 C.ar    1  UNL1        0.0000
@<TRIPOS>BOND
     1    15    16    1
     2    16    17   ar
     3    17    18   ar
     4    18    19   ar
     5    19    20   ar
     6    20    21    1
     7    20    22   ar
     8    22     1    1
     9     1     2    1
    10     2     3    2
    11     3     4    1
    12     4     5    2
    13     4     6    1
    14     6     7    2
    15     7     8   ar
    16     8     9   ar
    17     9    23    1
    18    23    24   ar
    19    24    25   ar
    20    25    26   ar
    21    26    27   ar
    22    27    28   ar
    23     9    10   ar
    24    10    11   ar
    25    11    12   ar
    26    12    13    2
    27    13    14    1
    28    22    16   ar
    29    14     1    2
    30    13     3    1
    31    12     7   ar
    32    28    23   ar
@<TRIPOS>MOLECULE
*****
 28 32 0 0 0
SMALL
GASTEIGER

@<TRIPOS>ATOM
      1 C           3.6318    0.1097   19.6644 C.2     1  UNL1        0.3762
      2 N           4.5814   -0.4418   18.6426 N.2     1  UNL1       -0.0256
      3 C           5.4234   -1.4887   19.3097 C.2     1  UNL1        0.2907
      4 C           6.5256   -2.3673   18.7967 C.2     1  UNL1        0.3160
      5 O           6.9549   -2.2717   17.3625 O.2     1  UNL1       -0.2638
      6 N           7.1985   -3.3414   19.7176 N.am    1  UNL1       -0.1720
      7 C           6.7692   -3.4370   21.1518 C.ar    1  UNL1        0.0775
      8 C           7.4420   -4.4112   22.0727 C.ar    1  UNL1        0.0167
      9 C           7.0127   -4.5067   23.5068 C.ar    1  UNL1        0.0013
     10 C           5.9105   -3.6281   24.0198 C.ar    1  UNL1        0.0002
     11 C           5.2377   -2.6539   23.0989 C.ar    1  UNL1        0.0051
     12 C           5.6670   -2.5584   21.6648 C.ar    1  UNL1        0.0623
     13 C           4.9941   -1.5842   20.7438 C.2     1  UNL1        0.2419
     14 N           3.8868   -0.5964   20.9630 N.2     1  UNL1       -0.0303
     15 C           4.4878    2.8248   18.7182 C.3     1  UNL1        0.0313
     16 C           3.0349    2.5370   18.9558 C.ar    1  UNL1       -0.0136
     17 C           2.0101    3.6067   18.7203 C.ar    1  UNL1       -0.0040
     18 C           0.5574    3.3188   18.9579 C.ar    1  UNL1        0.0005
     19 C           0.1293    1.9613   19.4310 C.ar    1  UNL1        0.0116
     20 C           1.1541    0.8916   19.6665 C.ar    1  UNL1        0.0648
     21 CL          0.7261   -0.4660   20.1395 Cl      1  UNL1       -0.0820
     22 C           2.6069    1.1794   19.4289 C.ar    1  UNL1        0.0950
     23 C           7.6856   -5.4809   24.4278 C.ar    1  UNL1        0.0000
     24 C           8.2560   -6.7568   23.8830 C.ar    1  UNL1        0.0000
     25 C           8.9288   -7.7309   24.8040 C.ar    1  UNL1        0.0000
     26 C           9.0313   -7.4293   26.2698 C.ar    1  UNL1        0.0000
     27 C           8.4609   -6.1534   26.8146 C.ar    1  UNL1        0.0000
     28 C           7.7880   -5.1792   25.8936 C.ar    1  UNL1        0.0000
@<TRIPOS>BOND
     1    15    16    1
     2    16    17   ar
     3    17    18   ar
     4    18    19   ar
     5    19    20   ar
     6    20    21    1
     7    20    22   ar
     8    22     1    1
     9     1     2    1
    10     2     3    2
    11     3     4    1
    12     4     5    2
    13     4     6    1
    14     6     7    2
    15     7     8   ar
    16     8     9   ar
    17     9    23    1
    18    23    24   ar
    19    24    25   ar
    20    25    26   ar
    21    26    27   ar
    22    27    28   ar
    23     9    10   ar
    24    10    11   ar
    25    11    12   ar
    26    12    13    2
    27    13    14    1
    28    22    16   ar
    29    14     1    2
    30    13     3    1
    31    12     7   ar
    32    28    23   ar
@<TRIPOS>MOLECULE
*****
 28 32 0 0 0
SMALL
GASTEIGER

@<TRIPOS>ATOM
      1 C           5.8849   -2.3259   20.9090 C.2     1  UNL1        0.3762
      2 N           6.7238   -3.5689   20.8748 N.2     1  UNL1       -0.0256
      3 C           6.9712   -4.0003   22.2899 C.2     1  UNL1        0.2907
      4 C           7.7325   -5.1561   22.8683 C.2     1  UNL1        0.3160
      5 O           8.4185   -6.1325   21.9594 O.2     1  UNL1       -0.2638
      6 N           7.8078   -5.3355   24.3556 N.am    1  UNL1       -0.1720
      7 C           7.1218   -4.3592   25.2646 C.ar    1  UNL1        0.0775
      8 C           7.1971   -4.5386   26.7519 C.ar    1  UNL1        0.0167
      9 C           6.5111   -3.5623   27.6607 C.ar    1  UNL1        0.0013
     10 C           5.7497   -2.4065   27.0823 C.ar    1  UNL1        0.0002
     11 C           5.6744   -2.2271   25.5950 C.ar    1  UNL1        0.0051
     12 C           6.3605   -3.2034   24.6861 C.ar    1  UNL1        0.0623
     13 C           6.2852   -3.0240   23.1988 C.2     1  UNL1        0.2419
     14 N           5.6138   -1.9891   22.3454 N.2     1  UNL1       -0.0303
     15 C           3.5378   -3.3228   19.3288 C.3     1  UNL1        0.0313
     16 C           4.2283   -2.0534   18.9262 C.ar    1  UNL1       -0.0136
     17 C           3.7452   -1.2826   17.7336 C.ar    1  UNL1       -0.0040
     18 C           4.4357   -0.0133   17.3311 C.ar    1  UNL1        0.0005
     19 C           5.6093    0.4852   18.1213 C.ar    1  UNL1        0.0116
     20 C           6.0923   -0.2857   19.3139 C.ar    1  UNL1        0.0648
     21 CL          7.2659    0.2128   20.1040 Cl      1  UNL1       -0.0820
     22 C           5.4018   -1.5550   19.7164 C.ar    1  UNL1        0.0950
     23 C           6.5863   -3.7417   29.1481 C.ar    1  UNL1        0.0000
     24 C           6.3395   -2.5748   30.0577 C.ar    1  UNL1        0.0000
     25 C           6.4148   -2.7541   31.5450 C.ar    1  UNL1        0.0000
     26 C           6.7369   -4.1004   32.1228 C.ar    1  UNL1        0.0000
     27 C           6.9837   -5.2673   31.2132 C.ar    1  UNL1        0.0000
     28 C           6.9084   -5.0879   29.7258 C.ar    1  UNL1        0.0000
@<TRIPOS>BOND
     1    15    16    1
     2    16    17   ar
     3    17    18   ar
     4    18    19   ar
     5    19    20   ar
     6    20    21    1
     7    20    22   ar
     8    22     1    1
     9     1     2    1
    10     2     3    2
    11     3     4    1
    12     4     5    2
    13     4     6    1
    14     6     7    2
    15     7     8   ar
    16     8     9   ar
    17     9    23    1
    18    23    24   ar
    19    24    25   ar
    20    25    26   ar
    21    26    27   ar
    22    27    28   ar
    23     9    10   ar
    24    10    11   ar
    25    11    12   ar
    26    12    13    2
    27    13    14    1
    28    22    16   ar
    29    14     1    2
    30    13     3    1
    31    12     7   ar
    32    28    23   ar
@<TRIPOS>MOLECULE
*****
 28 32 0 0 0
SMALL
GASTEIGER

@<TRIPOS>ATOM
      1 C           0.9963    2.2124   27.2307 C.2     1  UNL1        0.3762
      2 N           0.1652    2.8423   26.1525 N.2     1  UNL1       -0.0256
      3 C           0.5385    2.2046   24.8472 C.2     1  UNL1        0.2907
      4 C           0.0487    2.4240   23.4465 C.2     1  UNL1        0.3160
      5 O          -1.0131    3.4482   23.1751 O.2     1  UNL1       -0.2638
      6 N           0.6207    1.6194   22.3172 N.am    1  UNL1       -0.1720
      7 C           1.6826    0.5952   22.5886 C.ar    1  UNL1        0.0775
      8 C           2.2546   -0.2094   21.4593 C.ar    1  UNL1        0.0167
      9 C           3.3164   -1.2335   21.7308 C.ar    1  UNL1        0.0013
     10 C           3.8062   -1.4530   23.1315 C.ar    1  UNL1        0.0002
     11 C           3.2342   -0.6484   24.2607 C.ar    1  UNL1        0.0051
     12 C           2.1724    0.3757   23.9893 C.ar    1  UNL1        0.0623
     13 C           1.6003    1.1804   25.1186 C.2     1  UNL1        0.2419
     14 N           1.8833    1.1852   26.5916 N.2     1  UNL1       -0.0303
     15 C          -0.4220    0.3905   29.1462 C.3     1  UNL1        0.0313
     16 C           0.2397    1.6393   29.6492 C.ar    1  UNL1       -0.0136
     17 C           0.1922    1.9771   31.1098 C.ar    1  UNL1       -0.0040
     18 C           0.8538    3.2258   31.6127 C.ar    1  UNL1        0.0005
     19 C           1.5629    4.1367   30.6550 C.ar    1  UNL1        0.0116
     20 C           1.6104    3.7989   29.1943 C.ar    1  UNL1        0.0648
     21 CL          2.3196    4.7098   28.2365 Cl      1  UNL1       -0.0820
     22 C           0.9488    2.5502   28.6914 C.ar    1  UNL1        0.0950
     23 C           3.8885   -2.0382   20.6015 C.ar    1  UNL1        0.0000
     24 C           4.2399   -3.4813   20.8115 C.ar    1  UNL1        0.0000
     25 C           4.8119   -4.2860   19.6823 C.ar    1  UNL1        0.0000
     26 C           5.0326   -3.6476   18.3429 C.ar    1  UNL1        0.0000
     27 C           4.6813   -2.2046   18.1329 C.ar    1  UNL1        0.0000
     28 C           4.1092   -1.3999   19.2622 C.ar    1  UNL1        0.0000
@<TRIPOS>BOND
     1    15    16    1
     2    16    17   ar
     3    17    18   ar
     4    18    19   ar
     5    19    20   ar
     6    20    21    1
     7    20    22   ar
     8    22     1    1
     9     1     2    1
    10     2     3    2
    11     3     4    1
    12     4     5    2
    13     4     6    1
    14     6     7    2
    15     7     8   ar
    16     8     9   ar
    17     9    23    1
    18    23    24   ar
    19    24    25   ar
    20    25    26   ar
    21    26    27   ar
    22    27    28   ar
    23     9    10   ar
    24    10    11   ar
    25    11    12   ar
    26    12    13    2
    27    13    14    1
    28    22    16   ar
    29    14     1    2
    30    13     3    1
    31    12     7   ar
    32    28    23   ar
