@<TRIPOS>MOLECULE
*****
 29 33 0 0 0
SMALL
GASTEIGER

@<TRIPOS>ATOM
      1 C          -8.0284  -16.6594   23.7857 C.ar    1  UNL1        0.1347
      2 C          -9.3484  -16.3329   23.1525 C.ar    1  UNL1        0.0507
      3 C          -9.7376  -16.9771   21.8549 C.ar    1  UNL1        0.0831
      4 N          -8.8067  -17.9476   21.1906 N.ar    1  UNL1       -0.2295
      5 C          -7.4866  -18.2741   21.8238 C.ar    1  UNL1        0.1600
      6 N          -7.0975  -17.6300   23.1214 N.ar    1  UNL1       -0.2122
      7 C          -6.5558  -19.2448   21.1595 C.2     1  UNL1        0.0230
      8 C          -7.0912  -20.2473   20.1806 C.2     1  UNL1       -0.0005
      9 C          -6.1605  -21.2179   19.5163 C.2     1  UNL1        0.0010
     10 C          -4.6941  -21.1860   19.8307 C.2     1  UNL1        0.0153
     11 C          -4.1586  -20.1835   20.8096 C.2     1  UNL1        0.0669
     12 N          -2.7718  -19.9154   21.3144 N.2     1  UNL1       -0.2478
     13 C          -2.8456  -18.7791   22.2907 C.2     1  UNL1        0.0946
     14 C          -4.2779  -18.3449   22.3894 C.2     1  UNL1        0.0046
     15 C          -5.0895  -19.2128   21.4739 C.3     1  UNL1        0.0888
     16 C          -5.3246  -15.3933   24.0803 C.3     1  UNL1        0.0241
     17 C          -6.2874  -15.3822   25.2305 C.3     1  UNL1        0.1038
     18 C          -5.8982  -14.7381   26.5281 C.3     1  UNL1        0.1618
     19 O          -6.8609  -14.7269   27.6783 O.3     1  UNL1       -0.3502
     20 C          -8.2128  -15.3599   27.5311 C.3     1  UNL1        0.1636
     21 C          -8.6021  -16.0041   26.2335 C.3     1  UNL1        0.1242
     22 N          -7.6393  -16.0152   25.0832 N.pl3   1  UNL1       -0.2897
     23 C         -11.0576  -16.6506   21.2217 C.3     1  UNL1        0.1456
     24 C         -12.0546  -16.1174   20.2359 C.3     1  UNL1        0.0297
     25 C         -10.5859  -15.9422   19.9865 C.3     1  UNL1        0.0297
     26 S         -11.9877  -17.2456   22.2370 S.O2    1  UNL1       -0.0065
     27 C         -12.9178  -17.8406   23.2523 C.3     1  UNL1        0.1764
     28 O         -12.4321  -15.8696   22.6362 O.2     1  UNL1       -0.1727
     29 O         -11.5433  -18.6215   21.8379 O.2     1  UNL1       -0.1727
@<TRIPOS>BOND
     1    17    16    1
     2    17    18    1
     3    18    19    1
     4    19    20    1
     5    20    21    1
     6    21    22    1
     7    22     1    1
     8     1     2   ar
     9     2     3   ar
    10     3    23    1
    11    23    26    1
    12    26    27    1
    13    26    28    2
    14    26    29    2
    15    23    24    1
    16    24    25    1
    17     3     4   ar
    18     4     5   ar
    19     5     7    1
    20     7     8    2
    21     8     9    1
    22     9    10    2
    23    10    11    1
    24    11    12    2
    25    12    13    1
    26    13    14    2
    27    14    15    1
    28     5     6   ar
    29    22    17    1
    30     6     1   ar
    31    25    23    1
    32    15     7    1
    33    15    11    1
@<TRIPOS>MOLECULE
*****
 29 33 0 0 0
SMALL
GASTEIGER

@<TRIPOS>ATOM
      1 C          -7.8017  -16.7616   23.9295 C.ar    1  UNL1        0.1347
      2 C          -9.1584  -16.6327   23.3028 C.ar    1  UNL1        0.0507
      3 C          -9.4650  -17.3529   22.0232 C.ar    1  UNL1        0.0831
      4 N          -8.4149  -18.2020   21.3703 N.ar    1  UNL1       -0.2295
      5 C          -7.0581  -18.3309   21.9970 C.ar    1  UNL1        0.1600
      6 N          -6.7515  -17.6107   23.2766 N.ar    1  UNL1       -0.2122
      7 C          -6.0080  -19.1800   21.3441 C.2     1  UNL1        0.0230
      8 C          -6.4072  -20.2552   20.3774 C.2     1  UNL1       -0.0005
      9 C          -5.3572  -21.1043   19.7245 C.2     1  UNL1        0.0010
     10 C          -3.9078  -20.8783   20.0383 C.2     1  UNL1        0.0153
     11 C          -3.5087  -19.8031   21.0051 C.2     1  UNL1        0.0669
     12 N          -2.1692  -19.3510   21.5064 N.2     1  UNL1       -0.2478
     13 C          -2.3914  -18.2225   22.4692 C.2     1  UNL1        0.0946
     14 C          -3.8683  -17.9771   22.5629 C.2     1  UNL1        0.0046
     15 C          -4.5588  -18.9540   21.6580 C.3     1  UNL1        0.0888
     16 C          -5.1915  -15.3180   24.2499 C.3     1  UNL1        0.0241
     17 C          -6.1900  -15.3196   25.3693 C.3     1  UNL1        0.1038
     18 C          -5.8834  -14.5994   26.6488 C.3     1  UNL1        0.1618
     19 O          -6.8819  -14.6011   27.7682 O.3     1  UNL1       -0.3502
     20 C          -8.1870  -15.3228   27.6081 C.3     1  UNL1        0.1636
     21 C          -8.4937  -16.0431   26.3285 C.3     1  UNL1        0.1242
     22 N          -7.4951  -16.0414   25.2090 N.pl3   1  UNL1       -0.2897
     23 C         -10.8217  -17.2240   21.3965 C.3     1  UNL1        0.1456
     24 C         -12.1983  -16.7014   21.1104 C.3     1  UNL1        0.0297
     25 C         -11.3501  -16.0456   22.1596 C.3     1  UNL1        0.0297
     26 S         -10.7644  -18.3576   20.4158 S.O2    1  UNL1       -0.0065
     27 C         -10.7070  -19.4911   19.4352 C.3     1  UNL1        0.1764
     28 O         -10.4233  -17.3920   19.3197 O.2     1  UNL1       -0.1727
     29 O         -11.1054  -19.3231   21.5120 O.2     1  UNL1       -0.1727
@<TRIPOS>BOND
     1    17    16    1
     2    17    18    1
     3    18    19    1
     4    19    20    1
     5    20    21    1
     6    21    22    1
     7    22     1    1
     8     1     2   ar
     9     2     3   ar
    10     3    23    1
    11    23    26    1
    12    26    27    1
    13    26    28    2
    14    26    29    2
    15    23    24    1
    16    24    25    1
    17     3     4   ar
    18     4     5   ar
    19     5     7    1
    20     7     8    2
    21     8     9    1
    22     9    10    2
    23    10    11    1
    24    11    12    2
    25    12    13    1
    26    13    14    2
    27    14    15    1
    28     5     6   ar
    29    22    17    1
    30     6     1   ar
    31    25    23    1
    32    15     7    1
    33    15    11    1
@<TRIPOS>MOLECULE
*****
 29 33 0 0 0
SMALL
GASTEIGER

@<TRIPOS>ATOM
      1 C          -6.2774  -17.0706   23.5908 C.ar    1  UNL1        0.1347
      2 C          -4.9025  -17.5140   23.1871 C.ar    1  UNL1        0.0507
      3 C          -4.7131  -18.3317   21.9438 C.ar    1  UNL1        0.0831
      4 N          -5.8985  -18.7059   21.1044 N.ar    1  UNL1       -0.2295
      5 C          -7.2734  -18.2625   21.5082 C.ar    1  UNL1        0.1600
      6 N          -7.4629  -17.4449   22.7514 N.ar    1  UNL1       -0.2122
      7 C          -8.4589  -18.6368   20.6688 C.2     1  UNL1        0.0230
      8 C          -8.3584  -19.7711   19.6925 C.2     1  UNL1       -0.0005
      9 C          -9.5438  -20.1454   18.8531 C.2     1  UNL1        0.0010
     10 C         -10.8298  -19.3854   18.9900 C.2     1  UNL1        0.0153
     11 C         -10.9303  -18.2511   19.9663 C.2     1  UNL1        0.0669
     12 N         -12.0579  -17.3266   20.3182 N.2     1  UNL1       -0.2478
     13 C         -11.5693  -16.3810   21.3750 C.2     1  UNL1        0.0946
     14 C         -10.1398  -16.7210   21.6764 C.2     1  UNL1        0.0046
     15 C          -9.7448  -17.8768   20.8057 C.3     1  UNL1        0.0888
     16 C          -8.9607  -16.9750   24.9289 C.3     1  UNL1        0.0241
     17 C          -7.8085  -16.2052   25.5030 C.3     1  UNL1        0.1038
     18 C          -7.9980  -15.3875   26.7462 C.3     1  UNL1        0.1618
     19 O          -6.8457  -14.6177   27.3204 O.3     1  UNL1       -0.3502
     20 C          -5.5040  -14.6654   26.6515 C.3     1  UNL1        0.1636
     21 C          -5.3145  -15.4831   25.4082 C.3     1  UNL1        0.1242
     22 N          -6.4668  -16.2530   24.8340 N.pl3   1  UNL1       -0.2897
     23 C          -3.3382  -18.7750   21.5400 C.3     1  UNL1        0.1456
     24 C          -2.2195  -19.6701   21.0956 C.3     1  UNL1        0.0297
     25 C          -3.5986  -20.2297   21.2829 C.3     1  UNL1        0.0297
     26 S          -2.6003  -17.4743   21.6569 S.O2    1  UNL1       -0.0065
     27 C          -1.8624  -16.1736   21.7738 C.3     1  UNL1        0.1764
     28 O          -2.2117  -17.8212   23.0636 O.2     1  UNL1       -0.1727
     29 O          -2.9888  -17.1274   20.2503 O.2     1  UNL1       -0.1727
@<TRIPOS>BOND
     1    17    16    1
     2    17    18    1
     3    18    19    1
     4    19    20    1
     5    20    21    1
     6    21    22    1
     7    22     1    1
     8     1     2   ar
     9     2     3   ar
    10     3    23    1
    11    23    26    1
    12    26    27    1
    13    26    28    2
    14    26    29    2
    15    23    24    1
    16    24    25    1
    17     3     4   ar
    18     4     5   ar
    19     5     7    1
    20     7     8    2
    21     8     9    1
    22     9    10    2
    23    10    11    1
    24    11    12    2
    25    12    13    1
    26    13    14    2
    27    14    15    1
    28     5     6   ar
    29    22    17    1
    30     6     1   ar
    31    25    23    1
    32    15     7    1
    33    15    11    1
@<TRIPOS>MOLECULE
*****
 29 33 0 0 0
SMALL
GASTEIGER

@<TRIPOS>ATOM
      1 C          -8.2785  -16.7276   23.6470 C.ar    1  UNL1        0.1347
      2 C          -9.6082  -16.3168   23.0874 C.ar    1  UNL1        0.0507
      3 C         -10.1146  -16.9422   21.8214 C.ar    1  UNL1        0.0831
      4 N          -9.2914  -17.9782   21.1152 N.ar    1  UNL1       -0.2295
      5 C          -7.9616  -18.3889   21.6749 C.ar    1  UNL1        0.1600
      6 N          -7.4552  -17.7637   22.9408 N.ar    1  UNL1       -0.2122
      7 C          -7.1384  -19.4250   20.9686 C.2     1  UNL1        0.0230
      8 C          -5.7322  -19.6973   21.4142 C.2     1  UNL1       -0.0005
      9 C          -4.9090  -20.7333   20.7079 C.2     1  UNL1        0.0010
     10 C          -5.4919  -21.4972   19.5560 C.2     1  UNL1        0.0153
     11 C          -6.8980  -21.2249   19.1104 C.2     1  UNL1        0.0669
     12 N          -7.7358  -21.8150   18.0150 N.2     1  UNL1       -0.2478
     13 C          -9.0768  -21.1436   18.0443 C.2     1  UNL1        0.0946
     14 C          -9.0679  -20.1386   19.1578 C.2     1  UNL1        0.0046
     15 C          -7.7213  -20.1888   19.8167 C.3     1  UNL1        0.0888
     16 C          -5.4886  -15.6311   23.7667 C.3     1  UNL1        0.0241
     17 C          -6.3772  -15.5540   24.9727 C.3     1  UNL1        0.1038
     18 C          -5.8707  -14.9287   26.2386 C.3     1  UNL1        0.1618
     19 O          -6.7592  -14.8517   27.4447 O.3     1  UNL1       -0.3502
     20 C          -8.1541  -15.3999   27.3850 C.3     1  UNL1        0.1636
     21 C          -8.6607  -16.0252   26.1190 C.3     1  UNL1        0.1242
     22 N          -7.7721  -16.1023   24.9129 N.pl3   1  UNL1       -0.2897
     23 C         -11.4443  -16.5314   21.2618 C.3     1  UNL1        0.1456
     24 C         -12.4580  -15.9264   20.3364 C.3     1  UNL1        0.0297
     25 C         -10.9962  -15.8294   20.0142 C.3     1  UNL1        0.0297
     26 S         -12.3541  -17.0907   22.3151 S.O2    1  UNL1       -0.0065
     27 C         -13.2639  -17.6500   23.3683 C.3     1  UNL1        0.1764
     28 O         -12.0555  -18.4802   21.8352 O.2     1  UNL1       -0.1727
     29 O         -12.6528  -15.7013   22.7949 O.2     1  UNL1       -0.1727
@<TRIPOS>BOND
     1    17    16    1
     2    17    18    1
     3    18    19    1
     4    19    20    1
     5    20    21    1
     6    21    22    1
     7    22     1    1
     8     1     2   ar
     9     2     3   ar
    10     3    23    1
    11    23    26    1
    12    26    27    1
    13    26    28    2
    14    26    29    2
    15    23    24    1
    16    24    25    1
    17     3     4   ar
    18     4     5   ar
    19     5     7    1
    20     7     8    2
    21     8     9    1
    22     9    10    2
    23    10    11    1
    24    11    12    2
    25    12    13    1
    26    13    14    2
    27    14    15    1
    28     5     6   ar
    29    22    17    1
    30     6     1   ar
    31    25    23    1
    32    15     7    1
    33    15    11    1
@<TRIPOS>MOLECULE
*****
 29 33 0 0 0
SMALL
GASTEIGER

@<TRIPOS>ATOM
      1 C         -12.9076   -5.3977   18.4356 C.ar    1  UNL1        0.1347
      2 C         -12.6542   -3.9238   18.3186 C.ar    1  UNL1        0.0507
      3 C         -13.7828   -2.9523   18.4989 C.ar    1  UNL1        0.0831
      4 N         -15.1646   -3.4545   18.7960 N.ar    1  UNL1       -0.2295
      5 C         -15.4179   -4.9284   18.9129 C.ar    1  UNL1        0.1600
      6 N         -14.2894   -5.9000   18.7327 N.ar    1  UNL1       -0.2122
      7 C         -16.7998   -5.4306   19.2100 C.2     1  UNL1        0.0230
      8 C         -17.9551   -4.4744   19.2396 C.2     1  UNL1       -0.0005
      9 C         -19.3369   -4.9765   19.5367 C.2     1  UNL1        0.0010
     10 C         -19.5635   -6.4350   19.8042 C.2     1  UNL1        0.0153
     11 C         -18.4082   -7.3913   19.7746 C.2     1  UNL1        0.0669
     12 N         -18.3253   -8.8724   19.9970 N.2     1  UNL1       -0.2478
     13 C         -16.8922   -9.2855   19.8373 C.2     1  UNL1        0.0946
     14 C         -16.0894   -8.0598   19.5162 C.2     1  UNL1        0.0046
     15 C         -17.0264   -6.8891   19.4774 C.3     1  UNL1        0.0888
     16 C         -13.0370   -7.4606   16.2612 C.3     1  UNL1        0.0241
     17 C         -11.8438   -7.4007   17.1682 C.3     1  UNL1        0.1038
     18 C         -10.7153   -8.3723   16.9880 C.3     1  UNL1        0.1618
     19 O          -9.5221   -8.3124   17.8949 O.3     1  UNL1       -0.3502
     20 C          -9.4572   -7.2810   18.9821 C.3     1  UNL1        0.1636
     21 C         -10.5858   -6.3094   19.1624 C.3     1  UNL1        0.1242
     22 N         -11.7791   -6.3692   18.2553 N.pl3   1  UNL1       -0.2897
     23 C         -13.5295   -1.4785   18.3820 C.3     1  UNL1        0.1456
     24 C         -12.8144   -0.1615   18.4484 C.3     1  UNL1        0.0297
     25 C         -12.1121   -1.4184   18.8692 C.3     1  UNL1        0.0297
     26 S         -14.8589   -1.0267   17.8541 S.O2    1  UNL1       -0.0065
     27 C         -16.1883   -0.5750   17.3264 C.3     1  UNL1        0.1764
     28 O         -14.4980   -1.5515   16.4960 O.2     1  UNL1       -0.1727
     29 O         -15.2198   -0.5020   19.2122 O.2     1  UNL1       -0.1727
@<TRIPOS>BOND
     1    17    16    1
     2    17    18    1
     3    18    19    1
     4    19    20    1
     5    20    21    1
     6    21    22    1
     7    22     1    1
     8     1     2   ar
     9     2     3   ar
    10     3    23    1
    11    23    26    1
    12    26    27    1
    13    26    28    2
    14    26    29    2
    15    23    24    1
    16    24    25    1
    17     3     4   ar
    18     4     5   ar
    19     5     7    1
    20     7     8    2
    21     8     9    1
    22     9    10    2
    23    10    11    1
    24    11    12    2
    25    12    13    1
    26    13    14    2
    27    14    15    1
    28     5     6   ar
    29    22    17    1
    30     6     1   ar
    31    25    23    1
    32    15     7    1
    33    15    11    1
@<TRIPOS>MOLECULE
*****
 29 33 0 0 0
SMALL
GASTEIGER

@<TRIPOS>ATOM
      1 C           6.6204   -3.3814   25.7124 C.ar    1  UNL1        0.1347
      2 C           7.5167   -4.4862   25.2369 C.ar    1  UNL1        0.0507
      3 C           7.4483   -4.9462   23.8108 C.ar    1  UNL1        0.0831
      4 N           6.4836   -4.3016   22.8603 N.ar    1  UNL1       -0.2295
      5 C           5.5872   -3.1968   23.3357 C.ar    1  UNL1        0.1600
      6 N           5.6556   -2.7367   24.7618 N.ar    1  UNL1       -0.2122
      7 C           4.6225   -2.5521   22.3851 C.2     1  UNL1        0.0230
      8 C           3.6915   -1.4817   22.8723 C.2     1  UNL1       -0.0005
      9 C           2.7268   -0.8370   21.9218 C.2     1  UNL1        0.0010
     10 C           2.6930   -1.2628   20.4838 C.2     1  UNL1        0.0153
     11 C           3.6240   -2.3332   19.9965 C.2     1  UNL1        0.0669
     12 N           3.8185   -2.9556   18.6457 N.2     1  UNL1       -0.2478
     13 C           4.9034   -3.9849   18.7614 C.2     1  UNL1        0.0946
     14 C           5.3795   -3.9987   20.1838 C.2     1  UNL1        0.0046
     15 C           4.5887   -2.9779   20.9472 C.3     1  UNL1        0.0888
     16 C           7.4162   -0.5580   26.3411 C.3     1  UNL1        0.0241
     17 C           7.0866   -1.5096   27.4528 C.3     1  UNL1        0.1038
     18 C           7.1550   -1.0496   28.8788 C.3     1  UNL1        0.1618
     19 O           6.8255   -2.0012   29.9905 O.3     1  UNL1       -0.3502
     20 C           6.4276   -3.4128   29.6763 C.3     1  UNL1        0.1636
     21 C           6.3592   -3.8730   28.2502 C.3     1  UNL1        0.1242
     22 N           6.6887   -2.9213   27.1384 N.pl3   1  UNL1       -0.2897
     23 C           8.3447   -6.0510   23.3354 C.3     1  UNL1        0.1456
     24 C           9.0359   -7.3812   23.2824 C.3     1  UNL1        0.0297
     25 C           8.0650   -7.0839   24.3865 C.3     1  UNL1        0.0297
     26 S           8.9357   -5.4017   22.1192 S.O2    1  UNL1       -0.0065
     27 C           9.5266   -4.7524   20.9030 C.3     1  UNL1        0.1764
     28 O           9.5355   -4.3313   22.9821 O.2     1  UNL1       -0.1727
     29 O           8.3358   -6.4720   21.2563 O.2     1  UNL1       -0.1727
@<TRIPOS>BOND
     1    17    16    1
     2    17    18    1
     3    18    19    1
     4    19    20    1
     5    20    21    1
     6    21    22    1
     7    22     1    1
     8     1     2   ar
     9     2     3   ar
    10     3    23    1
    11    23    26    1
    12    26    27    1
    13    26    28    2
    14    26    29    2
    15    23    24    1
    16    24    25    1
    17     3     4   ar
    18     4     5   ar
    19     5     7    1
    20     7     8    2
    21     8     9    1
    22     9    10    2
    23    10    11    1
    24    11    12    2
    25    12    13    1
    26    13    14    2
    27    14    15    1
    28     5     6   ar
    29    22    17    1
    30     6     1   ar
    31    25    23    1
    32    15     7    1
    33    15    11    1
@<TRIPOS>MOLECULE
*****
 29 33 0 0 0
SMALL
GASTEIGER

@<TRIPOS>ATOM
      1 C           6.3347   -3.0591   22.0138 C.ar    1  UNL1        0.1347
      2 C           5.5759   -2.1026   22.8852 C.ar    1  UNL1        0.0507
      3 C           5.5055   -2.3315   24.3660 C.ar    1  UNL1        0.0831
      4 N           6.1938   -3.5168   24.9753 N.ar    1  UNL1       -0.2295
      5 C           6.9526   -4.4733   24.1038 C.ar    1  UNL1        0.1600
      6 N           7.0231   -4.2444   22.6230 N.ar    1  UNL1       -0.2122
      7 C           7.6409   -5.6586   24.7131 C.2     1  UNL1        0.0230
      8 C           8.3943   -6.6187   23.8408 C.2     1  UNL1       -0.0005
      9 C           9.0825   -7.8039   24.4501 C.2     1  UNL1        0.0010
     10 C           9.0176   -8.0292   25.9317 C.2     1  UNL1        0.0153
     11 C           8.2643   -7.0692   26.8039 C.2     1  UNL1        0.0669
     12 N           8.0277   -7.0321   28.2847 N.2     1  UNL1       -0.2478
     13 C           7.1931   -5.8238   28.5905 C.2     1  UNL1        0.0946
     14 C           6.9139   -5.1142   27.2988 C.2     1  UNL1        0.0046
     15 C           7.5759   -5.8839   26.1946 C.3     1  UNL1        0.0888
     16 C           4.1929   -4.1568   20.2227 C.3     1  UNL1        0.0241
     17 C           5.3343   -3.3791   19.6375 C.3     1  UNL1        0.1038
     18 C           5.4047   -3.1502   18.1567 C.3     1  UNL1        0.1618
     19 O           6.5461   -2.3725   17.5715 O.3     1  UNL1       -0.3502
     20 C           7.6170   -1.8236   18.4669 C.3     1  UNL1        0.1636
     21 C           7.5466   -2.0525   19.9477 C.3     1  UNL1        0.1242
     22 N           6.4052   -2.8302   20.5330 N.pl3   1  UNL1       -0.2897
     23 C           4.7467   -1.3751   25.2375 C.3     1  UNL1        0.1456
     24 C           3.6560   -0.4600   25.7096 C.3     1  UNL1        0.0297
     25 C           3.5274   -1.1620   24.3902 C.3     1  UNL1        0.0297
     26 S           5.7026   -1.2560   26.3873 S.O2    1  UNL1       -0.0065
     27 C           6.6584   -1.1370   27.5371 C.3     1  UNL1        0.1764
     28 O           6.6418   -0.4661   25.5248 O.2     1  UNL1       -0.1727
     29 O           4.7634   -2.0459   27.2499 O.2     1  UNL1       -0.1727
@<TRIPOS>BOND
     1    17    16    1
     2    17    18    1
     3    18    19    1
     4    19    20    1
     5    20    21    1
     6    21    22    1
     7    22     1    1
     8     1     2   ar
     9     2     3   ar
    10     3    23    1
    11    23    26    1
    12    26    27    1
    13    26    28    2
    14    26    29    2
    15    23    24    1
    16    24    25    1
    17     3     4   ar
    18     4     5   ar
    19     5     7    1
    20     7     8    2
    21     8     9    1
    22     9    10    2
    23    10    11    1
    24    11    12    2
    25    12    13    1
    26    13    14    2
    27    14    15    1
    28     5     6   ar
    29    22    17    1
    30     6     1   ar
    31    25    23    1
    32    15     7    1
    33    15    11    1
@<TRIPOS>MOLECULE
*****
 29 33 0 0 0
SMALL
GASTEIGER

@<TRIPOS>ATOM
      1 C         -13.9230   -4.8806   18.7117 C.ar    1  UNL1        0.1347
      2 C         -14.4856   -3.5048   18.9135 C.ar    1  UNL1        0.0507
      3 C         -15.9299   -3.3315   19.2796 C.ar    1  UNL1        0.0831
      4 N         -16.8115   -4.5338   19.4439 N.ar    1  UNL1       -0.2295
      5 C         -16.2488   -5.9097   19.2420 C.ar    1  UNL1        0.1600
      6 N         -14.8046   -6.0830   18.8759 N.ar    1  UNL1       -0.2122
      7 C         -17.1305   -7.1121   19.4063 C.2     1  UNL1        0.0230
      8 C         -18.5030   -6.9612   19.9922 C.2     1  UNL1       -0.0005
      9 C         -19.3846   -8.1635   20.1565 C.2     1  UNL1        0.0010
     10 C         -18.8937   -9.5168   19.7349 C.2     1  UNL1        0.0153
     11 C         -17.5212   -9.6677   19.1490 C.2     1  UNL1        0.0669
     12 N         -16.7704  -10.8651   18.6466 N.2     1  UNL1       -0.2478
     13 C         -15.4247  -10.4028   18.1718 C.2     1  UNL1        0.0946
     14 C         -15.3438   -8.9196   18.3808 C.2     1  UNL1        0.0046
     15 C         -16.6395   -8.4653   18.9847 C.3     1  UNL1        0.0888
     16 C         -13.1765   -5.8776   15.9824 C.3     1  UNL1        0.0241
     17 C         -12.1055   -5.5524   16.9810 C.3     1  UNL1        0.1038
     18 C         -10.6612   -5.7258   16.6149 C.3     1  UNL1        0.1618
     19 O          -9.5902   -5.4006   17.6134 O.3     1  UNL1       -0.3502
     20 C          -9.9633   -4.9021   18.9780 C.3     1  UNL1        0.1636
     21 C         -11.4076   -4.7288   19.3442 C.3     1  UNL1        0.1242
     22 N         -12.4787   -5.0539   18.3456 N.pl3   1  UNL1       -0.2897
     23 C         -16.4926   -1.9558   19.4814 C.3     1  UNL1        0.1456
     24 C         -16.5788   -0.5130   19.8830 C.3     1  UNL1        0.0297
     25 C         -15.3161   -1.2853   20.1268 C.3     1  UNL1        0.0297
     26 S         -17.8644   -2.1485   18.9061 S.O2    1  UNL1       -0.0065
     27 C         -19.2361   -2.3411   18.3308 C.3     1  UNL1        0.1764
     28 O         -18.4427   -2.1636   20.2901 O.2     1  UNL1       -0.1727
     29 O         -17.2861   -2.1334   17.5221 O.2     1  UNL1       -0.1727
@<TRIPOS>BOND
     1    17    16    1
     2    17    18    1
     3    18    19    1
     4    19    20    1
     5    20    21    1
     6    21    22    1
     7    22     1    1
     8     1     2   ar
     9     2     3   ar
    10     3    23    1
    11    23    26    1
    12    26    27    1
    13    26    28    2
    14    26    29    2
    15    23    24    1
    16    24    25    1
    17     3     4   ar
    18     4     5   ar
    19     5     7    1
    20     7     8    2
    21     8     9    1
    22     9    10    2
    23    10    11    1
    24    11    12    2
    25    12    13    1
    26    13    14    2
    27    14    15    1
    28     5     6   ar
    29    22    17    1
    30     6     1   ar
    31    25    23    1
    32    15     7    1
    33    15    11    1
@<TRIPOS>MOLECULE
*****
 29 33 0 0 0
SMALL
GASTEIGER

@<TRIPOS>ATOM
      1 C           3.1465    0.0171   20.4817 C.ar    1  UNL1        0.1347
      2 C           3.6132   -1.2067   19.7508 C.ar    1  UNL1        0.0507
      3 C           4.1773   -2.3675   20.5154 C.ar    1  UNL1        0.0831
      4 N           4.2747   -2.3043   22.0108 N.ar    1  UNL1       -0.2295
      5 C           3.8080   -1.0804   22.7418 C.ar    1  UNL1        0.1600
      6 N           3.2438    0.0803   21.9773 N.ar    1  UNL1       -0.2122
      7 C           3.9053   -1.0172   24.2373 C.2     1  UNL1        0.0230
      8 C           2.9831   -0.1231   25.0119 C.2     1  UNL1       -0.0005
      9 C           3.0805   -0.0600   26.5073 C.2     1  UNL1        0.0010
     10 C           4.1001   -0.8910   27.2283 C.2     1  UNL1        0.0153
     11 C           5.0224   -1.7851   26.4538 C.2     1  UNL1        0.0669
     12 N           6.1188   -2.7128   26.8865 N.2     1  UNL1       -0.2478
     13 C           6.6990   -3.3493   25.6584 C.2     1  UNL1        0.0946
     14 C           5.9612   -2.8150   24.4667 C.2     1  UNL1        0.0046
     15 C           4.9250   -1.8482   24.9583 C.3     1  UNL1        0.0888
     16 C           0.1753    0.3836   20.2874 C.3     1  UNL1        0.0241
     17 C           1.0968    1.3611   19.6201 C.3     1  UNL1        0.1038
     18 C           0.5327    2.5218   18.8555 C.3     1  UNL1        0.1618
     19 O           1.4541    3.4992   18.1882 O.3     1  UNL1       -0.3502
     20 C           2.9397    3.3161   18.2853 C.3     1  UNL1        0.1636
     21 C           3.5039    2.1554   19.0498 C.3     1  UNL1        0.1242
     22 N           2.5824    1.1778   19.7172 N.pl3   1  UNL1       -0.2897
     23 C           4.6440   -3.5913   19.7844 C.3     1  UNL1        0.1456
     24 C           4.6033   -4.8282   18.9367 C.3     1  UNL1        0.0297
     25 C           3.3447   -4.0537   19.1945 C.3     1  UNL1        0.0297
     26 S           6.1054   -3.5539   20.1205 S.O2    1  UNL1       -0.0065
     27 C           7.5668   -3.5166   20.4566 C.3     1  UNL1        0.1764
     28 O           6.3446   -2.6142   18.9761 O.2     1  UNL1       -0.1727
     29 O           5.8663   -4.4937   21.2650 O.2     1  UNL1       -0.1727
@<TRIPOS>BOND
     1    17    16    1
     2    17    18    1
     3    18    19    1
     4    19    20    1
     5    20    21    1
     6    21    22    1
     7    22     1    1
     8     1     2   ar
     9     2     3   ar
    10     3    23    1
    11    23    26    1
    12    26    27    1
    13    26    28    2
    14    26    29    2
    15    23    24    1
    16    24    25    1
    17     3     4   ar
    18     4     5   ar
    19     5     7    1
    20     7     8    2
    21     8     9    1
    22     9    10    2
    23    10    11    1
    24    11    12    2
    25    12    13    1
    26    13    14    2
    27    14    15    1
    28     5     6   ar
    29    22    17    1
    30     6     1   ar
    31    25    23    1
    32    15     7    1
    33    15    11    1
