@<TRIPOS>MOLECULE
*****
 36 38 0 0 0
SMALL
GASTEIGER

@<TRIPOS>ATOM
      1 C          -7.5092  -16.7875   23.5771 C.ar    1  UNL1       -0.0022
      2 C          -6.8408  -16.0178   24.6774 C.ar    1  UNL1        0.0012
      3 C          -7.5669  -15.7679   25.9659 C.ar    1  UNL1        0.0712
      4 C          -8.9613  -16.2878   26.1541 C.ar    1  UNL1        0.0038
      5 C          -9.6296  -17.0576   25.0538 C.ar    1  UNL1       -0.0002
      6 C          -8.9035  -17.3074   23.7653 C.ar    1  UNL1        0.0005
      7 C          -9.5719  -18.0772   22.6649 C.ar    1  UNL1        0.0334
      8 C         -10.1415  -17.3525   21.4815 C.ar    1  UNL1       -0.0009
      9 C         -10.8098  -18.1222   20.3811 C.ar    1  UNL1       -0.0164
     10 C         -10.9085  -19.6167   20.4641 C.ar    1  UNL1       -0.0008
     11 C         -10.3389  -20.3415   21.6474 C.ar    1  UNL1        0.0366
     12 C          -9.6705  -19.5717   22.7478 C.ar    1  UNL1        0.1386
     13 O          -9.1009  -20.2964   23.9312 O.3     1  UNL1       -0.4714
     14 C          -9.9945  -20.6937   25.0687 C.3     1  UNL1        0.2525
     15 C         -11.3794  -17.3975   19.1978 C.3     1  UNL1        0.0679
     16 C         -11.7108  -15.9382   19.3003 C.2     1  UNL1        0.0547
     17 O         -10.6877  -14.9084   18.9223 O.co2   1  UNL1       -0.5488
     18 O         -13.0653  -15.5087   19.7808 O.co2   1  UNL1       -0.5488
     19 C          -6.8986  -14.9981   27.0663 C.3     1  UNL1        0.4186
     20 F          -6.2303  -14.2284   28.1667 F       1  UNL1       -0.1659
     21 F          -8.2380  -14.7041   27.6740 F       1  UNL1       -0.1659
     22 F          -5.5591  -15.2922   26.4586 F       1  UNL1       -0.1659
     23 C          -6.7831  -17.0374   22.2884 C.3     1  UNL1        0.1234
     24 N          -5.9671  -18.2843   22.1170 N.am    1  UNL1       -0.2419
     25 C          -6.2903  -19.2462   21.0123 C.2     1  UNL1        0.4054
     26 O          -7.4295  -18.9613   20.0791 O.2     1  UNL1       -0.2262
     27 C          -3.7910  -17.5172   23.3113 C.3     1  UNL1        0.0234
     28 C          -4.8278  -18.5693   23.0502 C.3     1  UNL1        0.0971
     29 O          -5.4742  -20.4931   20.8409 O.3     1  UNL1       -0.4295
     30 C          -4.3554  -20.5258   19.8423 C.3     1  UNL1        0.2367
     31 C          -3.3020  -19.4580   19.8610 C.ar    1  UNL1        0.0213
     32 C          -2.1581  -19.5497   20.8269 C.ar    1  UNL1       -0.0007
     33 C          -1.1048  -18.4820   20.8455 C.ar    1  UNL1       -0.0002
     34 C          -1.1953  -17.3225   19.8983 C.ar    1  UNL1       -0.0000
     35 C          -2.3392  -17.2308   18.9323 C.ar    1  UNL1       -0.0002
     36 C          -3.3926  -18.2986   18.9137 C.ar    1  UNL1       -0.0007
@<TRIPOS>UNITY_ATOM_ATTR
17 1
charge -1
@<TRIPOS>BOND
     1    27    28    1
     2    28    24    1
     3    24    23    1
     4    23     1    1
     5     1     2   ar
     6     2     3   ar
     7     3    19    1
     8    19    20    1
     9    19    21    1
    10    19    22    1
    11     3     4   ar
    12     4     5   ar
    13     5     6   ar
    14     6     7    1
    15     7     8   ar
    16     8     9   ar
    17     9    15    1
    18    15    16    1
    19    16    17   ar
    20    16    18   ar
    21     9    10   ar
    22    10    11   ar
    23    11    12   ar
    24    12    13    1
    25    13    14    1
    26    24    25   am
    27    25    26    2
    28    25    29    1
    29    29    30    1
    30    30    31    1
    31    31    32   ar
    32    32    33   ar
    33    33    34   ar
    34    34    35   ar
    35    35    36   ar
    36     6     1   ar
    37    12     7   ar
    38    36    31   ar
@<TRIPOS>MOLECULE
*****
 36 38 0 0 0
SMALL
GASTEIGER

@<TRIPOS>ATOM
      1 C          -7.7404  -16.5457   23.4942 C.ar    1  UNL1       -0.0022
      2 C          -6.5115  -15.9486   24.1131 C.ar    1  UNL1        0.0012
      3 C          -6.5516  -15.4465   25.5260 C.ar    1  UNL1        0.0712
      4 C          -7.8207  -15.5414   26.3199 C.ar    1  UNL1        0.0038
      5 C          -9.0497  -16.1385   25.7010 C.ar    1  UNL1       -0.0002
      6 C          -9.0095  -16.6406   24.2882 C.ar    1  UNL1        0.0005
      7 C         -10.2385  -17.2378   23.6692 C.ar    1  UNL1        0.0334
      8 C         -10.9553  -16.5087   22.5716 C.ar    1  UNL1       -0.0009
      9 C         -12.1843  -17.1058   21.9526 C.ar    1  UNL1       -0.0164
     10 C         -12.6965  -18.4320   22.4312 C.ar    1  UNL1       -0.0008
     11 C         -11.9797  -19.1610   23.5288 C.ar    1  UNL1        0.0366
     12 C         -10.7507  -18.5639   24.1478 C.ar    1  UNL1        0.1386
     13 O         -10.0339  -19.2929   25.2454 O.3     1  UNL1       -0.4714
     14 C          -9.7133  -20.7503   25.0930 C.3     1  UNL1        0.2525
     15 C         -12.9011  -16.3768   20.8550 C.3     1  UNL1        0.0679
     16 C         -12.1394  -15.8820   19.6613 C.2     1  UNL1        0.0547
     17 O         -12.8113  -14.9898   18.6599 O.co2   1  UNL1       -0.5488
     18 O         -10.7058  -16.2793   19.4688 O.co2   1  UNL1       -0.5488
     19 C          -5.3226  -14.8493   26.1449 C.3     1  UNL1        0.4186
     20 F          -4.0936  -14.2523   26.7638 F       1  UNL1       -0.1659
     21 F          -4.5834  -15.0311   24.8525 F       1  UNL1       -0.1659
     22 F          -6.0618  -14.6676   27.4374 F       1  UNL1       -0.1659
     23 C          -7.7003  -17.0478   22.0813 C.3     1  UNL1        0.1234
     24 N          -7.2463  -18.4487   21.7958 N.am    1  UNL1       -0.2419
     25 C          -5.7888  -18.7949   21.8719 C.2     1  UNL1        0.4054
     26 O          -4.7853  -17.7403   22.2334 O.2     1  UNL1       -0.2262
     27 C          -9.3365  -19.1975   20.4465 C.3     1  UNL1        0.0234
     28 C          -8.2498  -19.5033   21.4342 C.3     1  UNL1        0.0971
     29 O          -5.3348  -20.1957   21.5864 O.3     1  UNL1       -0.4295
     30 C          -4.4295  -20.4681   20.4219 C.3     1  UNL1        0.2367
     31 C          -3.2807  -19.5477   20.1336 C.ar    1  UNL1        0.0213
     32 C          -2.0811  -19.5407   21.0341 C.ar    1  UNL1       -0.0007
     33 C          -0.9323  -18.6202   20.7459 C.ar    1  UNL1       -0.0002
     34 C          -0.9831  -17.7068   19.5571 C.ar    1  UNL1       -0.0000
     35 C          -2.1827  -17.7139   18.6567 C.ar    1  UNL1       -0.0002
     36 C          -3.3315  -18.6343   18.9449 C.ar    1  UNL1       -0.0007
@<TRIPOS>UNITY_ATOM_ATTR
17 1
charge -1
@<TRIPOS>BOND
     1    27    28    1
     2    28    24    1
     3    24    23    1
     4    23     1    1
     5     1     2   ar
     6     2     3   ar
     7     3    19    1
     8    19    20    1
     9    19    21    1
    10    19    22    1
    11     3     4   ar
    12     4     5   ar
    13     5     6   ar
    14     6     7    1
    15     7     8   ar
    16     8     9   ar
    17     9    15    1
    18    15    16    1
    19    16    17   ar
    20    16    18   ar
    21     9    10   ar
    22    10    11   ar
    23    11    12   ar
    24    12    13    1
    25    13    14    1
    26    24    25   am
    27    25    26    2
    28    25    29    1
    29    29    30    1
    30    30    31    1
    31    31    32   ar
    32    32    33   ar
    33    33    34   ar
    34    34    35   ar
    35    35    36   ar
    36     6     1   ar
    37    12     7   ar
    38    36    31   ar
@<TRIPOS>MOLECULE
*****
 36 38 0 0 0
SMALL
GASTEIGER

@<TRIPOS>ATOM
      1 C          -8.1201  -16.9394   22.8912 C.ar    1  UNL1       -0.0022
      2 C          -6.7824  -16.6703   23.5142 C.ar    1  UNL1        0.0012
      3 C          -6.6733  -15.7346   24.6815 C.ar    1  UNL1        0.0712
      4 C          -7.9019  -15.0680   25.2258 C.ar    1  UNL1        0.0038
      5 C          -9.2396  -15.3370   24.6028 C.ar    1  UNL1       -0.0002
      6 C          -9.3487  -16.2727   23.4355 C.ar    1  UNL1        0.0005
      7 C         -10.6864  -16.5418   22.8124 C.ar    1  UNL1        0.0334
      8 C         -11.7544  -17.2398   23.6013 C.ar    1  UNL1       -0.0009
      9 C         -13.0920  -17.5089   22.9783 C.ar    1  UNL1       -0.0164
     10 C         -13.3618  -17.0801   21.5664 C.ar    1  UNL1       -0.0008
     11 C         -12.2938  -16.3821   20.7775 C.ar    1  UNL1        0.0366
     12 C         -10.9561  -16.1130   21.4006 C.ar    1  UNL1        0.1386
     13 O          -9.8881  -15.4150   20.6118 O.3     1  UNL1       -0.4714
     14 C         -10.2334  -14.7345   19.3203 C.3     1  UNL1        0.2525
     15 C         -14.1600  -18.2069   23.7671 C.3     1  UNL1        0.0679
     16 C         -13.8638  -18.7108   25.1485 C.2     1  UNL1        0.0547
     17 O         -12.4530  -19.0345   25.5423 O.co2   1  UNL1       -0.5488
     18 O         -14.9782  -18.8910   26.1361 O.co2   1  UNL1       -0.5488
     19 C          -5.3356  -15.4655   25.3046 C.3     1  UNL1        0.4186
     20 F          -3.9979  -15.1964   25.9276 F       1  UNL1       -0.1659
     21 F          -4.7401  -15.2705   23.9418 F       1  UNL1       -0.1659
     22 F          -5.9311  -15.6605   26.6674 F       1  UNL1       -0.1659
     23 C          -8.2292  -17.8751   21.7239 C.3     1  UNL1        0.1234
     24 N          -7.4578  -19.1615   21.7192 N.am    1  UNL1       -0.2419
     25 C          -6.4378  -19.4204   20.6502 C.2     1  UNL1        0.4054
     26 O          -6.1894  -18.3930   19.5860 O.2     1  UNL1       -0.2262
     27 C          -9.0449  -20.2635   23.4561 C.3     1  UNL1        0.0234
     28 C          -7.7062  -20.1889   22.7834 C.3     1  UNL1        0.0971
     29 O          -5.6663  -20.7068   20.6455 O.3     1  UNL1       -0.4295
     30 C          -4.1952  -20.6980   20.3532 C.3     1  UNL1        0.2367
     31 C          -3.3849  -19.4641   20.6196 C.ar    1  UNL1        0.0213
     32 C          -2.7632  -18.7143   19.4790 C.ar    1  UNL1       -0.0007
     33 C          -1.9530  -17.4803   19.7454 C.ar    1  UNL1       -0.0002
     34 C          -1.7645  -16.9962   21.1525 C.ar    1  UNL1       -0.0000
     35 C          -2.3862  -17.7460   22.2932 C.ar    1  UNL1       -0.0002
     36 C          -3.1965  -18.9799   22.0268 C.ar    1  UNL1       -0.0007
@<TRIPOS>UNITY_ATOM_ATTR
17 1
charge -1
@<TRIPOS>BOND
     1    27    28    1
     2    28    24    1
     3    24    23    1
     4    23     1    1
     5     1     2   ar
     6     2     3   ar
     7     3    19    1
     8    19    20    1
     9    19    21    1
    10    19    22    1
    11     3     4   ar
    12     4     5   ar
    13     5     6   ar
    14     6     7    1
    15     7     8   ar
    16     8     9   ar
    17     9    15    1
    18    15    16    1
    19    16    17   ar
    20    16    18   ar
    21     9    10   ar
    22    10    11   ar
    23    11    12   ar
    24    12    13    1
    25    13    14    1
    26    24    25   am
    27    25    26    2
    28    25    29    1
    29    29    30    1
    30    30    31    1
    31    31    32   ar
    32    32    33   ar
    33    33    34   ar
    34    34    35   ar
    35    35    36   ar
    36     6     1   ar
    37    12     7   ar
    38    36    31   ar
@<TRIPOS>MOLECULE
*****
 36 38 0 0 0
SMALL
GASTEIGER

@<TRIPOS>ATOM
      1 C          -6.4714  -16.5520   23.5550 C.ar    1  UNL1       -0.0022
      2 C          -7.3604  -15.9034   24.5744 C.ar    1  UNL1        0.0012
      3 C          -6.8547  -15.6628   25.9659 C.ar    1  UNL1        0.0712
      4 C          -5.4601  -16.0709   26.3381 C.ar    1  UNL1        0.0038
      5 C          -4.5711  -16.7195   25.3188 C.ar    1  UNL1       -0.0002
      6 C          -5.0768  -16.9600   23.9273 C.ar    1  UNL1        0.0005
      7 C          -4.1879  -17.6087   22.9079 C.ar    1  UNL1        0.0334
      8 C          -3.0340  -16.8471   22.3259 C.ar    1  UNL1       -0.0009
      9 C          -2.1451  -17.4956   21.3065 C.ar    1  UNL1       -0.0164
     10 C          -2.4100  -18.9058   20.8691 C.ar    1  UNL1       -0.0008
     11 C          -3.5638  -19.6674   21.4511 C.ar    1  UNL1        0.0366
     12 C          -4.4527  -19.0188   22.4705 C.ar    1  UNL1        0.1386
     13 O          -5.6065  -19.7804   23.0525 O.3     1  UNL1       -0.4714
     14 C          -6.1743  -20.9587   22.3181 C.3     1  UNL1        0.2525
     15 C          -0.9913  -16.7341   20.7245 C.3     1  UNL1        0.0679
     16 C           0.0783  -17.4593   19.9630 C.2     1  UNL1        0.0547
     17 O           1.4193  -17.6942   20.5929 O.co2   1  UNL1       -0.5488
     18 O          -0.1930  -17.9497   18.5717 O.co2   1  UNL1       -0.5488
     19 C          -7.7437  -15.0142   26.9853 C.3     1  UNL1        0.4186
     20 F          -8.6325  -14.3656   28.0047 F       1  UNL1       -0.1659
     21 F          -6.5573  -14.7854   27.8742 F       1  UNL1       -0.1659
     22 F          -8.9300  -15.2430   26.0964 F       1  UNL1       -0.1659
     23 C          -6.9771  -16.7926   22.1634 C.3     1  UNL1        0.1234
     24 N          -7.9884  -17.8707   21.9089 N.am    1  UNL1       -0.2419
     25 C          -7.8548  -18.7552   20.7047 C.2     1  UNL1        0.4054
     26 O          -6.7100  -18.5615   19.7552 O.2     1  UNL1       -0.2262
     27 C          -9.1849  -19.2822   23.7326 C.3     1  UNL1        0.0234
     28 C          -9.1333  -18.0644   22.8584 C.3     1  UNL1        0.0971
     29 O          -8.8662  -19.8333   20.4502 O.3     1  UNL1       -0.4295
     30 C         -10.1267  -19.5175   19.7011 C.3     1  UNL1        0.2367
     31 C         -11.0581  -18.4589   20.2129 C.ar    1  UNL1        0.0213
     32 C         -11.0572  -17.0943   19.5904 C.ar    1  UNL1       -0.0007
     33 C         -11.9886  -16.0357   20.1022 C.ar    1  UNL1       -0.0002
     34 C         -12.9210  -16.3419   21.2366 C.ar    1  UNL1       -0.0000
     35 C         -12.9219  -17.7065   21.8592 C.ar    1  UNL1       -0.0002
     36 C         -11.9905  -18.7651   21.3473 C.ar    1  UNL1       -0.0007
@<TRIPOS>UNITY_ATOM_ATTR
17 1
charge -1
@<TRIPOS>BOND
     1    27    28    1
     2    28    24    1
     3    24    23    1
     4    23     1    1
     5     1     2   ar
     6     2     3   ar
     7     3    19    1
     8    19    20    1
     9    19    21    1
    10    19    22    1
    11     3     4   ar
    12     4     5   ar
    13     5     6   ar
    14     6     7    1
    15     7     8   ar
    16     8     9   ar
    17     9    15    1
    18    15    16    1
    19    16    17   ar
    20    16    18   ar
    21     9    10   ar
    22    10    11   ar
    23    11    12   ar
    24    12    13    1
    25    13    14    1
    26    24    25   am
    27    25    26    2
    28    25    29    1
    29    29    30    1
    30    30    31    1
    31    31    32   ar
    32    32    33   ar
    33    33    34   ar
    34    34    35   ar
    35    35    36   ar
    36     6     1   ar
    37    12     7   ar
    38    36    31   ar
@<TRIPOS>MOLECULE
*****
 36 38 0 0 0
SMALL
GASTEIGER

@<TRIPOS>ATOM
      1 C          -6.4651  -16.5215   23.4636 C.ar    1  UNL1       -0.0022
      2 C          -7.3660  -15.8836   24.4791 C.ar    1  UNL1        0.0012
      3 C          -6.9008  -15.7177   25.8954 C.ar    1  UNL1        0.0712
      4 C          -5.5346  -16.1897   26.2962 C.ar    1  UNL1        0.0038
      5 C          -4.6336  -16.8276   25.2808 C.ar    1  UNL1       -0.0002
      6 C          -5.0989  -16.9935   23.8644 C.ar    1  UNL1        0.0005
      7 C          -4.1979  -17.6315   22.8489 C.ar    1  UNL1        0.0334
      8 C          -2.9973  -16.8899   22.3404 C.ar    1  UNL1       -0.0009
      9 C          -2.0963  -17.5277   21.3248 C.ar    1  UNL1       -0.0164
     10 C          -2.3959  -18.9074   20.8178 C.ar    1  UNL1       -0.0008
     11 C          -3.5965  -19.6490   21.3263 C.ar    1  UNL1        0.0366
     12 C          -4.4975  -19.0110   22.3419 C.ar    1  UNL1        0.1386
     13 O          -5.6980  -19.7527   22.8504 O.3     1  UNL1       -0.4714
     14 C          -6.2543  -20.9054   22.0682 C.3     1  UNL1        0.2525
     15 C          -0.8958  -16.7861   20.8163 C.3     1  UNL1        0.0679
     16 C           0.1531  -17.5097   20.0250 C.2     1  UNL1        0.0547
     17 O          -0.1482  -17.9782   18.6322 O.co2   1  UNL1       -0.5488
     18 O           1.5034  -17.7649   20.6264 O.co2   1  UNL1       -0.5488
     19 C          -7.8018  -15.0797   26.9110 C.3     1  UNL1        0.4186
     20 F          -8.7028  -14.4418   27.9265 F       1  UNL1       -0.1659
     21 F          -8.9793  -15.3096   26.0106 F       1  UNL1       -0.1659
     22 F          -6.6243  -14.8499   27.8113 F       1  UNL1       -0.1659
     23 C          -6.9303  -16.6875   22.0472 C.3     1  UNL1        0.1234
     24 N          -8.3635  -17.0271   21.7635 N.am    1  UNL1       -0.2419
     25 C          -9.2859  -15.9828   21.2077 C.2     1  UNL1        0.4054
     26 O          -8.7751  -14.5990   20.9357 O.2     1  UNL1       -0.2262
     27 C          -9.3920  -19.2544   20.9082 C.3     1  UNL1        0.0234
     28 C          -8.8744  -18.4109   22.0355 C.3     1  UNL1        0.0971
     29 O         -10.7191  -16.3225   20.9240 O.3     1  UNL1       -0.4295
     30 C         -11.7858  -15.9614   21.9148 C.3     1  UNL1        0.2367
     31 C         -12.2053  -16.9523   22.9598 C.ar    1  UNL1        0.0213
     32 C         -13.6621  -17.2114   23.2058 C.ar    1  UNL1       -0.0007
     33 C         -14.0816  -18.2024   24.2508 C.ar    1  UNL1       -0.0002
     34 C         -13.0443  -18.9342   25.0498 C.ar    1  UNL1       -0.0000
     35 C         -11.5875  -18.6751   24.8038 C.ar    1  UNL1       -0.0002
     36 C         -11.1680  -17.6842   23.7588 C.ar    1  UNL1       -0.0007
@<TRIPOS>UNITY_ATOM_ATTR
17 1
charge -1
@<TRIPOS>BOND
     1    27    28    1
     2    28    24    1
     3    24    23    1
     4    23     1    1
     5     1     2   ar
     6     2     3   ar
     7     3    19    1
     8    19    20    1
     9    19    21    1
    10    19    22    1
    11     3     4   ar
    12     4     5   ar
    13     5     6   ar
    14     6     7    1
    15     7     8   ar
    16     8     9   ar
    17     9    15    1
    18    15    16    1
    19    16    17   ar
    20    16    18   ar
    21     9    10   ar
    22    10    11   ar
    23    11    12   ar
    24    12    13    1
    25    13    14    1
    26    24    25   am
    27    25    26    2
    28    25    29    1
    29    29    30    1
    30    30    31    1
    31    31    32   ar
    32    32    33   ar
    33    33    34   ar
    34    34    35   ar
    35    35    36   ar
    36     6     1   ar
    37    12     7   ar
    38    36    31   ar
@<TRIPOS>MOLECULE
*****
 36 38 0 0 0
SMALL
GASTEIGER

@<TRIPOS>ATOM
      1 C           4.7528   -2.1504   21.7744 C.ar    1  UNL1       -0.0022
      2 C           3.5308   -1.5601   21.1357 C.ar    1  UNL1        0.0012
      3 C           2.5911   -0.7200   21.9489 C.ar    1  UNL1        0.0712
      4 C           2.8736   -0.4703   23.4007 C.ar    1  UNL1        0.0038
      5 C           4.0957   -1.0607   24.0394 C.ar    1  UNL1       -0.0002
      6 C           5.0353   -1.9007   23.2262 C.ar    1  UNL1        0.0005
      7 C           6.2575   -2.4912   23.8649 C.ar    1  UNL1        0.0334
      8 C           6.1894   -3.8467   24.5034 C.ar    1  UNL1       -0.0009
      9 C           7.4115   -4.4372   25.1420 C.ar    1  UNL1       -0.0164
     10 C           8.7017   -3.6720   25.1422 C.ar    1  UNL1       -0.0008
     11 C           8.7697   -2.3164   24.5036 C.ar    1  UNL1        0.0366
     12 C           7.5476   -1.7260   23.8650 C.ar    1  UNL1        0.1386
     13 O           7.6156   -0.3704   23.2264 O.3     1  UNL1       -0.4714
     14 C           7.4332    0.8621   24.0617 C.3     1  UNL1        0.2525
     15 C           7.3434   -5.7928   25.7806 C.3     1  UNL1        0.0679
     16 C           7.8264   -6.9995   25.0320 C.2     1  UNL1        0.0547
     17 O           8.0883   -6.9124   23.5576 O.co2   1  UNL1       -0.5488
     18 O           8.0477   -8.2934   25.7578 O.co2   1  UNL1       -0.5488
     19 C           1.3690   -0.1296   21.3102 C.3     1  UNL1        0.4186
     20 F           0.1469    0.4607   20.6716 F       1  UNL1       -0.1659
     21 F           1.3233   -1.2731   20.3405 F       1  UNL1       -0.1659
     22 F           1.4146    1.0139   22.2799 F       1  UNL1       -0.1659
     23 C           5.6926   -2.9906   20.9612 C.3     1  UNL1        0.1234
     24 N           5.8525   -2.7294   19.4928 N.am    1  UNL1       -0.2419
     25 C           6.7498   -1.6237   19.0210 C.2     1  UNL1        0.4054
     26 O           7.4870   -0.7792   20.0177 O.2     1  UNL1       -0.2262
     27 C           4.0856   -4.5592   18.9639 C.3     1  UNL1        0.0234
     28 C           5.1153   -3.5739   18.4961 C.3     1  UNL1        0.0971
     29 O           6.9097   -1.3625   17.5526 O.3     1  UNL1       -0.4295
     30 C           6.3541   -0.1067   16.9493 C.3     1  UNL1        0.2367
     31 C           5.0882    0.4890   17.4904 C.ar    1  UNL1        0.0213
     32 C           3.7920   -0.2534   17.3546 C.ar    1  UNL1       -0.0007
     33 C           2.5262    0.3423   17.8957 C.ar    1  UNL1       -0.0002
     34 C           2.5566    1.6804   18.5727 C.ar    1  UNL1       -0.0000
     35 C           3.8528    2.4229   18.7086 C.ar    1  UNL1       -0.0002
     36 C           5.1187    1.8272   18.1675 C.ar    1  UNL1       -0.0007
@<TRIPOS>UNITY_ATOM_ATTR
17 1
charge -1
@<TRIPOS>BOND
     1    27    28    1
     2    28    24    1
     3    24    23    1
     4    23     1    1
     5     1     2   ar
     6     2     3   ar
     7     3    19    1
     8    19    20    1
     9    19    21    1
    10    19    22    1
    11     3     4   ar
    12     4     5   ar
    13     5     6   ar
    14     6     7    1
    15     7     8   ar
    16     8     9   ar
    17     9    15    1
    18    15    16    1
    19    16    17   ar
    20    16    18   ar
    21     9    10   ar
    22    10    11   ar
    23    11    12   ar
    24    12    13    1
    25    13    14    1
    26    24    25   am
    27    25    26    2
    28    25    29    1
    29    29    30    1
    30    30    31    1
    31    31    32   ar
    32    32    33   ar
    33    33    34   ar
    34    34    35   ar
    35    35    36   ar
    36     6     1   ar
    37    12     7   ar
    38    36    31   ar
@<TRIPOS>MOLECULE
*****
 36 38 0 0 0
SMALL
GASTEIGER

@<TRIPOS>ATOM
      1 C          -4.2631  -18.0962   22.1571 C.ar    1  UNL1       -0.0022
      2 C          -3.2566  -18.4180   21.0925 C.ar    1  UNL1        0.0012
      3 C          -2.0903  -17.5034   20.8620 C.ar    1  UNL1        0.0712
      4 C          -1.9304  -16.2670   21.6961 C.ar    1  UNL1        0.0038
      5 C          -2.9369  -15.9452   22.7607 C.ar    1  UNL1       -0.0002
      6 C          -4.1032  -16.8598   22.9912 C.ar    1  UNL1        0.0005
      7 C          -5.1098  -16.5380   24.0558 C.ar    1  UNL1        0.0334
      8 C          -6.4605  -16.0080   23.6753 C.ar    1  UNL1       -0.0009
      9 C          -7.4670  -15.6862   24.7399 C.ar    1  UNL1       -0.0164
     10 C          -7.1229  -15.8944   26.1850 C.ar    1  UNL1       -0.0008
     11 C          -5.7722  -16.4243   26.5655 C.ar    1  UNL1        0.0366
     12 C          -4.7656  -16.7461   25.5009 C.ar    1  UNL1        0.1386
     13 O          -3.4150  -17.2761   25.8814 O.3     1  UNL1       -0.4714
     14 C          -3.2460  -18.0567   27.1512 C.3     1  UNL1        0.2525
     15 C          -8.8177  -15.1562   24.3594 C.3     1  UNL1        0.0679
     16 C          -9.9087  -16.1034   23.9562 C.2     1  UNL1        0.0547
     17 O         -11.0679  -15.6095   23.1423 O.co2   1  UNL1       -0.5488
     18 O          -9.8406  -17.5445   24.3670 O.co2   1  UNL1       -0.5488
     19 C          -1.0837  -17.8252   19.7974 C.3     1  UNL1        0.4186
     20 F          -0.0772  -18.1469   18.7328 F       1  UNL1       -0.1659
     21 F          -0.1336  -16.8302   20.3951 F       1  UNL1       -0.1659
     22 F          -2.0339  -18.8201   19.1997 F       1  UNL1       -0.1659
     23 C          -5.4295  -19.0108   22.3876 C.3     1  UNL1        0.1234
     24 N          -6.1983  -19.5546   21.2201 N.am    1  UNL1       -0.2419
     25 C          -7.2791  -18.7309   20.5846 C.2     1  UNL1        0.4054
     26 O          -7.5909  -17.3636   21.1167 O.2     1  UNL1       -0.2262
     27 C          -4.6438  -21.1463   19.8785 C.3     1  UNL1        0.0234
     28 C          -5.8865  -20.9219   20.6880 C.3     1  UNL1        0.0971
     29 O          -8.0479  -19.2747   19.4171 O.3     1  UNL1       -0.4295
     30 C          -9.3755  -19.9374   19.6364 C.3     1  UNL1        0.2367
     31 C         -10.4802  -19.1936   20.3268 C.ar    1  UNL1        0.0213
     32 C         -11.0484  -17.9509   19.7082 C.ar    1  UNL1       -0.0007
     33 C         -12.1530  -17.2070   20.3985 C.ar    1  UNL1       -0.0002
     34 C         -12.6894  -17.7059   21.7075 C.ar    1  UNL1       -0.0000
     35 C         -12.1211  -18.9487   22.3260 C.ar    1  UNL1       -0.0002
     36 C         -11.0165  -19.6925   21.6357 C.ar    1  UNL1       -0.0007
@<TRIPOS>UNITY_ATOM_ATTR
17 1
charge -1
@<TRIPOS>BOND
     1    27    28    1
     2    28    24    1
     3    24    23    1
     4    23     1    1
     5     1     2   ar
     6     2     3   ar
     7     3    19    1
     8    19    20    1
     9    19    21    1
    10    19    22    1
    11     3     4   ar
    12     4     5   ar
    13     5     6   ar
    14     6     7    1
    15     7     8   ar
    16     8     9   ar
    17     9    15    1
    18    15    16    1
    19    16    17   ar
    20    16    18   ar
    21     9    10   ar
    22    10    11   ar
    23    11    12   ar
    24    12    13    1
    25    13    14    1
    26    24    25   am
    27    25    26    2
    28    25    29    1
    29    29    30    1
    30    30    31    1
    31    31    32   ar
    32    32    33   ar
    33    33    34   ar
    34    34    35   ar
    35    35    36   ar
    36     6     1   ar
    37    12     7   ar
    38    36    31   ar
@<TRIPOS>MOLECULE
*****
 36 38 0 0 0
SMALL
GASTEIGER

@<TRIPOS>ATOM
      1 C          -1.9453    3.5286   24.4927 C.ar    1  UNL1       -0.0022
      2 C          -3.0186    3.7888   23.4776 C.ar    1  UNL1        0.0012
      3 C          -4.4475    3.9212   23.9142 C.ar    1  UNL1        0.0712
      4 C          -4.8032    3.7934   25.3658 C.ar    1  UNL1        0.0038
      5 C          -3.7300    3.5332   26.3808 C.ar    1  UNL1       -0.0002
      6 C          -2.3010    3.4008   25.9443 C.ar    1  UNL1        0.0005
      7 C          -1.2277    3.1406   26.9594 C.ar    1  UNL1        0.0334
      8 C          -0.9974    1.7481   27.4672 C.ar    1  UNL1       -0.0009
      9 C           0.0759    1.4879   28.4823 C.ar    1  UNL1       -0.0164
     10 C           0.9189    2.6202   28.9896 C.ar    1  UNL1       -0.0008
     11 C           0.6886    4.0127   28.4818 C.ar    1  UNL1        0.0366
     12 C          -0.3848    4.2729   27.4667 C.ar    1  UNL1        0.1386
     13 O          -0.6151    5.6654   26.9589 O.3     1  UNL1       -0.4714
     14 C          -1.5277    6.5940   27.7038 C.3     1  UNL1        0.2525
     15 C           0.3062    0.0954   28.9901 C.3     1  UNL1        0.0679
     16 C           1.6963   -0.3634   29.3170 C.2     1  UNL1        0.0547
     17 O           2.6200   -0.7996   28.2185 O.co2   1  UNL1       -0.5488
     18 O           2.1630   -0.3859   30.7424 O.co2   1  UNL1       -0.5488
     19 C          -5.5208    4.1814   22.8991 C.3     1  UNL1        0.4186
     20 F          -6.5941    4.4416   21.8840 F       1  UNL1       -0.1659
     21 F          -5.8491    5.4777   23.5786 F       1  UNL1       -0.1659
     22 F          -5.1925    2.8851   22.2195 F       1  UNL1       -0.1659
     23 C          -0.5163    3.3962   24.0562 C.3     1  UNL1        0.1234
     24 N          -0.0273    2.1042   23.4717 N.am    1  UNL1       -0.2419
     25 C          -0.1352    1.8605   21.9955 C.2     1  UNL1        0.4054
     26 O          -0.7321    2.9088   21.1039 O.2     1  UNL1       -0.2262
     27 C           1.8204    1.3524   25.1362 C.3     1  UNL1        0.0234
     28 C           0.5695    1.0560   24.3632 C.3     1  UNL1        0.0971
     29 O           0.3537    0.5685   21.4109 O.3     1  UNL1       -0.4295
     30 C           1.7148    0.4963   20.7846 C.3     1  UNL1        0.2367
     31 C           2.6010   -0.6843   21.0505 C.ar    1  UNL1        0.0213
     32 C           3.1232   -0.9335   22.4344 C.ar    1  UNL1       -0.0007
     33 C           4.0095   -2.1141   22.7004 C.ar    1  UNL1       -0.0002
     34 C           4.3736   -3.0455   21.5824 C.ar    1  UNL1       -0.0000
     35 C           3.8514   -2.7963   20.1985 C.ar    1  UNL1       -0.0002
     36 C           2.9651   -1.6157   19.9326 C.ar    1  UNL1       -0.0007
@<TRIPOS>UNITY_ATOM_ATTR
17 1
charge -1
@<TRIPOS>BOND
     1    27    28    1
     2    28    24    1
     3    24    23    1
     4    23     1    1
     5     1     2   ar
     6     2     3   ar
     7     3    19    1
     8    19    20    1
     9    19    21    1
    10    19    22    1
    11     3     4   ar
    12     4     5   ar
    13     5     6   ar
    14     6     7    1
    15     7     8   ar
    16     8     9   ar
    17     9    15    1
    18    15    16    1
    19    16    17   ar
    20    16    18   ar
    21     9    10   ar
    22    10    11   ar
    23    11    12   ar
    24    12    13    1
    25    13    14    1
    26    24    25   am
    27    25    26    2
    28    25    29    1
    29    29    30    1
    30    30    31    1
    31    31    32   ar
    32    32    33   ar
    33    33    34   ar
    34    34    35   ar
    35    35    36   ar
    36     6     1   ar
    37    12     7   ar
    38    36    31   ar
@<TRIPOS>MOLECULE
*****
 36 38 0 0 0
SMALL
GASTEIGER

@<TRIPOS>ATOM
      1 C           2.2986   -0.7559   19.7497 C.ar    1  UNL1       -0.0022
      2 C           2.8670   -2.1440   19.7406 C.ar    1  UNL1        0.0012
      3 C           3.8968   -2.5260   18.7190 C.ar    1  UNL1        0.0712
      4 C           4.3581   -1.5199   17.7066 C.ar    1  UNL1        0.0038
      5 C           3.7897   -0.1318   17.7158 C.ar    1  UNL1       -0.0002
      6 C           2.7600    0.2502   18.7373 C.ar    1  UNL1        0.0005
      7 C           2.1915    1.6383   18.7465 C.ar    1  UNL1        0.0334
      8 C           0.8657    1.9101   18.0997 C.ar    1  UNL1       -0.0009
      9 C           0.2973    3.2982   18.1089 C.ar    1  UNL1       -0.0164
     10 C           1.0546    4.4145   18.7649 C.ar    1  UNL1       -0.0008
     11 C           2.3804    4.1427   19.4117 C.ar    1  UNL1        0.0366
     12 C           2.9489    2.7546   19.4025 C.ar    1  UNL1        0.1386
     13 O           4.2747    2.4828   20.0493 O.3     1  UNL1       -0.4714
     14 C           5.5440    2.8677   19.3486 C.3     1  UNL1        0.2525
     15 C          -1.0286    3.5700   17.4621 C.3     1  UNL1        0.0679
     16 C          -2.1026    4.2865   18.2255 C.2     1  UNL1        0.0547
     17 O          -2.6216    3.7105   19.5097 O.co2   1  UNL1       -0.5488
     18 O          -2.6578    5.5791   17.7049 O.co2   1  UNL1       -0.5488
     19 C           4.4652   -3.9141   18.7098 C.3     1  UNL1        0.4186
     20 F           5.0337   -5.3021   18.7006 F       1  UNL1       -0.1659
     21 F           5.8180   -3.3579   18.3773 F       1  UNL1       -0.1659
     22 F           3.1124   -4.4703   19.0423 F       1  UNL1       -0.1659
     23 C           1.2688   -0.3738   20.7713 C.3     1  UNL1        0.1234
     24 N           1.6124    0.6084   21.8516 N.am    1  UNL1       -0.2419
     25 C           0.6933    1.7583   22.1399 C.2     1  UNL1        0.4054
     26 O          -0.5695    1.9258   21.3479 O.2     1  UNL1       -0.2262
     27 C           3.0718   -0.7803   23.4923 C.3     1  UNL1        0.0234
     28 C           2.8752    0.4408   22.6436 C.3     1  UNL1        0.0971
     29 O           1.0369    2.7405   23.2203 O.3     1  UNL1       -0.4295
     30 C           0.0636    3.0055   24.3303 C.3     1  UNL1        0.2367
     31 C           0.1725    2.2477   25.6202 C.ar    1  UNL1        0.0213
     32 C           1.4638    1.5810   25.9917 C.ar    1  UNL1       -0.0007
     33 C           1.5727    0.8232   27.2816 C.ar    1  UNL1       -0.0002
     34 C           0.3903    0.7320   28.2000 C.ar    1  UNL1       -0.0000
     35 C          -0.9010    1.3987   27.8286 C.ar    1  UNL1       -0.0002
     36 C          -1.0099    2.1565   26.5387 C.ar    1  UNL1       -0.0007
@<TRIPOS>UNITY_ATOM_ATTR
17 1
charge -1
@<TRIPOS>BOND
     1    27    28    1
     2    28    24    1
     3    24    23    1
     4    23     1    1
     5     1     2   ar
     6     2     3   ar
     7     3    19    1
     8    19    20    1
     9    19    21    1
    10    19    22    1
    11     3     4   ar
    12     4     5   ar
    13     5     6   ar
    14     6     7    1
    15     7     8   ar
    16     8     9   ar
    17     9    15    1
    18    15    16    1
    19    16    17   ar
    20    16    18   ar
    21     9    10   ar
    22    10    11   ar
    23    11    12   ar
    24    12    13    1
    25    13    14    1
    26    24    25   am
    27    25    26    2
    28    25    29    1
    29    29    30    1
    30    30    31    1
    31    31    32   ar
    32    32    33   ar
    33    33    34   ar
    34    34    35   ar
    35    35    36   ar
    36     6     1   ar
    37    12     7   ar
    38    36    31   ar
