@<TRIPOS>MOLECULE
*****
 32 35 0 0 0
SMALL
GASTEIGER

@<TRIPOS>ATOM
      1 C          -1.9535    4.3953   18.4633 C.2     1  UNL1        0.2534
      2 O          -2.0309    3.9550   17.0315 O.2     1  UNL1       -0.2695
      3 N          -0.6183    4.6383   19.1022 N.am    1  UNL1       -0.2965
      4 H          -0.5675    4.9272   20.0419 H       1  UNL1        0.1501
      5 C          -7.8950    4.4796   23.5931 C.3     1  UNL1        0.0537
      6 C          -7.0658    4.7733   22.3782 C.ar    1  UNL1        0.0771
      7 N          -7.5860    5.7024   21.3218 N.ar    1  UNL1       -0.1522
      8 N          -6.7567    5.9962   20.1068 N.ar    1  UNL1       -0.1416
      9 C          -5.4073    5.3608   19.9483 C.ar    1  UNL1        0.1333
     10 S          -4.3717    5.4602   18.8677 S.2     1  UNL1       -0.0604
     11 C          -3.2114    4.5926   19.2563 C.ar    1  UNL1        0.0971
     12 C          -3.5299    3.9568   20.5771 C.ar    1  UNL1        0.0538
     13 N          -2.6465    3.0122   21.3368 N.pl3   1  UNL1       -0.3564
     14 C          -4.8871    4.4316   21.0047 C.ar    1  UNL1        0.0363
     15 C          -5.7163    4.1379   22.2197 C.ar    1  UNL1       -0.0033
     16 C          -5.1960    3.2087   23.2761 C.3     1  UNL1        0.0324
     17 H          -1.7679    2.7587   20.9719 H       1  UNL1        0.1424
     18 H          -2.9452    2.6456   22.2003 H       1  UNL1        0.1424
     19 C           0.6395    4.4410   18.3092 C.3     1  UNL1        0.1166
     20 C           1.3807    3.1393   18.3899 C.ar    1  UNL1       -0.0026
     21 C           2.8742    3.1341   18.5290 C.ar    1  UNL1       -0.0026
     22 C           3.6153    1.8325   18.6097 C.ar    1  UNL1       -0.0001
     23 C           2.8629    0.5361   18.5513 C.ar    1  UNL1        0.0037
     24 C           1.3694    0.5414   18.4122 C.ar    1  UNL1       -0.0001
     25 C           0.6283    1.8430   18.3314 C.ar    1  UNL1       -0.0026
     26 C           3.6040   -0.7655   18.6320 C.ar    1  UNL1        0.0460
     27 C           3.3595   -1.6978   19.7813 C.ar    1  UNL1        0.0054
     28 C           4.1006   -2.9995   19.8621 C.ar    1  UNL1        0.0208
     29 C           5.0863   -3.3688   18.7934 C.ar    1  UNL1        0.1013
     30 N           5.3309   -2.4364   17.6440 N.ar    1  UNL1       -0.2165
     31 C           4.5897   -1.1348   17.5634 C.ar    1  UNL1        0.2222
     32 F           4.8343   -0.2025   16.4140 F       1  UNL1       -0.1832
@<TRIPOS>BOND
     1     5     6    1
     2     6     7   ar
     3     7     8   ar
     4     8     9   ar
     5     9    10   ar
     6    10    11   ar
     7    11     1    1
     8     1     2    2
     9     1     3   am
    10     3    19    1
    11    19    20    1
    12    20    21   ar
    13    21    22   ar
    14    22    23   ar
    15    23    26    1
    16    26    27   ar
    17    27    28   ar
    18    28    29   ar
    19    29    30   ar
    20    30    31   ar
    21    31    32    1
    22    23    24   ar
    23    24    25   ar
    24    11    12   ar
    25    12    13    1
    26    12    14   ar
    27    14    15   ar
    28    15    16    1
    29    15     6   ar
    30    14     9   ar
    31    25    20   ar
    32    31    26   ar
    33     3     4    1
    34    13    17    1
    35    13    18    1
@<TRIPOS>MOLECULE
*****
 32 35 0 0 0
SMALL
GASTEIGER

@<TRIPOS>ATOM
      1 C         -14.1534   -0.4077   18.8610 C.2     1  UNL1        0.2534
      2 O         -13.1907    0.7150   18.6104 O.2     1  UNL1       -0.2695
      3 N         -15.6097   -0.1145   19.0689 N.am    1  UNL1       -0.2965
      4 H         -16.2416   -0.8514   19.2334 H       1  UNL1        0.1501
      5 C         -10.2141   -7.1978   18.8650 C.3     1  UNL1        0.0537
      6 C         -11.3434   -6.2131   18.9357 C.ar    1  UNL1        0.0771
      7 N         -12.7471   -6.6959   19.1512 N.ar    1  UNL1       -0.1522
      8 N         -13.8764   -5.7112   19.2220 N.ar    1  UNL1       -0.1416
      9 C         -13.6021   -4.2437   19.0772 C.ar    1  UNL1        0.1333
     10 S         -14.5053   -3.0464   19.1032 S.2     1  UNL1       -0.0604
     11 C         -13.6598   -1.8235   18.9037 C.ar    1  UNL1        0.0971
     12 C         -12.2340   -2.2650   18.7545 C.ar    1  UNL1        0.0538
     13 N         -11.0516   -1.3683   18.5363 N.pl3   1  UNL1       -0.3564
     14 C         -12.1984   -3.7608   18.8617 C.ar    1  UNL1        0.0363
     15 C         -11.0691   -4.7455   18.7910 C.ar    1  UNL1       -0.0033
     16 C          -9.6653   -4.2626   18.5755 C.3     1  UNL1        0.0324
     17 H         -11.1769   -0.3935   18.4795 H       1  UNL1        0.1424
     18 H         -10.1501   -1.7546   18.4500 H       1  UNL1        0.1424
     19 C         -16.1033    1.3013   19.0262 C.3     1  UNL1        0.1166
     20 C         -16.3128    2.0614   20.3023 C.ar    1  UNL1       -0.0026
     21 C         -17.0911    1.4420   21.4250 C.ar    1  UNL1       -0.0026
     22 C         -17.3006    2.2021   22.7011 C.ar    1  UNL1       -0.0001
     23 C         -16.7318    3.5816   22.8544 C.ar    1  UNL1        0.0037
     24 C         -15.9534    4.2009   21.7317 C.ar    1  UNL1       -0.0001
     25 C         -15.7440    3.4408   20.4556 C.ar    1  UNL1       -0.0026
     26 C         -16.9413    4.3417   24.1305 C.ar    1  UNL1        0.0460
     27 C         -18.3301    4.6944   24.5740 C.ar    1  UNL1        0.0054
     28 C         -18.5396    5.4545   25.8501 C.ar    1  UNL1        0.0208
     29 C         -17.3603    5.8618   26.6827 C.ar    1  UNL1        0.1013
     30 N         -15.9714    5.5090   26.2392 N.ar    1  UNL1       -0.2165
     31 C         -15.7619    4.7490   24.9631 C.ar    1  UNL1        0.2222
     32 F         -14.3730    4.3962   24.5196 F       1  UNL1       -0.1832
@<TRIPOS>BOND
     1     5     6    1
     2     6     7   ar
     3     7     8   ar
     4     8     9   ar
     5     9    10   ar
     6    10    11   ar
     7    11     1    1
     8     1     2    2
     9     1     3   am
    10     3    19    1
    11    19    20    1
    12    20    21   ar
    13    21    22   ar
    14    22    23   ar
    15    23    26    1
    16    26    27   ar
    17    27    28   ar
    18    28    29   ar
    19    29    30   ar
    20    30    31   ar
    21    31    32    1
    22    23    24   ar
    23    24    25   ar
    24    11    12   ar
    25    12    13    1
    26    12    14   ar
    27    14    15   ar
    28    15    16    1
    29    15     6   ar
    30    14     9   ar
    31    25    20   ar
    32    31    26   ar
    33     3     4    1
    34    13    17    1
    35    13    18    1
@<TRIPOS>MOLECULE
*****
 32 35 0 0 0
SMALL
GASTEIGER

@<TRIPOS>ATOM
      1 C         -15.0848   -1.4084   19.1216 C.2     1  UNL1        0.2534
      2 O         -16.4144   -1.9287   19.5814 O.2     1  UNL1       -0.2695
      3 N         -14.9325    0.0371   18.7509 N.am    1  UNL1       -0.2965
      4 H         -14.0599    0.3786   18.4491 H       1  UNL1        0.1501
      5 C          -9.9525   -7.3400   18.8057 C.3     1  UNL1        0.0537
      6 C         -10.5142   -5.9491   18.8122 C.ar    1  UNL1        0.0771
      7 N          -9.5982   -4.7697   18.6709 N.ar    1  UNL1       -0.1522
      8 N         -10.1598   -3.3789   18.6774 N.ar    1  UNL1       -0.1416
      9 C         -11.6375   -3.1674   18.8251 C.ar    1  UNL1        0.1333
     10 S         -12.4742   -1.9231   18.8661 S.2     1  UNL1       -0.0604
     11 C         -13.9073   -2.3335   19.0326 C.ar    1  UNL1        0.0971
     12 C         -13.9563   -3.8314   19.0946 C.ar    1  UNL1        0.0538
     13 N         -15.1913   -4.6672   19.2564 N.pl3   1  UNL1       -0.3564
     14 C         -12.5534   -4.3468   18.9663 C.ar    1  UNL1        0.0363
     15 C         -11.9918   -5.7376   18.9599 C.ar    1  UNL1       -0.0033
     16 C         -12.9078   -6.9171   19.1011 C.3     1  UNL1        0.0324
     17 H         -16.0722   -4.2343   19.3328 H       1  UNL1        0.1424
     18 H         -15.1210   -5.6488   19.2862 H       1  UNL1        0.1424
     19 C         -16.1099    0.9621   18.8399 C.3     1  UNL1        0.1166
     20 C         -16.3411    1.7641   20.0863 C.ar    1  UNL1       -0.0026
     21 C         -17.1117    1.1703   21.2281 C.ar    1  UNL1       -0.0026
     22 C         -17.3428    1.9722   22.4744 C.ar    1  UNL1       -0.0001
     23 C         -16.8035    3.3680   22.5790 C.ar    1  UNL1        0.0037
     24 C         -16.0330    3.9618   21.4372 C.ar    1  UNL1       -0.0001
     25 C         -15.8018    3.1599   20.1909 C.ar    1  UNL1       -0.0026
     26 C         -17.0347    4.1699   23.8254 C.ar    1  UNL1        0.0460
     27 C         -18.4336    4.4427   24.2930 C.ar    1  UNL1        0.0054
     28 C         -18.6648    5.2447   25.5394 C.ar    1  UNL1        0.0208
     29 C         -17.4971    5.7738   26.3182 C.ar    1  UNL1        0.1013
     30 N         -16.0981    5.5009   25.8505 N.ar    1  UNL1       -0.2165
     31 C         -15.8670    4.6990   24.6042 C.ar    1  UNL1        0.2222
     32 F         -14.4681    4.4262   24.1365 F       1  UNL1       -0.1832
@<TRIPOS>BOND
     1     5     6    1
     2     6     7   ar
     3     7     8   ar
     4     8     9   ar
     5     9    10   ar
     6    10    11   ar
     7    11     1    1
     8     1     2    2
     9     1     3   am
    10     3    19    1
    11    19    20    1
    12    20    21   ar
    13    21    22   ar
    14    22    23   ar
    15    23    26    1
    16    26    27   ar
    17    27    28   ar
    18    28    29   ar
    19    29    30   ar
    20    30    31   ar
    21    31    32    1
    22    23    24   ar
    23    24    25   ar
    24    11    12   ar
    25    12    13    1
    26    12    14   ar
    27    14    15   ar
    28    15    16    1
    29    15     6   ar
    30    14     9   ar
    31    25    20   ar
    32    31    26   ar
    33     3     4    1
    34    13    17    1
    35    13    18    1
@<TRIPOS>MOLECULE
*****
 32 35 0 0 0
SMALL
GASTEIGER

@<TRIPOS>ATOM
      1 C          -2.8123    3.6321   21.2361 C.2     1  UNL1        0.2534
      2 O          -3.6828    3.7657   20.0219 O.2     1  UNL1       -0.2695
      3 N          -1.3962    3.1580   21.0952 N.am    1  UNL1       -0.2965
      4 H          -0.8248    3.0703   21.8921 H       1  UNL1        0.1501
      5 C          -6.7595    6.1063   27.5544 C.3     1  UNL1        0.0537
      6 C          -5.7146    5.4488   26.7024 C.ar    1  UNL1        0.0771
      7 N          -4.5698    4.7237   27.3454 N.ar    1  UNL1       -0.1522
      8 N          -3.5250    4.0662   26.4933 N.ar    1  UNL1       -0.1416
      9 C          -3.6249    4.1339   24.9982 C.ar    1  UNL1        0.1333
     10 S          -2.7523    3.5860   23.9081 S.2     1  UNL1       -0.0604
     11 C          -3.3579    3.9726   22.5913 C.ar    1  UNL1        0.0971
     12 C          -4.6047    4.7594   22.8676 C.ar    1  UNL1        0.0538
     13 N          -5.5249    5.3438   21.8373 N.pl3   1  UNL1       -0.3564
     14 C          -4.7697    4.8591   24.3552 C.ar    1  UNL1        0.0363
     15 C          -5.8146    5.5165   25.2073 C.ar    1  UNL1       -0.0033
     16 C          -6.9594    6.2417   24.5641 C.3     1  UNL1        0.0324
     17 H          -5.3309    5.2242   20.8795 H       1  UNL1        0.1424
     18 H          -6.3229    5.8471   22.1188 H       1  UNL1        0.1424
     19 C          -0.8507    2.8175   19.7400 C.3     1  UNL1        0.1166
     20 C           0.2320    1.7881   19.6043 C.ar    1  UNL1       -0.0026
     21 C           0.1878    0.5393   20.4340 C.ar    1  UNL1       -0.0026
     22 C           1.2705   -0.4899   20.2983 C.ar    1  UNL1       -0.0001
     23 C           2.3972   -0.2704   19.3327 C.ar    1  UNL1        0.0037
     24 C           2.4414    0.9784   18.5030 C.ar    1  UNL1       -0.0001
     25 C           1.3587    2.0077   18.6388 C.ar    1  UNL1       -0.0026
     26 C           3.4799   -1.2998   19.1970 C.ar    1  UNL1        0.0460
     27 C           3.9287   -2.0790   20.3975 C.ar    1  UNL1        0.0054
     28 C           5.0113   -3.1084   20.2618 C.ar    1  UNL1        0.0208
     29 C           5.6451   -3.3584   18.9255 C.ar    1  UNL1        0.1013
     30 N           5.1963   -2.5791   17.7249 N.ar    1  UNL1       -0.2165
     31 C           4.1137   -1.5498   17.8607 C.ar    1  UNL1        0.2222
     32 F           3.6649   -0.7705   16.6601 F       1  UNL1       -0.1832
@<TRIPOS>BOND
     1     5     6    1
     2     6     7   ar
     3     7     8   ar
     4     8     9   ar
     5     9    10   ar
     6    10    11   ar
     7    11     1    1
     8     1     2    2
     9     1     3   am
    10     3    19    1
    11    19    20    1
    12    20    21   ar
    13    21    22   ar
    14    22    23   ar
    15    23    26    1
    16    26    27   ar
    17    27    28   ar
    18    28    29   ar
    19    29    30   ar
    20    30    31   ar
    21    31    32    1
    22    23    24   ar
    23    24    25   ar
    24    11    12   ar
    25    12    13    1
    26    12    14   ar
    27    14    15   ar
    28    15    16    1
    29    15     6   ar
    30    14     9   ar
    31    25    20   ar
    32    31    26   ar
    33     3     4    1
    34    13    17    1
    35    13    18    1
@<TRIPOS>MOLECULE
*****
 32 35 0 0 0
SMALL
GASTEIGER

@<TRIPOS>ATOM
      1 C           7.1128   -4.2555   25.8349 C.2     1  UNL1        0.2534
      2 O           8.4806   -3.7453   26.1798 O.2     1  UNL1       -0.2695
      3 N           6.3674   -5.1201   26.8079 N.am    1  UNL1       -0.2965
      4 H           5.4697   -5.4549   26.5814 H       1  UNL1        0.1501
      5 C           2.9894   -1.4812   19.7583 C.3     1  UNL1        0.0537
      6 C           3.9917   -2.2649   20.5527 C.ar    1  UNL1        0.0771
      7 N           4.9186   -3.2184   19.8587 N.ar    1  UNL1       -0.1522
      8 N           5.9210   -4.0022   20.6532 N.ar    1  UNL1       -0.1416
      9 C           5.9964   -3.8324   22.1416 C.ar    1  UNL1        0.1333
     10 S           6.8746   -4.4641   23.1806 S.2     1  UNL1       -0.0604
     11 C           6.4905   -3.9010   24.5168 C.ar    1  UNL1        0.0971
     12 C           5.3749   -2.9213   24.3036 C.ar    1  UNL1        0.0538
     13 N           4.6857   -2.1239   25.3709 N.pl3   1  UNL1       -0.3564
     14 C           5.0696   -2.8789   22.8356 C.ar    1  UNL1        0.0363
     15 C           4.0672   -2.0951   22.0411 C.ar    1  UNL1       -0.0033
     16 C           3.1403   -1.1416   22.7352 C.3     1  UNL1        0.0324
     17 H           4.9587   -2.2214   26.3118 H       1  UNL1        0.1424
     18 H           3.9603   -1.5032   25.1306 H       1  UNL1        0.1424
     19 C           6.9897   -5.4745   28.1258 C.3     1  UNL1        0.1166
     20 C           6.7947   -4.5780   29.3126 C.ar    1  UNL1       -0.0026
     21 C           6.9475   -5.1268   30.7002 C.ar    1  UNL1       -0.0026
     22 C           6.7525   -4.2303   31.8869 C.ar    1  UNL1       -0.0001
     23 C           6.4047   -2.7851   31.6860 C.ar    1  UNL1        0.0037
     24 C           6.2519   -2.2363   30.2984 C.ar    1  UNL1       -0.0001
     25 C           6.4469   -3.1328   29.1117 C.ar    1  UNL1       -0.0026
     26 C           6.2097   -1.8886   32.8727 C.ar    1  UNL1        0.0460
     27 C           7.3010   -0.9475   33.2891 C.ar    1  UNL1        0.0054
     28 C           7.1060   -0.0510   34.4759 C.ar    1  UNL1        0.0208
     29 C           5.8197   -0.0957   35.2462 C.ar    1  UNL1        0.1013
     30 N           4.7283   -1.0369   34.8298 N.ar    1  UNL1       -0.2165
     31 C           4.9234   -1.9333   33.6431 C.ar    1  UNL1        0.2222
     32 F           3.8321   -2.8744   33.2266 F       1  UNL1       -0.1832
@<TRIPOS>BOND
     1     5     6    1
     2     6     7   ar
     3     7     8   ar
     4     8     9   ar
     5     9    10   ar
     6    10    11   ar
     7    11     1    1
     8     1     2    2
     9     1     3   am
    10     3    19    1
    11    19    20    1
    12    20    21   ar
    13    21    22   ar
    14    22    23   ar
    15    23    26    1
    16    26    27   ar
    17    27    28   ar
    18    28    29   ar
    19    29    30   ar
    20    30    31   ar
    21    31    32    1
    22    23    24   ar
    23    24    25   ar
    24    11    12   ar
    25    12    13    1
    26    12    14   ar
    27    14    15   ar
    28    15    16    1
    29    15     6   ar
    30    14     9   ar
    31    25    20   ar
    32    31    26   ar
    33     3     4    1
    34    13    17    1
    35    13    18    1
@<TRIPOS>MOLECULE
*****
 32 35 0 0 0
SMALL
GASTEIGER

@<TRIPOS>ATOM
      1 C          -1.1867    3.4471   20.1637 C.2     1  UNL1        0.2534
      2 O          -0.0442    3.7016   21.1017 O.2     1  UNL1       -0.2695
      3 N          -0.9226    2.9097   18.7884 N.am    1  UNL1       -0.2965
      4 H          -1.6725    2.7427   18.1728 H       1  UNL1        0.1501
      5 C          -8.0113    4.6861   23.8398 C.3     1  UNL1        0.0537
      6 C          -6.9938    4.5481   22.7463 C.ar    1  UNL1        0.0771
      7 N          -7.3952    4.7620   21.3170 N.ar    1  UNL1       -0.1522
      8 N          -6.3777    4.6240   20.2235 N.ar    1  UNL1       -0.1416
      9 C          -4.9588    4.2721   20.5594 C.ar    1  UNL1        0.1333
     10 S          -3.7450    4.0692   19.7018 S.2     1  UNL1       -0.0604
     11 C          -2.5934    3.7299   20.6011 C.ar    1  UNL1        0.0971
     12 C          -3.0955    3.7231   22.0146 C.ar    1  UNL1        0.0538
     13 N          -2.2791    3.4323   23.2388 N.pl3   1  UNL1       -0.3564
     14 C          -4.5574    4.0582   21.9888 C.ar    1  UNL1        0.0363
     15 C          -5.5749    4.1962   23.0822 C.ar    1  UNL1       -0.0033
     16 C          -5.1735    3.9823   24.5116 C.3     1  UNL1        0.0324
     17 H          -1.3213    3.2215   23.1531 H       1  UNL1        0.1424
     18 H          -2.7011    3.4522   24.1281 H       1  UNL1        0.1424
     19 C           0.4840    2.6269   18.3511 C.3     1  UNL1        0.1166
     20 C           1.2566    1.5090   18.9864 C.ar    1  UNL1       -0.0026
     21 C           0.5379    0.4521   19.7715 C.ar    1  UNL1       -0.0026
     22 C           1.3104   -0.6657   20.4068 C.ar    1  UNL1       -0.0001
     23 C           2.8017   -0.7266   20.2570 C.ar    1  UNL1        0.0037
     24 C           3.5204    0.3303   19.4719 C.ar    1  UNL1       -0.0001
     25 C           2.7478    1.4481   18.8366 C.ar    1  UNL1       -0.0026
     26 C           3.5742   -1.8445   20.8923 C.ar    1  UNL1        0.0460
     27 C           3.8732   -1.8092   22.3617 C.ar    1  UNL1        0.0054
     28 C           4.6457   -2.9270   22.9971 C.ar    1  UNL1        0.0208
     29 C           5.1193   -4.0802   22.1628 C.ar    1  UNL1        0.1013
     30 N           4.8203   -4.1155   20.6933 N.ar    1  UNL1       -0.2165
     31 C           4.0478   -2.9977   20.0581 C.ar    1  UNL1        0.2222
     32 F           3.7488   -3.0329   18.5885 F       1  UNL1       -0.1832
@<TRIPOS>BOND
     1     5     6    1
     2     6     7   ar
     3     7     8   ar
     4     8     9   ar
     5     9    10   ar
     6    10    11   ar
     7    11     1    1
     8     1     2    2
     9     1     3   am
    10     3    19    1
    11    19    20    1
    12    20    21   ar
    13    21    22   ar
    14    22    23   ar
    15    23    26    1
    16    26    27   ar
    17    27    28   ar
    18    28    29   ar
    19    29    30   ar
    20    30    31   ar
    21    31    32    1
    22    23    24   ar
    23    24    25   ar
    24    11    12   ar
    25    12    13    1
    26    12    14   ar
    27    14    15   ar
    28    15    16    1
    29    15     6   ar
    30    14     9   ar
    31    25    20   ar
    32    31    26   ar
    33     3     4    1
    34    13    17    1
    35    13    18    1
@<TRIPOS>MOLECULE
*****
 32 35 0 0 0
SMALL
GASTEIGER

@<TRIPOS>ATOM
      1 C          -1.8523    3.2163   20.2028 C.2     1  UNL1        0.2534
      2 O          -1.9457    3.9929   18.9229 O.2     1  UNL1       -0.2695
      3 N          -0.8267    2.1315   20.3487 N.am    1  UNL1       -0.2965
      4 H          -0.7654    1.6218   21.1888 H       1  UNL1        0.1501
      5 C          -5.4671    5.0874   26.9152 C.3     1  UNL1        0.0537
      6 C          -5.2470    4.6765   25.4895 C.ar    1  UNL1        0.0771
      7 N          -6.4215    4.3884   24.6021 N.ar    1  UNL1       -0.1522
      8 N          -6.2013    3.9774   23.1763 N.ar    1  UNL1       -0.1416
      9 C          -4.8067    3.8546   22.6380 C.ar    1  UNL1        0.1333
     10 S          -4.2829    3.4725   21.2854 S.2     1  UNL1       -0.0604
     11 C          -2.7847    3.5245   21.3368 C.ar    1  UNL1        0.0971
     12 C          -2.3825    3.9387   22.7212 C.ar    1  UNL1        0.0538
     13 N          -0.9774    4.1175   23.2148 N.pl3   1  UNL1       -0.3564
     14 C          -3.6322    4.1427   23.5254 C.ar    1  UNL1        0.0363
     15 C          -3.8524    4.5537   24.9511 C.ar    1  UNL1       -0.0033
     16 C          -2.6778    4.8418   25.8385 C.3     1  UNL1        0.0324
     17 H          -0.2185    3.9590   22.6079 H       1  UNL1        0.1424
     18 H          -0.8140    4.3934   24.1456 H       1  UNL1        0.1424
     19 C           0.1055    1.8234   19.2148 C.3     1  UNL1        0.1166
     20 C           1.1965    0.8097   19.3950 C.ar    1  UNL1       -0.0026
     21 C           2.1640    0.5429   18.2802 C.ar    1  UNL1       -0.0026
     22 C           3.2548   -0.4707   18.4604 C.ar    1  UNL1       -0.0001
     23 C           3.3782   -1.2175   19.7554 C.ar    1  UNL1        0.0037
     24 C           2.4107   -0.9507   20.8702 C.ar    1  UNL1       -0.0001
     25 C           1.3199    0.0629   20.6900 C.ar    1  UNL1       -0.0026
     26 C           4.4691   -2.2312   19.9356 C.ar    1  UNL1        0.0460
     27 C           5.7942   -1.8143   20.5015 C.ar    1  UNL1        0.0054
     28 C           6.8852   -2.8280   20.6817 C.ar    1  UNL1        0.0208
     29 C           6.6509   -4.2585   20.2960 C.ar    1  UNL1        0.1013
     30 N           5.3257   -4.6754   19.7301 N.ar    1  UNL1       -0.2165
     31 C           4.2349   -3.6617   19.5499 C.ar    1  UNL1        0.2222
     32 F           2.9097   -4.0785   18.9840 F       1  UNL1       -0.1832
@<TRIPOS>BOND
     1     5     6    1
     2     6     7   ar
     3     7     8   ar
     4     8     9   ar
     5     9    10   ar
     6    10    11   ar
     7    11     1    1
     8     1     2    2
     9     1     3   am
    10     3    19    1
    11    19    20    1
    12    20    21   ar
    13    21    22   ar
    14    22    23   ar
    15    23    26    1
    16    26    27   ar
    17    27    28   ar
    18    28    29   ar
    19    29    30   ar
    20    30    31   ar
    21    31    32    1
    22    23    24   ar
    23    24    25   ar
    24    11    12   ar
    25    12    13    1
    26    12    14   ar
    27    14    15   ar
    28    15    16    1
    29    15     6   ar
    30    14     9   ar
    31    25    20   ar
    32    31    26   ar
    33     3     4    1
    34    13    17    1
    35    13    18    1
@<TRIPOS>MOLECULE
*****
 32 35 0 0 0
SMALL
GASTEIGER

@<TRIPOS>ATOM
      1 C           7.1386   -4.9587   30.1637 C.2     1  UNL1        0.2534
      2 O           6.8069   -6.1088   31.0677 O.2     1  UNL1       -0.2695
      3 N           7.3033   -3.5807   30.7328 N.am    1  UNL1       -0.2965
      4 H           7.5210   -2.8259   30.1394 H       1  UNL1        0.1501
      5 C           8.8452   -7.3339   22.8787 C.3     1  UNL1        0.0537
      6 C           8.2763   -6.5343   24.0132 C.ar    1  UNL1        0.0771
      7 N           7.4277   -5.3301   23.7307 N.ar    1  UNL1       -0.1522
      8 N           6.8588   -4.5306   24.8652 N.ar    1  UNL1       -0.1416
      9 C           7.1384   -4.9353   26.2822 C.ar    1  UNL1        0.1333
     10 S           6.7174   -4.3464   27.5960 S.2     1  UNL1       -0.0604
     11 C           7.3057   -5.1867   28.6905 C.ar    1  UNL1        0.0971
     12 C           8.0903   -6.2949   28.0532 C.ar    1  UNL1        0.0538
     13 N           8.8457   -7.3698   28.7771 N.pl3   1  UNL1       -0.3564
     14 C           7.9869   -6.1395   26.5648 C.ar    1  UNL1        0.0363
     15 C           8.5559   -6.9390   25.4303 C.ar    1  UNL1       -0.0033
     16 C           9.4044   -8.1433   25.7128 C.3     1  UNL1        0.0324
     17 H           8.8543   -7.3878   29.7614 H       1  UNL1        0.1424
     18 H           9.3329   -8.0572   28.2679 H       1  UNL1        0.1424
     19 C           7.1362   -3.3528   32.2059 C.3     1  UNL1        0.1166
     20 C           6.2925   -2.2142   32.6977 C.ar    1  UNL1       -0.0026
     21 C           4.8892   -2.4671   33.1633 C.ar    1  UNL1       -0.0026
     22 C           4.0456   -1.3286   33.6551 C.ar    1  UNL1       -0.0001
     23 C           4.6052    0.0628   33.6814 C.ar    1  UNL1        0.0037
     24 C           6.0085    0.3157   33.2159 C.ar    1  UNL1       -0.0001
     25 C           6.8522   -0.8228   32.7240 C.ar    1  UNL1       -0.0026
     26 C           3.7615    1.2014   34.1733 C.ar    1  UNL1        0.0460
     27 C           4.0197    1.7966   35.5257 C.ar    1  UNL1        0.0054
     28 C           3.1760    2.9352   36.0176 C.ar    1  UNL1        0.0208
     29 C           2.0741    3.4785   35.1570 C.ar    1  UNL1        0.1013
     30 N           1.8159    2.8833   33.8045 N.ar    1  UNL1       -0.2165
     31 C           2.6596    1.7448   33.3127 C.ar    1  UNL1        0.2222
     32 F           2.4015    1.1495   31.9602 F       1  UNL1       -0.1832
@<TRIPOS>BOND
     1     5     6    1
     2     6     7   ar
     3     7     8   ar
     4     8     9   ar
     5     9    10   ar
     6    10    11   ar
     7    11     1    1
     8     1     2    2
     9     1     3   am
    10     3    19    1
    11    19    20    1
    12    20    21   ar
    13    21    22   ar
    14    22    23   ar
    15    23    26    1
    16    26    27   ar
    17    27    28   ar
    18    28    29   ar
    19    29    30   ar
    20    30    31   ar
    21    31    32    1
    22    23    24   ar
    23    24    25   ar
    24    11    12   ar
    25    12    13    1
    26    12    14   ar
    27    14    15   ar
    28    15    16    1
    29    15     6   ar
    30    14     9   ar
    31    25    20   ar
    32    31    26   ar
    33     3     4    1
    34    13    17    1
    35    13    18    1
@<TRIPOS>MOLECULE
*****
 32 35 0 0 0
SMALL
GASTEIGER

@<TRIPOS>ATOM
      1 C          -0.6435    3.3890   20.4435 C.2     1  UNL1        0.2534
      2 O           0.5485    4.2773   20.6439 O.2     1  UNL1       -0.2695
      3 N          -0.6123    2.3173   19.3945 N.am    1  UNL1       -0.2965
      4 H          -1.3946    1.7343   19.2630 H       1  UNL1        0.1501
      5 C          -7.7619    4.4823   23.5670 C.3     1  UNL1        0.0537
      6 C          -6.2850    4.2478   23.4503 C.ar    1  UNL1        0.0771
      7 N          -5.4496    4.0964   24.6868 N.ar    1  UNL1       -0.1522
      8 N          -3.9726    3.8619   24.5700 N.ar    1  UNL1       -0.1416
      9 C          -3.3311    3.7788   23.2167 C.ar    1  UNL1        0.1333
     10 S          -1.9097    3.5576   22.7916 S.2     1  UNL1       -0.0604
     11 C          -1.8666    3.5723   21.2923 C.ar    1  UNL1        0.0971
     12 C          -3.2614    3.8026   20.7908 C.ar    1  UNL1        0.0538
     13 N          -3.6780    3.8900   19.3524 N.pl3   1  UNL1       -0.3564
     14 C          -4.1665    3.9302   21.9802 C.ar    1  UNL1        0.0363
     15 C          -5.6434    4.1647   22.0969 C.ar    1  UNL1       -0.0033
     16 C          -6.4789    4.3161   20.8603 C.3     1  UNL1        0.0324
     17 H          -3.0068    3.7929   18.6388 H       1  UNL1        0.1424
     18 H          -4.6227    4.0443   19.1221 H       1  UNL1        0.1424
     19 C           0.6108    2.1340   18.5458 C.3     1  UNL1        0.1166
     20 C           1.6177    1.0797   18.8990 C.ar    1  UNL1       -0.0026
     21 C           2.9663    1.0805   18.2423 C.ar    1  UNL1       -0.0026
     22 C           3.9731    0.0263   18.5956 C.ar    1  UNL1       -0.0001
     23 C           3.6314   -1.0287   19.6056 C.ar    1  UNL1        0.0037
     24 C           2.2828   -1.0295   20.2623 C.ar    1  UNL1       -0.0001
     25 C           1.2760    0.0247   19.9090 C.ar    1  UNL1       -0.0026
     26 C           4.6383   -2.0830   19.9588 C.ar    1  UNL1        0.0460
     27 C           5.9077   -1.7023   20.6614 C.ar    1  UNL1        0.0054
     28 C           6.9146   -2.7566   21.0146 C.ar    1  UNL1        0.0208
     29 C           6.6520   -4.1915   20.6653 C.ar    1  UNL1        0.1013
     30 N           5.3825   -4.5722   19.9628 N.ar    1  UNL1       -0.2165
     31 C           4.3757   -3.5179   19.6095 C.ar    1  UNL1        0.2222
     32 F           3.1062   -3.8986   18.9070 F       1  UNL1       -0.1832
@<TRIPOS>BOND
     1     5     6    1
     2     6     7   ar
     3     7     8   ar
     4     8     9   ar
     5     9    10   ar
     6    10    11   ar
     7    11     1    1
     8     1     2    2
     9     1     3   am
    10     3    19    1
    11    19    20    1
    12    20    21   ar
    13    21    22   ar
    14    22    23   ar
    15    23    26    1
    16    26    27   ar
    17    27    28   ar
    18    28    29   ar
    19    29    30   ar
    20    30    31   ar
    21    31    32    1
    22    23    24   ar
    23    24    25   ar
    24    11    12   ar
    25    12    13    1
    26    12    14   ar
    27    14    15   ar
    28    15    16    1
    29    15     6   ar
    30    14     9   ar
    31    25    20   ar
    32    31    26   ar
    33     3     4    1
    34    13    17    1
    35    13    18    1
