@<TRIPOS>MOLECULE
*****
 22 25 0 0 0
SMALL
GASTEIGER

@<TRIPOS>ATOM
      1 C          -6.9808  -15.3625   27.3065 C.ar    1  UNL1       -0.0003
      2 C          -6.2752  -15.0391   26.0230 C.ar    1  UNL1       -0.0000
      3 C          -6.7468  -15.6451   24.7345 C.ar    1  UNL1       -0.0006
      4 C          -7.9241  -16.5745   24.7294 C.ar    1  UNL1       -0.0078
      5 C          -8.6298  -16.8979   26.0129 C.ar    1  UNL1       -0.0184
      6 C          -8.1581  -16.2919   27.3015 C.ar    1  UNL1       -0.0040
      7 C          -9.7533  -17.8410   25.6993 C.3     1  UNL1        0.0480
      8 C          -9.7420  -18.1004   24.2220 C.2     1  UNL1       -0.0420
      9 C          -8.6115  -17.3176   23.6226 C.2     1  UNL1       -0.0240
     10 C         -10.6941  -18.9869   23.4751 C.3     1  UNL1        0.0394
     11 C         -11.9025  -18.3977   22.8098 C.3     1  UNL1        0.0765
     12 N         -11.7494  -17.5928   21.5534 N.3     1  UNL1       -0.2723
     13 C         -11.2513  -17.8751   20.1671 C.3     1  UNL1        0.0735
     14 C         -11.5329  -16.4545   19.7766 C.3     1  UNL1        0.0346
     15 C         -12.0310  -16.1721   21.1630 C.3     1  UNL1        0.0735
     16 C          -8.2345  -17.2840   22.1711 C.3     1  UNL1        0.0730
     17 C          -7.2620  -18.2872   21.6253 C.ar    1  UNL1        0.0825
     18 C          -7.7105  -19.2848   20.5989 C.ar    1  UNL1        0.1139
     19 N          -6.7380  -20.2880   20.0530 N.ar    1  UNL1       -0.2394
     20 C          -5.3171  -20.2935   20.5337 C.ar    1  UNL1        0.1195
     21 C          -4.8687  -19.2959   21.5601 C.ar    1  UNL1        0.1191
     22 N          -5.8411  -18.2927   22.1059 N.ar    1  UNL1       -0.2446
@<TRIPOS>BOND
     1     1     2   ar
     2     2     3   ar
     3     3     4   ar
     4     4     5   ar
     5     5     6   ar
     6     5     7    1
     7     7     8    1
     8     8    10    1
     9    10    11    1
    10    11    12    1
    11    12    13    1
    12    13    14    1
    13    14    15    1
    14     8     9    2
    15     9    16    1
    16    16    17    1
    17    17    18   ar
    18    18    19   ar
    19    19    20   ar
    20    20    21   ar
    21    21    22   ar
    22     6     1   ar
    23    15    12    1
    24    22    17   ar
    25     9     4    1
@<TRIPOS>MOLECULE
*****
 22 25 0 0 0
SMALL
GASTEIGER

@<TRIPOS>ATOM
      1 C         -12.8794  -17.7850   21.6260 C.ar    1  UNL1       -0.0003
      2 C         -12.5576  -16.3970   22.0947 C.ar    1  UNL1       -0.0000
      3 C         -11.1361  -16.0123   22.3800 C.ar    1  UNL1       -0.0006
      4 C         -10.0364  -17.0158   22.1966 C.ar    1  UNL1       -0.0078
      5 C         -10.3582  -18.4038   21.7280 C.ar    1  UNL1       -0.0184
      6 C         -11.7797  -18.7885   21.4427 C.ar    1  UNL1       -0.0040
      7 C          -9.0732  -19.1727   21.6391 C.3     1  UNL1        0.0480
      8 C          -7.9573  -18.2597   22.0529 C.2     1  UNL1       -0.0420
      9 C          -8.5526  -16.9267   22.3974 C.2     1  UNL1       -0.0240
     10 C          -6.5016  -18.6170   22.1118 C.3     1  UNL1        0.0394
     11 C          -5.8299  -19.2259   20.9168 C.3     1  UNL1        0.0765
     12 N          -4.3327  -19.2457   20.8270 N.3     1  UNL1       -0.2723
     13 C          -3.2180  -19.5866   21.7709 C.3     1  UNL1        0.0735
     14 C          -2.2154  -19.2737   20.6999 C.3     1  UNL1        0.0346
     15 C          -3.3302  -18.9328   19.7560 C.3     1  UNL1        0.0735
     16 C          -7.7968  -15.7169   22.8614 C.3     1  UNL1        0.0730
     17 C          -7.4244  -15.5741   24.3074 C.ar    1  UNL1        0.0825
     18 C          -8.4649  -15.7601   25.3717 C.ar    1  UNL1        0.1139
     19 N          -8.0926  -15.6173   26.8177 N.ar    1  UNL1       -0.2394
     20 C          -6.6797  -15.2886   27.1994 C.ar    1  UNL1        0.1195
     21 C          -5.6392  -15.1026   26.1351 C.ar    1  UNL1        0.1191
     22 N          -6.0115  -15.2454   24.6891 N.ar    1  UNL1       -0.2446
@<TRIPOS>BOND
     1     1     2   ar
     2     2     3   ar
     3     3     4   ar
     4     4     5   ar
     5     5     6   ar
     6     5     7    1
     7     7     8    1
     8     8    10    1
     9    10    11    1
    10    11    12    1
    11    12    13    1
    12    13    14    1
    13    14    15    1
    14     8     9    2
    15     9    16    1
    16    16    17    1
    17    17    18   ar
    18    18    19   ar
    19    19    20   ar
    20    20    21   ar
    21    21    22   ar
    22     6     1   ar
    23    15    12    1
    24    22    17   ar
    25     9     4    1
@<TRIPOS>MOLECULE
*****
 22 25 0 0 0
SMALL
GASTEIGER

@<TRIPOS>ATOM
      1 C         -11.1012  -18.1382   20.0585 C.ar    1  UNL1       -0.0003
      2 C         -10.3378  -19.4014   19.7914 C.ar    1  UNL1       -0.0000
      3 C          -8.9874  -19.6069   20.4113 C.ar    1  UNL1       -0.0006
      4 C          -8.4005  -18.5492   21.2983 C.ar    1  UNL1       -0.0078
      5 C          -9.1639  -17.2860   21.5654 C.ar    1  UNL1       -0.0184
      6 C         -10.5143  -17.0805   20.9455 C.ar    1  UNL1       -0.0040
      7 C          -8.3361  -16.4276   22.4754 C.3     1  UNL1        0.0480
      8 C          -7.0610  -17.1604   22.7706 C.2     1  UNL1       -0.0420
      9 C          -7.1008  -18.4716   22.0431 C.2     1  UNL1       -0.0240
     10 C          -5.9425  -16.6684   23.6406 C.3     1  UNL1        0.0394
     11 C          -6.1209  -15.4244   24.4596 C.3     1  UNL1        0.0765
     12 N          -6.9561  -15.4597   25.7050 N.3     1  UNL1       -0.2723
     13 C          -8.4269  -15.5108   25.9945 C.3     1  UNL1        0.0735
     14 C          -8.1373  -15.5096   27.4663 C.3     1  UNL1        0.0346
     15 C          -6.6664  -15.4584   27.1767 C.3     1  UNL1        0.0735
     16 C          -6.0291  -19.5210   22.0579 C.3     1  UNL1        0.0730
     17 C          -4.7077  -19.2528   21.4006 C.ar    1  UNL1        0.0825
     18 C          -3.4324  -19.5260   22.1414 C.ar    1  UNL1        0.1139
     19 N          -2.1110  -19.2578   21.4840 N.ar    1  UNL1       -0.2394
     20 C          -2.0650  -18.7165   20.0859 C.ar    1  UNL1        0.1195
     21 C          -3.3404  -18.4433   19.3451 C.ar    1  UNL1        0.1191
     22 N          -4.6617  -18.7114   20.0024 N.ar    1  UNL1       -0.2446
@<TRIPOS>BOND
     1     1     2   ar
     2     2     3   ar
     3     3     4   ar
     4     4     5   ar
     5     5     6   ar
     6     5     7    1
     7     7     8    1
     8     8    10    1
     9    10    11    1
    10    11    12    1
    11    12    13    1
    12    13    14    1
    13    14    15    1
    14     8     9    2
    15     9    16    1
    16    16    17    1
    17    17    18   ar
    18    18    19   ar
    19    19    20   ar
    20    20    21   ar
    21    21    22   ar
    22     6     1   ar
    23    15    12    1
    24    22    17   ar
    25     9     4    1
@<TRIPOS>MOLECULE
*****
 22 25 0 0 0
SMALL
GASTEIGER

@<TRIPOS>ATOM
      1 C          -8.7200  -19.3215   20.8425 C.ar    1  UNL1       -0.0003
      2 C          -7.4550  -20.1272   20.8642 C.ar    1  UNL1       -0.0000
      3 C          -6.2516  -19.6142   21.5982 C.ar    1  UNL1       -0.0006
      4 C          -6.3132  -18.2955   22.3104 C.ar    1  UNL1       -0.0078
      5 C          -7.5782  -17.4898   22.2886 C.ar    1  UNL1       -0.0184
      6 C          -8.7816  -18.0028   21.5547 C.ar    1  UNL1       -0.0040
      7 C          -7.3422  -16.2350   23.0760 C.3     1  UNL1        0.0480
      8 C          -5.9313  -16.2653   23.5843 C.2     1  UNL1       -0.0420
      9 C          -5.2954  -17.5387   23.1112 C.2     1  UNL1       -0.0240
     10 C          -5.2721  -15.2077   24.4193 C.3     1  UNL1        0.0394
     11 C          -5.3448  -15.2802   25.9158 C.3     1  UNL1        0.0765
     12 N          -6.6363  -15.6418   26.5873 N.3     1  UNL1       -0.2723
     13 C          -7.0171  -16.4731   27.7763 C.3     1  UNL1        0.0735
     14 C          -8.4629  -16.1532   27.5369 C.3     1  UNL1        0.0346
     15 C          -8.0822  -15.3219   26.3478 C.3     1  UNL1        0.0735
     16 C          -3.8885  -17.9782   23.3898 C.3     1  UNL1        0.0730
     17 C          -2.8638  -17.9524   22.2947 C.ar    1  UNL1        0.0825
     18 C          -2.3153  -19.2379   21.7503 C.ar    1  UNL1        0.1139
     19 N          -1.2906  -19.2121   20.6551 N.ar    1  UNL1       -0.2394
     20 C          -0.8144  -17.9006   20.1044 C.ar    1  UNL1        0.1195
     21 C          -1.3629  -16.6150   20.6489 C.ar    1  UNL1        0.1191
     22 N          -2.3876  -16.6409   21.7440 N.ar    1  UNL1       -0.2446
@<TRIPOS>BOND
     1     1     2   ar
     2     2     3   ar
     3     3     4   ar
     4     4     5   ar
     5     5     6   ar
     6     5     7    1
     7     7     8    1
     8     8    10    1
     9    10    11    1
    10    11    12    1
    11    12    13    1
    12    13    14    1
    13    14    15    1
    14     8     9    2
    15     9    16    1
    16    16    17    1
    17    17    18   ar
    18    18    19   ar
    19    19    20   ar
    20    20    21   ar
    21    21    22   ar
    22     6     1   ar
    23    15    12    1
    24    22    17   ar
    25     9     4    1
@<TRIPOS>MOLECULE
*****
 22 25 0 0 0
SMALL
GASTEIGER

@<TRIPOS>ATOM
      1 C          -5.3926  -15.3399   25.9532 C.ar    1  UNL1       -0.0003
      2 C          -4.8412  -15.9412   24.6945 C.ar    1  UNL1       -0.0000
      3 C          -5.7733  -16.4229   23.6225 C.ar    1  UNL1       -0.0006
      4 C          -7.2568  -16.3035   23.8093 C.ar    1  UNL1       -0.0078
      5 C          -7.8082  -15.7022   25.0680 C.ar    1  UNL1       -0.0184
      6 C          -6.8761  -15.2204   26.1399 C.ar    1  UNL1       -0.0040
      7 C          -9.3051  -15.7153   24.9709 C.3     1  UNL1        0.0480
      8 C          -9.6787  -16.3247   23.6522 C.2     1  UNL1       -0.0420
      9 C          -8.4128  -16.6882   22.9343 C.2     1  UNL1       -0.0240
     10 C         -11.0734  -16.5339   23.1411 C.3     1  UNL1        0.0394
     11 C         -11.7965  -17.8143   23.4373 C.3     1  UNL1        0.0765
     12 N         -11.0232  -19.0408   23.8214 N.3     1  UNL1       -0.2723
     13 C         -10.6139  -20.3003   23.1173 C.3     1  UNL1        0.0735
     14 C          -9.9296  -20.7753   24.3647 C.3     1  UNL1        0.0346
     15 C         -10.3389  -19.5157   25.0689 C.3     1  UNL1        0.0735
     16 C          -8.3194  -17.3247   21.5792 C.3     1  UNL1        0.0730
     17 C          -7.3353  -18.4303   21.3362 C.ar    1  UNL1        0.0825
     18 C          -7.3136  -19.6272   22.2401 C.ar    1  UNL1        0.1139
     19 N          -6.3295  -20.7328   21.9971 N.ar    1  UNL1       -0.2394
     20 C          -5.3670  -20.6417   20.8502 C.ar    1  UNL1        0.1195
     21 C          -5.3887  -19.4448   19.9463 C.ar    1  UNL1        0.1191
     22 N          -6.3728  -18.3391   20.1893 N.ar    1  UNL1       -0.2446
@<TRIPOS>BOND
     1     1     2   ar
     2     2     3   ar
     3     3     4   ar
     4     4     5   ar
     5     5     6   ar
     6     5     7    1
     7     7     8    1
     8     8    10    1
     9    10    11    1
    10    11    12    1
    11    12    13    1
    12    13    14    1
    13    14    15    1
    14     8     9    2
    15     9    16    1
    16    16    17    1
    17    17    18   ar
    18    18    19   ar
    19    19    20   ar
    20    20    21   ar
    21    21    22   ar
    22     6     1   ar
    23    15    12    1
    24    22    17   ar
    25     9     4    1
@<TRIPOS>MOLECULE
*****
 22 25 0 0 0
SMALL
GASTEIGER

@<TRIPOS>ATOM
      1 C         -12.5057  -17.3749   21.5572 C.ar    1  UNL1       -0.0003
      2 C         -12.0289  -18.7696   21.2794 C.ar    1  UNL1       -0.0000
      3 C         -10.5916  -19.1310   21.5109 C.ar    1  UNL1       -0.0006
      4 C          -9.6311  -18.0976   22.0202 C.ar    1  UNL1       -0.0078
      5 C         -10.1079  -16.7028   22.2980 C.ar    1  UNL1       -0.0184
      6 C         -11.5452  -16.3414   22.0665 C.ar    1  UNL1       -0.0040
      7 C          -8.9386  -15.9027   22.7907 C.3     1  UNL1        0.0480
      8 C          -7.7392  -16.8030   22.8173 C.2     1  UNL1       -0.0420
      9 C          -8.1672  -18.1595   22.3412 C.2     1  UNL1       -0.0240
     10 C          -6.3548  -16.4150   23.2451 C.3     1  UNL1        0.0394
     11 C          -6.1624  -15.4518   24.3788 C.3     1  UNL1        0.0765
     12 N          -6.9243  -15.6369   25.6576 N.3     1  UNL1       -0.2723
     13 C          -8.3033  -16.1087   26.0118 C.3     1  UNL1        0.0735
     14 C          -8.0017  -15.8985   27.4661 C.3     1  UNL1        0.0346
     15 C          -6.6226  -15.4267   27.1118 C.3     1  UNL1        0.0735
     16 C          -7.2860  -19.3661   22.2092 C.3     1  UNL1        0.0730
     17 C          -5.9087  -19.2294   21.6308 C.ar    1  UNL1        0.0825
     18 C          -5.7325  -18.7677   20.2145 C.ar    1  UNL1        0.1139
     19 N          -4.3552  -18.6310   19.6362 N.ar    1  UNL1       -0.2394
     20 C          -3.1542  -18.9559   20.4740 C.ar    1  UNL1        0.1195
     21 C          -3.3305  -19.4175   21.8903 C.ar    1  UNL1        0.1191
     22 N          -4.7077  -19.5543   22.4687 N.ar    1  UNL1       -0.2446
@<TRIPOS>BOND
     1     1     2   ar
     2     2     3   ar
     3     3     4   ar
     4     4     5   ar
     5     5     6   ar
     6     5     7    1
     7     7     8    1
     8     8    10    1
     9    10    11    1
    10    11    12    1
    11    12    13    1
    12    13    14    1
    13    14    15    1
    14     8     9    2
    15     9    16    1
    16    16    17    1
    17    17    18   ar
    18    18    19   ar
    19    19    20   ar
    20    20    21   ar
    21    21    22   ar
    22     6     1   ar
    23    15    12    1
    24    22    17   ar
    25     9     4    1
@<TRIPOS>MOLECULE
*****
 22 25 0 0 0
SMALL
GASTEIGER

@<TRIPOS>ATOM
      1 C         -10.6208  -19.0210   20.2854 C.ar    1  UNL1       -0.0003
      2 C          -9.8471  -19.7968   19.2609 C.ar    1  UNL1       -0.0000
      3 C          -8.3596  -19.9378   19.3929 C.ar    1  UNL1       -0.0006
      4 C          -7.6458  -19.3031   20.5494 C.ar    1  UNL1       -0.0078
      5 C          -8.4194  -18.5273   21.5739 C.ar    1  UNL1       -0.0184
      6 C          -9.9069  -18.3863   21.4418 C.ar    1  UNL1       -0.0040
      7 C          -7.4498  -18.0165   22.5981 C.3     1  UNL1        0.0480
      8 C          -6.0768  -18.4766   22.2065 C.2     1  UNL1       -0.0420
      9 C          -6.1980  -19.2718   20.9404 C.2     1  UNL1       -0.0240
     10 C          -4.8058  -18.1916   22.9505 C.3     1  UNL1        0.0394
     11 C          -4.7186  -16.9997   23.8571 C.3     1  UNL1        0.0765
     12 N          -5.9038  -16.0955   24.0232 N.3     1  UNL1       -0.2723
     13 C          -6.8792  -15.8176   25.1282 C.3     1  UNL1        0.0735
     14 C          -7.5798  -14.8166   24.2581 C.3     1  UNL1        0.0346
     15 C          -6.6044  -15.0945   23.1530 C.3     1  UNL1        0.0735
     16 C          -5.0694  -19.9215   20.1959 C.3     1  UNL1        0.0730
     17 C          -3.7276  -19.2538   20.1361 C.ar    1  UNL1        0.0825
     18 C          -2.5769  -19.8110   20.9206 C.ar    1  UNL1        0.1139
     19 N          -1.2351  -19.1433   20.8608 N.ar    1  UNL1       -0.2394
     20 C          -1.0439  -17.9184   20.0164 C.ar    1  UNL1        0.1195
     21 C          -2.1945  -17.3611   19.2319 C.ar    1  UNL1        0.1191
     22 N          -3.5364  -18.0289   19.2918 N.ar    1  UNL1       -0.2446
@<TRIPOS>BOND
     1     1     2   ar
     2     2     3   ar
     3     3     4   ar
     4     4     5   ar
     5     5     6   ar
     6     5     7    1
     7     7     8    1
     8     8    10    1
     9    10    11    1
    10    11    12    1
    11    12    13    1
    12    13    14    1
    13    14    15    1
    14     8     9    2
    15     9    16    1
    16    16    17    1
    17    17    18   ar
    18    18    19   ar
    19    19    20   ar
    20    20    21   ar
    21    21    22   ar
    22     6     1   ar
    23    15    12    1
    24    22    17   ar
    25     9     4    1
@<TRIPOS>MOLECULE
*****
 22 25 0 0 0
SMALL
GASTEIGER

@<TRIPOS>ATOM
      1 C          -7.1894  -15.2191   27.4050 C.ar    1  UNL1       -0.0003
      2 C          -6.1228  -14.9487   26.3856 C.ar    1  UNL1       -0.0000
      3 C          -6.2258  -15.5492   25.0149 C.ar    1  UNL1       -0.0006
      4 C          -7.3955  -16.4200   24.6636 C.ar    1  UNL1       -0.0078
      5 C          -8.4621  -16.6904   25.6830 C.ar    1  UNL1       -0.0184
      6 C          -8.3590  -16.0900   27.0537 C.ar    1  UNL1       -0.0040
      7 C          -9.4906  -17.5819   25.0525 C.3     1  UNL1        0.0480
      8 C          -9.0596  -17.8624   23.6434 C.2     1  UNL1       -0.0420
      9 C          -7.7648  -17.1443   23.4031 C.2     1  UNL1       -0.0240
     10 C          -9.7944  -18.7119   22.6491 C.3     1  UNL1        0.0394
     11 C         -10.9930  -19.5041   23.0803 C.3     1  UNL1        0.0765
     12 N         -12.2368  -18.7972   23.5310 N.3     1  UNL1       -0.2723
     13 C         -13.0266  -18.7489   24.8052 C.3     1  UNL1        0.0735
     14 C         -13.9957  -17.7974   24.1684 C.3     1  UNL1        0.0346
     15 C         -13.2058  -17.8456   22.8941 C.3     1  UNL1        0.0735
     16 C          -6.9774  -17.1496   22.1263 C.3     1  UNL1        0.0730
     17 C          -5.7420  -17.9925   22.0105 C.ar    1  UNL1        0.0825
     18 C          -5.7624  -19.2433   21.1828 C.ar    1  UNL1        0.1139
     19 N          -4.5270  -20.0862   21.0669 N.ar    1  UNL1       -0.2394
     20 C          -3.2713  -19.6783   21.7789 C.ar    1  UNL1        0.1195
     21 C          -3.2510  -18.4276   22.6066 C.ar    1  UNL1        0.1191
     22 N          -4.4863  -17.5847   22.7224 N.ar    1  UNL1       -0.2446
@<TRIPOS>BOND
     1     1     2   ar
     2     2     3   ar
     3     3     4   ar
     4     4     5   ar
     5     5     6   ar
     6     5     7    1
     7     7     8    1
     8     8    10    1
     9    10    11    1
    10    11    12    1
    11    12    13    1
    12    13    14    1
    13    14    15    1
    14     8     9    2
    15     9    16    1
    16    16    17    1
    17    17    18   ar
    18    18    19   ar
    19    19    20   ar
    20    20    21   ar
    21    21    22   ar
    22     6     1   ar
    23    15    12    1
    24    22    17   ar
    25     9     4    1
@<TRIPOS>MOLECULE
*****
 22 25 0 0 0
SMALL
GASTEIGER

@<TRIPOS>ATOM
      1 C          -9.5992   -7.1354   18.1417 C.ar    1  UNL1       -0.0003
      2 C          -9.3427   -5.8015   18.7779 C.ar    1  UNL1       -0.0000
      3 C         -10.4882   -4.9896   19.3057 C.ar    1  UNL1       -0.0006
      4 C         -11.8902   -5.5115   19.1973 C.ar    1  UNL1       -0.0078
      5 C         -12.1467   -6.8454   18.5611 C.ar    1  UNL1       -0.0184
      6 C         -11.0012   -7.6574   18.0333 C.ar    1  UNL1       -0.0040
      7 C         -13.6249   -7.0985   18.5947 C.3     1  UNL1        0.0480
      8 C         -14.2819   -5.9209   19.2518 C.2     1  UNL1       -0.0420
      9 C         -13.2098   -4.9402   19.6242 C.2     1  UNL1       -0.0240
     10 C         -15.7528   -5.7535   19.4939 C.3     1  UNL1        0.0394
     11 C         -16.7402   -6.5467   18.6904 C.3     1  UNL1        0.0765
     12 N         -16.8888   -8.0204   18.9276 N.3     1  UNL1       -0.2723
     13 C         -16.9706   -8.8961   20.1425 C.3     1  UNL1        0.0735
     14 C         -17.0989  -10.1044   19.2630 C.3     1  UNL1        0.0346
     15 C         -17.0170   -9.2286   18.0479 C.3     1  UNL1        0.0735
     16 C         -13.4203   -3.6198   20.3041 C.3     1  UNL1        0.0730
     17 C         -13.4453   -2.3559   19.4966 C.ar    1  UNL1        0.0825
     18 C         -14.7458   -1.6519   19.2456 C.ar    1  UNL1        0.1139
     19 N         -14.7708   -0.3880   18.4381 N.ar    1  UNL1       -0.2394
     20 C         -13.4953    0.1718   17.8816 C.ar    1  UNL1        0.1195
     21 C         -12.1948   -0.5322   18.1326 C.ar    1  UNL1        0.1191
     22 N         -12.1698   -1.7961   18.9401 N.ar    1  UNL1       -0.2446
@<TRIPOS>BOND
     1     1     2   ar
     2     2     3   ar
     3     3     4   ar
     4     4     5   ar
     5     5     6   ar
     6     5     7    1
     7     7     8    1
     8     8    10    1
     9    10    11    1
    10    11    12    1
    11    12    13    1
    12    13    14    1
    13    14    15    1
    14     8     9    2
    15     9    16    1
    16    16    17    1
    17    17    18   ar
    18    18    19   ar
    19    19    20   ar
    20    20    21   ar
    21    21    22   ar
    22     6     1   ar
    23    15    12    1
    24    22    17   ar
    25     9     4    1
