@<TRIPOS>MOLECULE
*****
 30 33 0 0 0
SMALL
GASTEIGER

@<TRIPOS>ATOM
      1 C          -4.2734  -16.7726   22.9440 C.ar    1  UNL1        0.1213
      2 N          -3.1734  -15.8628   22.4831 N.ar    1  UNL1       -0.2309
      3 C          -2.2469  -16.6595   21.6130 C.ar    1  UNL1        0.0983
      4 C          -0.9913  -16.2893   20.8808 C.ar    1  UNL1        0.0206
      5 C          -0.2630  -17.3212   20.0717 C.ar    1  UNL1        0.0016
      6 C          -0.7904  -18.7234   19.9949 C.ar    1  UNL1        0.0016
      7 C          -2.0460  -19.0935   20.7271 C.ar    1  UNL1        0.0188
      8 C          -2.7743  -18.0616   21.5362 C.ar    1  UNL1        0.0787
      9 N          -4.0267  -18.1315   22.3588 N.ar    1  UNL1       -0.3110
     10 N          -7.9755  -16.1833   24.2466 N.3     1  UNL1       -0.2646
     11 C          -7.7098  -15.6263   25.6137 C.3     1  UNL1        0.0725
     12 C          -6.2985  -15.4515   26.0910 C.3     1  UNL1        0.0178
     13 C          -5.1531  -15.8336   25.2011 C.3     1  UNL1        0.0103
     14 C          -5.4188  -16.3905   23.8339 C.3     1  UNL1        0.0729
     15 C          -6.8301  -16.5653   23.3567 C.3     1  UNL1        0.0800
     16 C          -9.3868  -16.3581   23.7693 C.3     1  UNL1        0.1587
     17 C         -11.4698  -16.0888   20.4020 C.3     1  UNL1        0.1149
     18 N         -11.1323  -16.3189   21.8453 N.am    1  UNL1       -0.2749
     19 C         -12.2029  -16.7400   22.8080 C.3     1  UNL1        0.1149
     20 C          -9.7243  -16.1280   22.3259 C.2     1  UNL1        0.2421
     21 O          -8.6537  -15.7069   21.3633 O.2     1  UNL1       -0.2734
     22 C          -4.8822  -19.3469   22.5607 C.3     1  UNL1        0.1544
     23 C          -5.7244  -19.8670   21.4338 C.3     1  UNL1        0.2298
     24 O          -6.8241  -19.0193   20.8661 O.3     1  UNL1       -0.4734
     25 C          -8.2564  -19.3511   21.1635 C.ar    1  UNL1        0.1386
     26 C          -9.2738  -19.3381   20.0613 C.ar    1  UNL1        0.0369
     27 C         -10.7060  -19.6699   20.3587 C.ar    1  UNL1        0.0031
     28 C         -11.1210  -20.0148   21.7583 C.ar    1  UNL1        0.0002
     29 C         -10.1037  -20.0278   22.8605 C.ar    1  UNL1        0.0031
     30 C          -8.6714  -19.6960   22.5631 C.ar    1  UNL1        0.0369
@<TRIPOS>BOND
     1    17    18    1
     2    18    19    1
     3    18    20   am
     4    20    21    2
     5    20    16    1
     6    16    10    1
     7    10    11    1
     8    11    12    1
     9    12    13    1
    10    13    14    1
    11    14     1    1
    12     1     2   ar
    13     2     3   ar
    14     3     4   ar
    15     4     5   ar
    16     5     6   ar
    17     6     7   ar
    18     7     8   ar
    19     8     9   ar
    20     9    22    1
    21    22    23    1
    22    23    24    1
    23    24    25    1
    24    25    26   ar
    25    26    27   ar
    26    27    28   ar
    27    28    29   ar
    28    29    30   ar
    29    14    15    1
    30    15    10    1
    31     9     1   ar
    32    30    25   ar
    33     8     3   ar
@<TRIPOS>MOLECULE
*****
 30 33 0 0 0
SMALL
GASTEIGER

@<TRIPOS>ATOM
      1 C          -8.3999  -16.2375   23.0564 C.ar    1  UNL1        0.1213
      2 N          -8.6978  -15.6890   21.6924 N.ar    1  UNL1       -0.2309
      3 C         -10.1329  -15.9890   21.3753 C.ar    1  UNL1        0.0983
      4 C         -10.9793  -15.6887   20.1739 C.ar    1  UNL1        0.0206
      5 C         -12.4148  -16.1223   20.1406 C.ar    1  UNL1        0.0016
      6 C         -13.0039  -16.8562   21.3086 C.ar    1  UNL1        0.0016
      7 C         -12.1575  -17.1565   22.5100 C.ar    1  UNL1        0.0188
      8 C         -10.7220  -16.7229   22.5433 C.ar    1  UNL1        0.0787
      9 N          -9.6510  -16.8765   23.5823 N.ar    1  UNL1       -0.3110
     10 N          -4.5846  -16.8489   23.9615 N.3     1  UNL1       -0.2646
     11 C          -4.4474  -16.0066   25.1950 C.3     1  UNL1        0.0725
     12 C          -5.6277  -15.2414   25.7157 C.3     1  UNL1        0.0178
     13 C          -6.9452  -15.3183   25.0028 C.3     1  UNL1        0.0103
     14 C          -7.0824  -16.1606   23.7693 C.3     1  UNL1        0.0729
     15 C          -5.9021  -16.9259   23.2486 C.3     1  UNL1        0.0800
     16 C          -3.4042  -17.6143   23.4407 C.3     1  UNL1        0.1587
     17 C          -1.6516  -17.8808   19.8900 C.3     1  UNL1        0.1149
     18 N          -2.2870  -18.2754   21.1903 N.am    1  UNL1       -0.2749
     19 C          -2.4405  -19.7260   21.5402 C.3     1  UNL1        0.1149
     20 C          -2.7689  -17.2196   22.1405 C.2     1  UNL1        0.2421
     21 O          -2.6154  -15.7690   21.7905 O.2     1  UNL1       -0.2734
     22 C          -9.8042  -17.5507   24.9134 C.3     1  UNL1        0.1544
     23 C         -10.0323  -19.0316   24.9823 C.3     1  UNL1        0.2298
     24 O          -9.2688  -19.9511   24.0759 O.3     1  UNL1       -0.4734
     25 C          -9.4107  -19.8254   22.5879 C.ar    1  UNL1        0.1386
     26 C          -8.2198  -19.4691   21.7484 C.ar    1  UNL1        0.0369
     27 C          -8.3616  -19.3435   20.2604 C.ar    1  UNL1        0.0031
     28 C          -9.6944  -19.5742   19.6119 C.ar    1  UNL1        0.0002
     29 C         -10.8852  -19.9305   20.4514 C.ar    1  UNL1        0.0031
     30 C         -10.7434  -20.0561   21.9394 C.ar    1  UNL1        0.0369
@<TRIPOS>BOND
     1    17    18    1
     2    18    19    1
     3    18    20   am
     4    20    21    2
     5    20    16    1
     6    16    10    1
     7    10    11    1
     8    11    12    1
     9    12    13    1
    10    13    14    1
    11    14     1    1
    12     1     2   ar
    13     2     3   ar
    14     3     4   ar
    15     4     5   ar
    16     5     6   ar
    17     6     7   ar
    18     7     8   ar
    19     8     9   ar
    20     9    22    1
    21    22    23    1
    22    23    24    1
    23    24    25    1
    24    25    26   ar
    25    26    27   ar
    26    27    28   ar
    27    28    29   ar
    28    29    30   ar
    29    14    15    1
    30    15    10    1
    31     9     1   ar
    32    30    25   ar
    33     8     3   ar
@<TRIPOS>MOLECULE
*****
 30 33 0 0 0
SMALL
GASTEIGER

@<TRIPOS>ATOM
      1 C          -8.7088  -18.9304   22.1680 C.ar    1  UNL1        0.1213
      2 N          -9.6672  -19.7571   22.9729 N.ar    1  UNL1       -0.2309
      3 C         -10.8762  -18.9170   23.2601 C.ar    1  UNL1        0.0983
      4 C         -12.1422  -19.2038   24.0118 C.ar    1  UNL1        0.0206
      5 C         -13.1969  -18.1446   24.1361 C.ar    1  UNL1        0.0016
      6 C         -12.9857  -16.7986   23.5087 C.ar    1  UNL1        0.0016
      7 C         -11.7198  -16.5118   22.7569 C.ar    1  UNL1        0.0188
      8 C         -10.6651  -17.5710   22.6326 C.ar    1  UNL1        0.0787
      9 N          -9.3255  -17.5793   21.9577 N.ar    1  UNL1       -0.3110
     10 N          -4.7753  -19.2559   21.7538 N.3     1  UNL1       -0.2646
     11 C          -4.6892  -20.2684   20.6506 C.3     1  UNL1        0.0725
     12 C          -5.9430  -20.8350   20.0531 C.3     1  UNL1        0.0178
     13 C          -7.2828  -20.3890   20.5589 C.3     1  UNL1        0.0103
     14 C          -7.3689  -19.3764   21.6622 C.3     1  UNL1        0.0729
     15 C          -6.1151  -18.8099   22.2596 C.3     1  UNL1        0.0800
     16 C          -3.5215  -18.6893   22.3514 C.3     1  UNL1        0.1587
     17 C          -0.2178  -17.6157   20.4321 C.3     1  UNL1        0.1149
     18 N          -1.5133  -17.5265   21.1830 N.am    1  UNL1       -0.2749
     19 C          -2.0960  -16.1850   21.5164 C.3     1  UNL1        0.1149
     20 C          -2.2260  -18.7785   21.6005 C.2     1  UNL1        0.2421
     21 O          -1.6433  -20.1199   21.2671 O.2     1  UNL1       -0.2734
     22 C          -8.7106  -16.4370   21.2046 C.3     1  UNL1        0.1544
     23 C          -8.2414  -15.2183   21.9424 C.3     1  UNL1        0.2298
     24 O          -6.9630  -15.2617   22.7259 O.3     1  UNL1       -0.4734
     25 C          -7.0033  -15.3606   24.2221 C.ar    1  UNL1        0.1386
     26 C          -8.3219  -15.4006   24.9359 C.ar    1  UNL1        0.0369
     27 C          -8.3622  -15.4994   26.4321 C.ar    1  UNL1        0.0031
     28 C          -7.0838  -15.5582   27.2146 C.ar    1  UNL1        0.0002
     29 C          -5.7652  -15.5181   26.5008 C.ar    1  UNL1        0.0031
     30 C          -5.7249  -15.4193   25.0046 C.ar    1  UNL1        0.0369
@<TRIPOS>BOND
     1    17    18    1
     2    18    19    1
     3    18    20   am
     4    20    21    2
     5    20    16    1
     6    16    10    1
     7    10    11    1
     8    11    12    1
     9    12    13    1
    10    13    14    1
    11    14     1    1
    12     1     2   ar
    13     2     3   ar
    14     3     4   ar
    15     4     5   ar
    16     5     6   ar
    17     6     7   ar
    18     7     8   ar
    19     8     9   ar
    20     9    22    1
    21    22    23    1
    22    23    24    1
    23    24    25    1
    24    25    26   ar
    25    26    27   ar
    26    27    28   ar
    27    28    29   ar
    28    29    30   ar
    29    14    15    1
    30    15    10    1
    31     9     1   ar
    32    30    25   ar
    33     8     3   ar
@<TRIPOS>MOLECULE
*****
 30 33 0 0 0
SMALL
GASTEIGER

@<TRIPOS>ATOM
      1 C          -8.7006  -18.8249   21.4402 C.ar    1  UNL1        0.1213
      2 N          -9.3781  -17.8140   20.5633 N.ar    1  UNL1       -0.2309
      3 C         -10.7567  -17.5795   21.1058 C.ar    1  UNL1        0.0983
      4 C         -11.8756  -16.6892   20.6526 C.ar    1  UNL1        0.0206
      5 C         -13.1691  -16.6650   21.4117 C.ar    1  UNL1        0.0016
      6 C         -13.3437  -17.5309   22.6240 C.ar    1  UNL1        0.0016
      7 C         -12.2247  -18.4211   23.0772 C.ar    1  UNL1        0.0188
      8 C         -10.9312  -18.4454   22.3181 C.ar    1  UNL1        0.0787
      9 N          -9.6605  -19.2151   22.5248 N.ar    1  UNL1       -0.3110
     10 N          -4.7809  -19.2799   21.8634 N.3     1  UNL1       -0.2646
     11 C          -4.5220  -20.4090   20.9104 C.3     1  UNL1        0.0725
     12 C          -5.6560  -21.0100   20.1340 C.3     1  UNL1        0.0178
     13 C          -7.0488  -20.4820   20.3106 C.3     1  UNL1        0.0103
     14 C          -7.3077  -19.3530   21.2636 C.3     1  UNL1        0.0729
     15 C          -6.1737  -18.7519   22.0400 C.3     1  UNL1        0.0800
     16 C          -3.6469  -18.6789   22.6399 C.3     1  UNL1        0.1587
     17 C          -1.0466  -16.5237   20.5558 C.3     1  UNL1        0.1149
     18 N          -1.7897  -17.7047   21.1064 N.am    1  UNL1       -0.2749
     19 C          -1.4187  -19.0923   20.6740 C.3     1  UNL1        0.1149
     20 C          -2.9037  -17.4980   22.0893 C.2     1  UNL1        0.2421
     21 O          -3.2747  -16.1103   22.5216 O.2     1  UNL1       -0.2734
     22 C          -9.3961  -20.2019   23.6232 C.3     1  UNL1        0.1544
     23 C          -9.6739  -19.8290   25.0492 C.3     1  UNL1        0.2298
     24 O         -10.1137  -18.4356   25.3882 O.3     1  UNL1       -0.4734
     25 C          -9.0917  -17.3671   25.6408 C.ar    1  UNL1        0.1386
     26 C          -8.5209  -16.5887   24.4926 C.ar    1  UNL1        0.0369
     27 C          -7.4989  -15.5202   24.7452 C.ar    1  UNL1        0.0031
     28 C          -7.0476  -15.2301   26.1460 C.ar    1  UNL1        0.0002
     29 C          -7.6183  -16.0085   27.2941 C.ar    1  UNL1        0.0031
     30 C          -8.6404  -17.0770   27.0415 C.ar    1  UNL1        0.0369
@<TRIPOS>BOND
     1    17    18    1
     2    18    19    1
     3    18    20   am
     4    20    21    2
     5    20    16    1
     6    16    10    1
     7    10    11    1
     8    11    12    1
     9    12    13    1
    10    13    14    1
    11    14     1    1
    12     1     2   ar
    13     2     3   ar
    14     3     4   ar
    15     4     5   ar
    16     5     6   ar
    17     6     7   ar
    18     7     8   ar
    19     8     9   ar
    20     9    22    1
    21    22    23    1
    22    23    24    1
    23    24    25    1
    24    25    26   ar
    25    26    27   ar
    26    27    28   ar
    27    28    29   ar
    28    29    30   ar
    29    14    15    1
    30    15    10    1
    31     9     1   ar
    32    30    25   ar
    33     8     3   ar
@<TRIPOS>MOLECULE
*****
 30 33 0 0 0
SMALL
GASTEIGER

@<TRIPOS>ATOM
      1 C          -7.1289  -17.6377   23.1740 C.ar    1  UNL1        0.1213
      2 N          -6.2507  -16.5183   23.6493 N.ar    1  UNL1       -0.2309
      3 C          -6.7927  -16.0282   24.9593 C.ar    1  UNL1        0.0983
      4 C          -6.3382  -14.9440   25.8909 C.ar    1  UNL1        0.0206
      5 C          -7.0970  -14.6762   27.1568 C.ar    1  UNL1        0.0016
      6 C          -8.3101  -15.4926   27.4911 C.ar    1  UNL1        0.0016
      7 C          -8.7645  -16.5768   26.5596 C.ar    1  UNL1        0.0188
      8 C          -8.0058  -16.8446   25.2936 C.ar    1  UNL1        0.0787
      9 N          -8.2136  -17.8393   24.1903 N.ar    1  UNL1       -0.3110
     10 N          -5.4220  -19.7163   20.2558 N.3     1  UNL1       -0.2646
     11 C          -6.6018  -19.9795   19.3677 C.3     1  UNL1        0.0725
     12 C          -7.9573  -19.4621   19.7484 C.3     1  UNL1        0.0178
     13 C          -8.1330  -18.6815   21.0171 C.3     1  UNL1        0.0103
     14 C          -6.9532  -18.4183   21.9052 C.3     1  UNL1        0.0729
     15 C          -5.5977  -18.9356   21.5246 C.3     1  UNL1        0.0800
     16 C          -4.0664  -20.2336   19.8751 C.3     1  UNL1        0.1587
     17 C          -1.0614  -17.7299   20.5467 C.3     1  UNL1        0.1149
     18 N          -2.2927  -18.3364   19.9417 N.am    1  UNL1       -0.2749
     19 C          -2.9816  -17.6523   18.7982 C.3     1  UNL1        0.1149
     20 C          -2.8352  -19.6271   20.4801 C.2     1  UNL1        0.2421
     21 O          -2.1463  -20.3112   21.6236 O.2     1  UNL1       -0.2734
     22 C          -9.3130  -18.8570   24.1162 C.3     1  UNL1        0.1544
     23 C         -10.6333  -18.5839   24.7735 C.3     1  UNL1        0.2298
     24 O         -11.7928  -18.0990   23.9547 O.3     1  UNL1       -0.4734
     25 C         -11.5758  -17.6472   22.5409 C.ar    1  UNL1        0.1386
     26 C         -11.1639  -16.2325   22.2604 C.ar    1  UNL1        0.0369
     27 C         -10.9469  -15.7807   20.8466 C.ar    1  UNL1        0.0031
     28 C         -11.1417  -16.7438   19.7132 C.ar    1  UNL1        0.0002
     29 C         -11.5536  -18.1586   19.9937 C.ar    1  UNL1        0.0031
     30 C         -11.7706  -18.6103   21.4075 C.ar    1  UNL1        0.0369
@<TRIPOS>BOND
     1    17    18    1
     2    18    19    1
     3    18    20   am
     4    20    21    2
     5    20    16    1
     6    16    10    1
     7    10    11    1
     8    11    12    1
     9    12    13    1
    10    13    14    1
    11    14     1    1
    12     1     2   ar
    13     2     3   ar
    14     3     4   ar
    15     4     5   ar
    16     5     6   ar
    17     6     7   ar
    18     7     8   ar
    19     8     9   ar
    20     9    22    1
    21    22    23    1
    22    23    24    1
    23    24    25    1
    24    25    26   ar
    25    26    27   ar
    26    27    28   ar
    27    28    29   ar
    28    29    30   ar
    29    14    15    1
    30    15    10    1
    31     9     1   ar
    32    30    25   ar
    33     8     3   ar
@<TRIPOS>MOLECULE
*****
 30 33 0 0 0
SMALL
GASTEIGER

@<TRIPOS>ATOM
      1 C         -15.7121   -6.1290   19.0323 C.ar    1  UNL1        0.1213
      2 N         -17.1706   -6.1875   19.3780 N.ar    1  UNL1       -0.2309
      3 C         -17.6562   -7.5803   19.1054 C.ar    1  UNL1        0.0983
      4 C         -19.0034   -8.2215   19.2590 C.ar    1  UNL1        0.0206
      5 C         -19.1924   -9.6652   18.8984 C.ar    1  UNL1        0.0016
      6 C         -18.0340  -10.4676   18.3843 C.ar    1  UNL1        0.0016
      7 C         -16.6868   -9.8264   18.2307 C.ar    1  UNL1        0.0188
      8 C         -16.4978   -8.3827   18.5913 C.ar    1  UNL1        0.0787
      9 N         -15.2964   -7.4858   18.5461 N.ar    1  UNL1       -0.3110
     10 N         -13.5834   -2.9271   18.0495 N.3     1  UNL1       -0.2646
     11 C         -13.0513   -2.5177   19.3908 C.3     1  UNL1        0.0725
     12 C         -13.4062   -3.3121   20.6127 C.3     1  UNL1        0.0178
     13 C         -14.2931   -4.5159   20.4932 C.3     1  UNL1        0.0103
     14 C         -14.8252   -4.9253   19.1518 C.3     1  UNL1        0.0729
     15 C         -14.4703   -4.1309   17.9300 C.3     1  UNL1        0.0800
     16 C         -13.2285   -2.1327   16.8275 C.3     1  UNL1        0.1587
     17 C         -12.1686    1.6871   17.0171 C.3     1  UNL1        0.1149
     18 N         -12.0763    0.1901   16.9914 N.am    1  UNL1       -0.2749
     19 C         -10.7394   -0.4809   17.1038 C.3     1  UNL1        0.1149
     20 C         -13.3208   -0.6358   16.8533 C.2     1  UNL1        0.2421
     21 O         -14.6577    0.0353   16.7409 O.2     1  UNL1       -0.2734
     22 C         -13.9207   -7.8770   18.0940 C.3     1  UNL1        0.1544
     23 C         -13.5460   -7.7622   16.6461 C.3     1  UNL1        0.2298
     24 O         -12.1410   -7.4052   16.2609 O.3     1  UNL1       -0.4734
     25 C         -11.1649   -6.9628   17.3105 C.ar    1  UNL1        0.1386
     26 C         -11.1322   -5.5282   17.7472 C.ar    1  UNL1        0.0369
     27 C         -10.1561   -5.0858   18.7968 C.ar    1  UNL1        0.0031
     28 C          -9.2128   -6.0780   19.4097 C.ar    1  UNL1        0.0002
     29 C          -9.2456   -7.5126   18.9730 C.ar    1  UNL1        0.0031
     30 C         -10.2216   -7.9550   17.9234 C.ar    1  UNL1        0.0369
@<TRIPOS>BOND
     1    17    18    1
     2    18    19    1
     3    18    20   am
     4    20    21    2
     5    20    16    1
     6    16    10    1
     7    10    11    1
     8    11    12    1
     9    12    13    1
    10    13    14    1
    11    14     1    1
    12     1     2   ar
    13     2     3   ar
    14     3     4   ar
    15     4     5   ar
    16     5     6   ar
    17     6     7   ar
    18     7     8   ar
    19     8     9   ar
    20     9    22    1
    21    22    23    1
    22    23    24    1
    23    24    25    1
    24    25    26   ar
    25    26    27   ar
    26    27    28   ar
    27    28    29   ar
    28    29    30   ar
    29    14    15    1
    30    15    10    1
    31     9     1   ar
    32    30    25   ar
    33     8     3   ar
@<TRIPOS>MOLECULE
*****
 30 33 0 0 0
SMALL
GASTEIGER

@<TRIPOS>ATOM
      1 C          -8.5059  -18.6436   21.4749 C.ar    1  UNL1        0.1213
      2 N          -9.2262  -17.6347   20.6303 N.ar    1  UNL1       -0.2309
      3 C         -10.6615  -17.6062   21.0652 C.ar    1  UNL1        0.0983
      4 C         -11.8381  -16.8057   20.5912 C.ar    1  UNL1        0.0206
      5 C         -13.1815  -16.9964   21.2306 C.ar    1  UNL1        0.0016
      6 C         -13.3482  -17.9876   22.3441 C.ar    1  UNL1        0.0016
      7 C         -12.1716  -18.7881   22.8181 C.ar    1  UNL1        0.0188
      8 C         -10.8282  -18.5974   22.1786 C.ar    1  UNL1        0.0787
      9 N          -9.4960  -19.2385   22.4318 N.ar    1  UNL1       -0.3110
     10 N          -4.5815  -18.5613   22.0600 N.3     1  UNL1       -0.2646
     11 C          -4.1410  -19.6998   21.1883 C.3     1  UNL1        0.0725
     12 C          -5.1554  -20.4861   20.4121 C.3     1  UNL1        0.0178
     13 C          -6.6104  -20.1341   20.5077 C.3     1  UNL1        0.0103
     14 C          -7.0509  -18.9956   21.3793 C.3     1  UNL1        0.0729
     15 C          -6.0365  -18.2092   22.1555 C.3     1  UNL1        0.0800
     16 C          -3.5670  -17.7749   22.8362 C.3     1  UNL1        0.1587
     17 C          -4.8931  -15.6820   25.9364 C.3     1  UNL1        0.1149
     18 N          -4.6027  -16.0921   24.5231 N.am    1  UNL1       -0.2749
     19 C          -5.0577  -15.2296   23.3833 C.3     1  UNL1        0.1149
     20 C          -3.8574  -17.3647   24.2495 C.2     1  UNL1        0.2421
     21 O          -3.4024  -18.2273   25.3893 O.2     1  UNL1       -0.2734
     22 C          -9.2050  -20.2899   23.4612 C.3     1  UNL1        0.1544
     23 C          -9.6966  -20.1188   24.8679 C.3     1  UNL1        0.2298
     24 O         -10.3910  -18.8517   25.2709 O.3     1  UNL1       -0.4734
     25 C          -9.5868  -17.6388   25.6346 C.ar    1  UNL1        0.1386
     26 C          -9.3263  -16.5762   24.6085 C.ar    1  UNL1        0.0369
     27 C          -8.5222  -15.3633   24.9722 C.ar    1  UNL1        0.0031
     28 C          -7.9785  -15.2130   26.3621 C.ar    1  UNL1        0.0002
     29 C          -8.2390  -16.2756   27.3882 C.ar    1  UNL1        0.0031
     30 C          -9.0432  -17.4885   27.0245 C.ar    1  UNL1        0.0369
@<TRIPOS>BOND
     1    17    18    1
     2    18    19    1
     3    18    20   am
     4    20    21    2
     5    20    16    1
     6    16    10    1
     7    10    11    1
     8    11    12    1
     9    12    13    1
    10    13    14    1
    11    14     1    1
    12     1     2   ar
    13     2     3   ar
    14     3     4   ar
    15     4     5   ar
    16     5     6   ar
    17     6     7   ar
    18     7     8   ar
    19     8     9   ar
    20     9    22    1
    21    22    23    1
    22    23    24    1
    23    24    25    1
    24    25    26   ar
    25    26    27   ar
    26    27    28   ar
    27    28    29   ar
    28    29    30   ar
    29    14    15    1
    30    15    10    1
    31     9     1   ar
    32    30    25   ar
    33     8     3   ar
@<TRIPOS>MOLECULE
*****
 30 33 0 0 0
SMALL
GASTEIGER

@<TRIPOS>ATOM
      1 C         -14.4127   -6.8528   19.1043 C.ar    1  UNL1        0.1213
      2 N         -13.5146   -7.7084   18.2610 N.ar    1  UNL1       -0.2309
      3 C         -12.1414   -7.1053   18.2869 C.ar    1  UNL1        0.0983
      4 C         -10.8525   -7.5160   17.6390 C.ar    1  UNL1        0.0206
      5 C          -9.6129   -6.6983   17.8504 C.ar    1  UNL1        0.0016
      6 C          -9.6623   -5.4699   18.7098 C.ar    1  UNL1        0.0016
      7 C         -10.9513   -5.0592   19.3577 C.ar    1  UNL1        0.0188
      8 C         -12.1909   -5.8769   19.1462 C.ar    1  UNL1        0.0787
      9 N         -13.5946   -5.7208   19.6514 N.ar    1  UNL1       -0.3110
     10 N         -18.3074   -6.1899   19.4814 N.3     1  UNL1       -0.2646
     11 C         -18.7924   -7.5578   19.8603 C.3     1  UNL1        0.0725
     12 C         -17.8175   -8.6907   19.9873 C.3     1  UNL1        0.0178
     13 C         -16.3576   -8.4557   19.7353 C.3     1  UNL1        0.0103
     14 C         -15.8726   -7.0878   19.3563 C.3     1  UNL1        0.0729
     15 C         -16.8475   -5.9549   19.2294 C.3     1  UNL1        0.0800
     16 C         -19.2823   -5.0570   19.3544 C.3     1  UNL1        0.1587
     17 C         -17.8683   -1.3699   18.9587 C.3     1  UNL1        0.1149
     18 N         -18.2952   -2.7680   18.6222 N.am    1  UNL1       -0.2749
     19 C         -18.1620   -3.2750   17.2167 C.3     1  UNL1        0.1149
     20 C         -18.8554   -3.6589   19.6910 C.2     1  UNL1        0.2421
     21 O         -18.9886   -3.1519   21.0964 O.2     1  UNL1       -0.2734
     22 C         -14.0927   -4.6251   20.5466 C.3     1  UNL1        0.1544
     23 C         -14.3979   -3.2716   19.9768 C.3     1  UNL1        0.2298
     24 O         -14.3279   -3.0483   18.4952 O.3     1  UNL1       -0.4734
     25 C         -13.0527   -2.5675   17.8686 C.ar    1  UNL1        0.1386
     26 C         -12.5405   -3.2170   16.6173 C.ar    1  UNL1        0.0369
     27 C         -11.2653   -2.7362   15.9906 C.ar    1  UNL1        0.0031
     28 C         -10.5022   -1.6059   16.6153 C.ar    1  UNL1        0.0002
     29 C         -11.0145   -0.9564   17.8666 C.ar    1  UNL1        0.0031
     30 C         -12.2897   -1.4372   18.4932 C.ar    1  UNL1        0.0369
@<TRIPOS>BOND
     1    17    18    1
     2    18    19    1
     3    18    20   am
     4    20    21    2
     5    20    16    1
     6    16    10    1
     7    10    11    1
     8    11    12    1
     9    12    13    1
    10    13    14    1
    11    14     1    1
    12     1     2   ar
    13     2     3   ar
    14     3     4   ar
    15     4     5   ar
    16     5     6   ar
    17     6     7   ar
    18     7     8   ar
    19     8     9   ar
    20     9    22    1
    21    22    23    1
    22    23    24    1
    23    24    25    1
    24    25    26   ar
    25    26    27   ar
    26    27    28   ar
    27    28    29   ar
    28    29    30   ar
    29    14    15    1
    30    15    10    1
    31     9     1   ar
    32    30    25   ar
    33     8     3   ar
@<TRIPOS>MOLECULE
*****
 30 33 0 0 0
SMALL
GASTEIGER

@<TRIPOS>ATOM
      1 C          -8.2128  -16.4753   23.0956 C.ar    1  UNL1        0.1213
      2 N          -9.5109  -15.8059   23.4374 N.ar    1  UNL1       -0.2309
      3 C         -10.5245  -16.2064   22.4068 C.ar    1  UNL1        0.0983
      4 C         -11.9723  -15.8547   22.2332 C.ar    1  UNL1        0.0206
      5 C         -12.7484  -16.4199   21.0808 C.ar    1  UNL1        0.0016
      6 C         -12.0767  -17.3369   20.1020 C.ar    1  UNL1        0.0016
      7 C         -10.6290  -17.6887   20.2757 C.ar    1  UNL1        0.0188
      8 C          -9.8529  -17.1234   21.4281 C.ar    1  UNL1        0.0787
      9 N          -8.4242  -17.2896   21.8538 N.ar    1  UNL1       -0.3110
     10 N          -4.3922  -16.8617   24.0975 N.3     1  UNL1       -0.2646
     11 C          -4.3608  -16.1055   25.3925 C.3     1  UNL1        0.0725
     12 C          -5.6134  -15.4726   25.9219 C.3     1  UNL1        0.0178
     13 C          -6.8974  -15.5958   25.1563 C.3     1  UNL1        0.0103
     14 C          -6.9288  -16.3520   23.8613 C.3     1  UNL1        0.0729
     15 C          -5.6762  -16.9849   23.3318 C.3     1  UNL1        0.0800
     16 C          -3.1395  -17.4946   23.5680 C.3     1  UNL1        0.1587
     17 C          -1.8071  -17.8777   19.8494 C.3     1  UNL1        0.1149
     18 N          -2.3034  -18.2296   21.2205 N.am    1  UNL1       -0.2749
     19 C          -2.4599  -19.6683   21.6151 C.3     1  UNL1        0.1149
     20 C          -2.6432  -17.1428   22.1969 C.2     1  UNL1        0.2421
     21 O          -2.4867  -15.7041   21.8022 O.2     1  UNL1       -0.2734
     22 C          -7.3886  -18.1236   21.1595 C.3     1  UNL1        0.1544
     23 C          -7.4041  -19.6160   21.3087 C.3     1  UNL1        0.2298
     24 O          -7.8101  -20.2352   22.6133 O.3     1  UNL1       -0.4734
     25 C          -9.1231  -19.8705   23.2402 C.ar    1  UNL1        0.1386
     26 C          -9.1548  -19.2327   24.5974 C.ar    1  UNL1        0.0369
     27 C         -10.4678  -18.8679   25.2243 C.ar    1  UNL1        0.0031
     28 C         -11.7492  -19.1410   24.4939 C.ar    1  UNL1        0.0002
     29 C         -11.7175  -19.7788   23.1367 C.ar    1  UNL1        0.0031
     30 C         -10.4045  -20.1436   22.5098 C.ar    1  UNL1        0.0369
@<TRIPOS>BOND
     1    17    18    1
     2    18    19    1
     3    18    20   am
     4    20    21    2
     5    20    16    1
     6    16    10    1
     7    10    11    1
     8    11    12    1
     9    12    13    1
    10    13    14    1
    11    14     1    1
    12     1     2   ar
    13     2     3   ar
    14     3     4   ar
    15     4     5   ar
    16     5     6   ar
    17     6     7   ar
    18     7     8   ar
    19     8     9   ar
    20     9    22    1
    21    22    23    1
    22    23    24    1
    23    24    25    1
    24    25    26   ar
    25    26    27   ar
    26    27    28   ar
    27    28    29   ar
    28    29    30   ar
    29    14    15    1
    30    15    10    1
    31     9     1   ar
    32    30    25   ar
    33     8     3   ar
