@<TRIPOS>MOLECULE
*****
 27 30 0 0 0
SMALL
GASTEIGER

@<TRIPOS>ATOM
      1 C          -8.4656  -18.8363   21.4098 C.2     1  UNL1        0.2252
      2 O          -8.3408  -18.8000   19.9154 O.2     1  UNL1       -0.2750
      3 N          -7.5914  -19.7527   22.2134 N.am    1  UNL1       -0.3004
      4 H          -7.6734  -19.7765   23.1942 H       1  UNL1        0.1497
      5 C          -9.4647  -17.9560   22.1005 C.3     1  UNL1        0.1154
      6 C         -10.5144  -17.7338   23.7970 C.3     1  UNL1        0.0335
      7 C          -9.1230  -17.3227   23.4165 C.3     1  UNL1        0.1377
      8 C          -9.0721  -16.7753   24.8121 C.3     1  UNL1        0.0613
      9 C          -7.7205  -16.1582   25.0190 C.3     1  UNL1        0.1290
     10 C          -6.3362  -15.5838   25.0784 C.3     1  UNL1        0.0305
     11 C          -5.8538  -14.9176   26.3328 C.3     1  UNL1        0.0025
     12 C          -6.7557  -14.8259   27.5278 C.3     1  UNL1        0.0002
     13 C          -8.1401  -15.4004   27.4685 C.3     1  UNL1        0.0025
     14 C          -8.6225  -16.0665   26.2141 C.3     1  UNL1        0.0305
     15 O          -6.9362  -16.3243   23.7513 O.3     1  UNL1       -0.2256
     16 O          -7.8030  -17.0440   22.7609 O.3     1  UNL1       -0.2251
     17 C          -6.5924  -20.6329   21.5227 C.3     1  UNL1        0.1164
     18 C          -5.2951  -20.0574   21.0369 C.ar    1  UNL1        0.0006
     19 C          -4.5633  -20.7102   19.9018 C.ar    1  UNL1        0.0007
     20 C          -3.2661  -20.1347   19.4160 C.ar    1  UNL1        0.0398
     21 C          -2.7006  -18.9064   20.0653 C.ar    1  UNL1        0.1724
     22 C          -3.4323  -18.2536   21.2004 C.ar    1  UNL1        0.1721
     23 C          -4.7296  -18.8291   21.6862 C.ar    1  UNL1        0.0374
     24 O          -2.8669  -17.0253   21.8496 O.3     1  UNL1       -0.4684
     25 C          -1.5697  -16.4499   21.3638 C.3     1  UNL1        0.2526
     26 C          -0.8379  -17.1027   20.2288 C.3     1  UNL1        0.2526
     27 O          -1.4034  -18.3310   19.5795 O.3     1  UNL1       -0.4684
@<TRIPOS>BOND
     1     6     7    1
     2     7     5    1
     3     5     1    1
     4     1     2    2
     5     1     3   am
     6     3    17    1
     7    17    18    1
     8    18    19   ar
     9    19    20   ar
    10    20    21   ar
    11    21    22   ar
    12    22    23   ar
    13    22    24    1
    14    24    25    1
    15    25    26    1
    16    26    27    1
    17     7     8    1
    18     8     9    1
    19     9    10    1
    20    10    11    1
    21    11    12    1
    22    12    13    1
    23    13    14    1
    24     9    15    1
    25    15    16    1
    26    16     7    1
    27    23    18   ar
    28    14     9    1
    29    27    21    1
    30     3     4    1
@<TRIPOS>MOLECULE
*****
 27 30 0 0 0
SMALL
GASTEIGER

@<TRIPOS>ATOM
      1 C          -4.6469  -19.0688   20.7131 C.2     1  UNL1        0.2252
      2 O          -4.5974  -18.5317   19.3134 O.2     1  UNL1       -0.2750
      3 N          -5.7228  -20.0367   21.1075 N.am    1  UNL1       -0.3004
      4 H          -5.7552  -20.3892   22.0262 H       1  UNL1        0.1497
      5 C          -3.6204  -18.6378   21.7185 C.3     1  UNL1        0.1154
      6 C          -2.6034  -17.9897   23.3233 C.3     1  UNL1        0.0335
      7 C          -4.0268  -17.7959   22.8915 C.3     1  UNL1        0.1377
      8 C          -4.1356  -16.9944   24.1548 C.3     1  UNL1        0.0613
      9 C          -5.5414  -16.4813   24.2586 C.3     1  UNL1        0.1290
     10 C          -6.9751  -16.0417   24.2264 C.3     1  UNL1        0.0305
     11 C          -7.5244  -15.1932   25.3347 C.3     1  UNL1        0.0025
     12 C          -6.6400  -14.7844   26.4752 C.3     1  UNL1        0.0002
     13 C          -5.2062  -15.2240   26.5073 C.3     1  UNL1        0.0025
     14 C          -4.6569  -16.0725   25.3990 C.3     1  UNL1        0.0305
     15 O          -6.3013  -16.9656   23.0594 O.3     1  UNL1       -0.2256
     16 O          -5.3652  -17.7781   22.2145 O.3     1  UNL1       -0.2251
     17 C          -6.7491  -20.4677   20.1021 C.3     1  UNL1        0.1164
     18 C          -8.0780  -19.7743   20.0425 C.ar    1  UNL1        0.0006
     19 C          -9.0539  -20.1155   18.9557 C.ar    1  UNL1        0.0007
     20 C         -10.3827  -19.4222   18.8961 C.ar    1  UNL1        0.0398
     21 C         -10.7356  -18.3875   19.9232 C.ar    1  UNL1        0.1724
     22 C          -9.7597  -18.0462   21.0100 C.ar    1  UNL1        0.1721
     23 C          -8.4308  -18.7396   21.0696 C.ar    1  UNL1        0.0374
     24 O         -10.1125  -17.0116   22.0371 O.3     1  UNL1       -0.4684
     25 C         -11.4413  -16.3183   21.9774 C.3     1  UNL1        0.2526
     26 C         -12.4172  -16.6596   20.8907 C.3     1  UNL1        0.2526
     27 O         -12.0644  -17.6942   19.8636 O.3     1  UNL1       -0.4684
@<TRIPOS>BOND
     1     6     7    1
     2     7     5    1
     3     5     1    1
     4     1     2    2
     5     1     3   am
     6     3    17    1
     7    17    18    1
     8    18    19   ar
     9    19    20   ar
    10    20    21   ar
    11    21    22   ar
    12    22    23   ar
    13    22    24    1
    14    24    25    1
    15    25    26    1
    16    26    27    1
    17     7     8    1
    18     8     9    1
    19     9    10    1
    20    10    11    1
    21    11    12    1
    22    12    13    1
    23    13    14    1
    24     9    15    1
    25    15    16    1
    26    16     7    1
    27    23    18   ar
    28    14     9    1
    29    27    21    1
    30     3     4    1
@<TRIPOS>MOLECULE
*****
 27 30 0 0 0
SMALL
GASTEIGER

@<TRIPOS>ATOM
      1 C          -8.4784  -19.3281   19.9061 C.2     1  UNL1        0.2252
      2 O          -8.3816  -20.5789   19.0838 O.2     1  UNL1       -0.2750
      3 N          -7.4546  -19.0458   20.9653 N.am    1  UNL1       -0.3004
      4 H          -7.5181  -18.2249   21.5050 H       1  UNL1        0.1497
      5 C          -9.5992  -18.3596   19.6691 C.3     1  UNL1        0.1154
      6 C         -11.4231  -17.5274   19.5681 C.3     1  UNL1        0.0335
      7 C         -10.6957  -18.2188   20.6829 C.3     1  UNL1        0.1377
      8 C         -11.9443  -17.9334   21.4636 C.3     1  UNL1        0.0613
      9 C         -11.7593  -18.4779   22.8491 C.3     1  UNL1        0.1290
     10 C         -11.4318  -19.0693   24.1881 C.3     1  UNL1        0.0305
     11 C         -12.4338  -19.0035   25.3024 C.3     1  UNL1        0.0025
     12 C         -13.7633  -18.3463   25.0776 C.3     1  UNL1        0.0002
     13 C         -14.0908  -17.7549   23.7386 C.3     1  UNL1        0.0025
     14 C         -13.0888  -17.8207   22.6243 C.3     1  UNL1        0.0305
     15 O         -10.3964  -19.0998   22.9245 O.3     1  UNL1       -0.2256
     16 O          -9.7390  -18.9397   21.5858 O.3     1  UNL1       -0.2251
     17 C          -6.3339  -20.0143   21.2023 C.3     1  UNL1        0.1164
     18 C          -4.9148  -19.5286   21.2235 C.ar    1  UNL1        0.0006
     19 C          -4.2068  -19.3383   22.5322 C.ar    1  UNL1        0.0007
     20 C          -2.7878  -18.8527   22.5535 C.ar    1  UNL1        0.0398
     21 C          -2.0767  -18.5574   21.2661 C.ar    1  UNL1        0.1724
     22 C          -2.7847  -18.7477   19.9575 C.ar    1  UNL1        0.1721
     23 C          -4.2038  -19.2333   19.9362 C.ar    1  UNL1        0.0374
     24 O          -2.0737  -18.4524   18.6702 O.3     1  UNL1       -0.4684
     25 C          -0.6547  -17.9668   18.6915 C.3     1  UNL1        0.2526
     26 C           0.0533  -17.7765   20.0002 C.3     1  UNL1        0.2526
     27 O          -0.6577  -18.0718   21.2875 O.3     1  UNL1       -0.4684
@<TRIPOS>BOND
     1     6     7    1
     2     7     5    1
     3     5     1    1
     4     1     2    2
     5     1     3   am
     6     3    17    1
     7    17    18    1
     8    18    19   ar
     9    19    20   ar
    10    20    21   ar
    11    21    22   ar
    12    22    23   ar
    13    22    24    1
    14    24    25    1
    15    25    26    1
    16    26    27    1
    17     7     8    1
    18     8     9    1
    19     9    10    1
    20    10    11    1
    21    11    12    1
    22    12    13    1
    23    13    14    1
    24     9    15    1
    25    15    16    1
    26    16     7    1
    27    23    18   ar
    28    14     9    1
    29    27    21    1
    30     3     4    1
