@<TRIPOS>MOLECULE
*****
 27 30 0 0 0
SMALL
GASTEIGER

@<TRIPOS>ATOM
      1 C           6.2882   -2.1980   19.2337 C.2     1  UNL1        0.0919
      2 C           7.7733   -2.0373   19.0980 C.2     1  UNL1        0.0183
      3 C           8.6903   -2.6543   20.1121 C.2     1  UNL1        0.0511
      4 C           8.1221   -3.4321   21.2619 C.2     1  UNL1        0.2322
      5 N           8.7725   -4.1483   22.4082 N.2     1  UNL1       -0.0308
      6 C           7.6893   -4.7517   23.2524 C.2     1  UNL1        0.3749
      7 N           6.3695   -4.4084   22.6279 N.2     1  UNL1       -0.0347
      8 C           6.6370   -3.5928   21.3977 C.2     1  UNL1        0.2191
      9 C           5.7200   -2.9757   20.3836 C.3     1  UNL1        0.1226
     10 C           7.8907   -5.5570   24.5018 C.ar    1  UNL1        0.0845
     11 C           7.5280   -4.9750   25.8358 C.ar    1  UNL1        0.0074
     12 C           7.7293   -5.7803   27.0852 C.ar    1  UNL1        0.0002
     13 C           8.2935   -7.1676   27.0005 C.ar    1  UNL1       -0.0003
     14 C           8.6562   -7.7496   25.6665 C.ar    1  UNL1       -0.0040
     15 C           8.4549   -6.9443   24.4171 C.ar    1  UNL1       -0.0144
     16 C           8.8176   -7.5263   23.0831 C.3     1  UNL1        0.0313
     17 C           7.3666   -5.1983   28.4193 C.ar    1  UNL1        0.0000
     18 C           7.4260   -6.0520   29.6512 C.ar    1  UNL1        0.0000
     19 C           7.0633   -5.4700   30.9852 C.ar    1  UNL1        0.0000
     20 C           6.6411   -4.0343   31.0873 C.ar    1  UNL1        0.0000
     21 C           6.5816   -3.1806   29.8554 C.ar    1  UNL1        0.0000
     22 C           6.9444   -3.7626   28.5214 C.ar    1  UNL1        0.0000
     23 S           5.3712   -1.5809   18.2196 S.O2    1  UNL1        0.0054
     24 O           4.2548   -1.5938   19.2213 O.2     1  UNL1       -0.1689
     25 O           6.4877   -1.5680   17.2179 O.2     1  UNL1       -0.1689
     26 C           3.2488   -0.1927   17.6553 C.3     1  UNL1        0.0276
     27 C           4.4542   -0.9638   17.2055 C.3     1  UNL1        0.1556
@<TRIPOS>BOND
     1    26    27    1
     2    27    23    1
     3    23    24    2
     4    23    25    2
     5    23     1    1
     6     1     2    2
     7     2     3    1
     8     3     4    2
     9     4     5    1
    10     5     6    2
    11     6    10    1
    12    10    11   ar
    13    11    12   ar
    14    12    17    1
    15    17    18   ar
    16    18    19   ar
    17    19    20   ar
    18    20    21   ar
    19    21    22   ar
    20    12    13   ar
    21    13    14   ar
    22    14    15   ar
    23    15    16    1
    24     6     7    1
    25     7     8    2
    26     8     9    1
    27     9     1    1
    28     8     4    1
    29    15    10   ar
    30    22    17   ar
@<TRIPOS>MOLECULE
*****
 27 30 0 0 0
SMALL
GASTEIGER

@<TRIPOS>ATOM
      1 C           7.5699   -5.8730   27.0792 C.2     1  UNL1        0.0919
      2 C           8.0312   -7.0542   26.2780 C.2     1  UNL1        0.0183
      3 C           8.0579   -6.9802   24.7801 C.2     1  UNL1        0.0511
      4 C           7.6234   -5.7250   24.0833 C.2     1  UNL1        0.2322
      5 N           7.5420   -5.3602   22.6306 N.2     1  UNL1       -0.0308
      6 C           7.0304   -3.9534   22.5340 C.2     1  UNL1        0.3749
      7 N           6.7956   -3.4488   23.9269 N.2     1  UNL1       -0.0347
      8 C           7.1621   -4.5438   24.8844 C.2     1  UNL1        0.2191
      9 C           7.1353   -4.6178   26.3824 C.3     1  UNL1        0.1226
     10 C           6.7949   -3.1860   21.2668 C.ar    1  UNL1        0.0845
     11 C           5.4737   -2.5164   21.0300 C.ar    1  UNL1        0.0074
     12 C           5.2383   -1.7490   19.7628 C.ar    1  UNL1        0.0002
     13 C           6.3240   -1.6512   18.7326 C.ar    1  UNL1       -0.0003
     14 C           7.6452   -2.3207   18.9694 C.ar    1  UNL1       -0.0040
     15 C           7.8807   -3.0881   20.2365 C.ar    1  UNL1       -0.0144
     16 C           9.2019   -3.7577   20.4733 C.3     1  UNL1        0.0313
     17 C           3.9170   -1.0795   19.5260 C.ar    1  UNL1        0.0000
     18 C           3.7803   -0.0530   18.4409 C.ar    1  UNL1        0.0000
     19 C           2.4590    0.6166   18.2041 C.ar    1  UNL1        0.0000
     20 C           1.2746    0.2596   19.0524 C.ar    1  UNL1        0.0000
     21 C           1.4114   -0.7670   20.1375 C.ar    1  UNL1        0.0000
     22 C           2.7326   -1.4365   20.3743 C.ar    1  UNL1        0.0000
     23 S           7.5431   -5.9470   28.5771 S.O2    1  UNL1        0.0054
     24 O           8.9087   -6.5677   28.5708 O.2     1  UNL1       -0.1689
     25 O           6.1776   -5.3262   28.5834 O.2     1  UNL1       -0.1689
     26 C           7.0455   -4.8433   30.8758 C.3     1  UNL1        0.0276
     27 C           7.5164   -6.0210   30.0750 C.3     1  UNL1        0.1556
@<TRIPOS>BOND
     1    26    27    1
     2    27    23    1
     3    23    24    2
     4    23    25    2
     5    23     1    1
     6     1     2    2
     7     2     3    1
     8     3     4    2
     9     4     5    1
    10     5     6    2
    11     6    10    1
    12    10    11   ar
    13    11    12   ar
    14    12    17    1
    15    17    18   ar
    16    18    19   ar
    17    19    20   ar
    18    20    21   ar
    19    21    22   ar
    20    12    13   ar
    21    13    14   ar
    22    14    15   ar
    23    15    16    1
    24     6     7    1
    25     7     8    2
    26     8     9    1
    27     9     1    1
    28     8     4    1
    29    15    10   ar
    30    22    17   ar
@<TRIPOS>MOLECULE
*****
 27 30 0 0 0
SMALL
GASTEIGER

@<TRIPOS>ATOM
      1 C           3.2518   -0.9543   18.9369 C.2     1  UNL1        0.0919
      2 C           3.6198    0.2672   18.1478 C.2     1  UNL1        0.0183
      3 C           2.8376    1.5354   18.3205 C.2     1  UNL1        0.0511
      4 C           1.6875    1.5822   19.2822 C.2     1  UNL1        0.2322
      5 N           0.7402    2.6816   19.6613 N.2     1  UNL1       -0.0308
      6 C          -0.2133    2.1397   20.6847 C.2     1  UNL1        0.3749
      7 N           0.1448    0.7053   20.9382 N.2     1  UNL1       -0.0347
      8 C           1.3196    0.3607   20.0713 C.2     1  UNL1        0.2191
      9 C           2.1017   -0.9075   19.8987 C.3     1  UNL1        0.1226
     10 C          -1.3289    2.8990   21.3397 C.ar    1  UNL1        0.0845
     11 C          -2.5971    3.1680   20.5852 C.ar    1  UNL1        0.0074
     12 C          -3.7128    3.9272   21.2401 C.ar    1  UNL1        0.0002
     13 C          -3.5601    4.4174   22.6495 C.ar    1  UNL1       -0.0003
     14 C          -2.2919    4.1484   23.4040 C.ar    1  UNL1       -0.0040
     15 C          -1.1763    3.3892   22.7491 C.ar    1  UNL1       -0.0144
     16 C           0.0919    3.1201   23.5036 C.3     1  UNL1        0.0313
     17 C          -4.9810    4.1963   20.4857 C.ar    1  UNL1        0.0000
     18 C          -5.8570    5.3488   20.8781 C.ar    1  UNL1        0.0000
     19 C          -7.1253    5.6179   20.1237 C.ar    1  UNL1        0.0000
     20 C          -7.5174    4.7344   18.9767 C.ar    1  UNL1        0.0000
     21 C          -6.6414    3.5818   18.5842 C.ar    1  UNL1        0.0000
     22 C          -5.3731    3.3128   19.3387 C.ar    1  UNL1        0.0000
     23 S           4.0340   -2.2225   18.7642 S.O2    1  UNL1        0.0054
     24 O           3.4965   -2.7316   20.0688 O.2     1  UNL1       -0.1689
     25 O           4.5715   -1.7134   17.4597 O.2     1  UNL1       -0.1689
     26 C           4.2029   -4.8071   18.9668 C.3     1  UNL1        0.0276
     27 C           4.8162   -3.4907   18.5916 C.3     1  UNL1        0.1556
@<TRIPOS>BOND
     1    26    27    1
     2    27    23    1
     3    23    24    2
     4    23    25    2
     5    23     1    1
     6     1     2    2
     7     2     3    1
     8     3     4    2
     9     4     5    1
    10     5     6    2
    11     6    10    1
    12    10    11   ar
    13    11    12   ar
    14    12    17    1
    15    17    18   ar
    16    18    19   ar
    17    19    20   ar
    18    20    21   ar
    19    21    22   ar
    20    12    13   ar
    21    13    14   ar
    22    14    15   ar
    23    15    16    1
    24     6     7    1
    25     7     8    2
    26     8     9    1
    27     9     1    1
    28     8     4    1
    29    15    10   ar
    30    22    17   ar
@<TRIPOS>MOLECULE
*****
 27 30 0 0 0
SMALL
GASTEIGER

@<TRIPOS>ATOM
      1 C           3.3093   -0.8293   18.9001 C.2     1  UNL1        0.0919
      2 C           3.8862    0.4036   18.2700 C.2     1  UNL1        0.0183
      3 C           3.1466    1.7058   18.3554 C.2     1  UNL1        0.0511
      4 C           1.8301    1.7751   19.0709 C.2     1  UNL1        0.2322
      5 N           0.8794    2.9091   19.3160 N.2     1  UNL1       -0.0308
      6 C          -0.2852    2.3771   20.0976 C.2     1  UNL1        0.3749
      7 N          -0.0541    0.9142   20.3355 N.2     1  UNL1       -0.0347
      8 C           1.2532    0.5422   19.7010 C.2     1  UNL1        0.2191
      9 C           1.9928   -0.7600   19.6156 C.3     1  UNL1        0.1226
     10 C          -1.4723    3.1690   20.5600 C.ar    1  UNL1        0.0845
     11 C          -1.8341    3.1974   22.0154 C.ar    1  UNL1        0.0074
     12 C          -3.0211    3.9892   22.4779 C.ar    1  UNL1        0.0002
     13 C          -3.8464    4.7526   21.4849 C.ar    1  UNL1       -0.0003
     14 C          -3.4846    4.7242   20.0294 C.ar    1  UNL1       -0.0040
     15 C          -2.2976    3.9324   19.5670 C.ar    1  UNL1       -0.0144
     16 C          -1.9358    3.9039   18.1115 C.3     1  UNL1        0.0313
     17 C          -3.3829    4.0176   23.9333 C.ar    1  UNL1        0.0000
     18 C          -4.7565    4.4467   24.3565 C.ar    1  UNL1        0.0000
     19 C          -5.1182    4.4751   25.8119 C.ar    1  UNL1        0.0000
     20 C          -4.1064    4.0744   26.8442 C.ar    1  UNL1        0.0000
     21 C          -2.7328    3.6454   26.4210 C.ar    1  UNL1        0.0000
     22 C          -2.3711    3.6169   24.9656 C.ar    1  UNL1        0.0000
     23 S           4.0489   -2.1315   18.8147 S.O2    1  UNL1        0.0054
     24 O           4.5882   -1.7371   17.4717 O.2     1  UNL1       -0.1689
     25 O           3.5095   -2.5259   20.1576 O.2     1  UNL1       -0.1689
     26 C           4.0647   -4.7247   18.9731 C.3     1  UNL1        0.0276
     27 C           4.7884   -3.4337   18.7293 C.3     1  UNL1        0.1556
@<TRIPOS>BOND
     1    26    27    1
     2    27    23    1
     3    23    24    2
     4    23    25    2
     5    23     1    1
     6     1     2    2
     7     2     3    1
     8     3     4    2
     9     4     5    1
    10     5     6    2
    11     6    10    1
    12    10    11   ar
    13    11    12   ar
    14    12    17    1
    15    17    18   ar
    16    18    19   ar
    17    19    20   ar
    18    20    21   ar
    19    21    22   ar
    20    12    13   ar
    21    13    14   ar
    22    14    15   ar
    23    15    16    1
    24     6     7    1
    25     7     8    2
    26     8     9    1
    27     9     1    1
    28     8     4    1
    29    15    10   ar
    30    22    17   ar
@<TRIPOS>MOLECULE
*****
 27 30 0 0 0
SMALL
GASTEIGER

@<TRIPOS>ATOM
      1 C          -5.0140    4.9466   24.9005 C.2     1  UNL1        0.0919
      2 C          -6.0501    4.3299   24.0082 C.2     1  UNL1        0.0183
      3 C          -5.6339    3.6260   22.7507 C.2     1  UNL1        0.0511
      4 C          -4.1817    3.5388   22.3855 C.2     1  UNL1        0.2322
      5 N          -3.4759    2.9138   21.2188 N.2     1  UNL1       -0.0308
      6 C          -2.0036    3.1443   21.3900 C.2     1  UNL1        0.3749
      7 N          -1.7995    3.9117   22.6625 N.2     1  UNL1       -0.0347
      8 C          -3.1456    4.1555   23.2778 C.2     1  UNL1        0.2191
      9 C          -3.5618    4.8594   24.5353 C.3     1  UNL1        0.1226
     10 C          -0.9248    2.6875   20.4531 C.ar    1  UNL1        0.0845
     11 C          -0.0009    1.5772   20.8575 C.ar    1  UNL1        0.0074
     12 C           1.0778    1.1204   19.9207 C.ar    1  UNL1        0.0002
     13 C           1.2326    1.7739   18.5795 C.ar    1  UNL1       -0.0003
     14 C           0.3087    2.8843   18.1751 C.ar    1  UNL1       -0.0040
     15 C          -0.7700    3.3411   19.1119 C.ar    1  UNL1       -0.0144
     16 C          -1.6940    4.4514   18.7075 C.3     1  UNL1        0.0313
     17 C           2.0017    0.0101   20.3251 C.ar    1  UNL1        0.0000
     18 C           2.5571   -0.9191   19.2868 C.ar    1  UNL1        0.0000
     19 C           3.4811   -2.0295   19.6912 C.ar    1  UNL1        0.0000
     20 C           3.8496   -2.2106   21.1338 C.ar    1  UNL1        0.0000
     21 C           3.2942   -1.2814   22.1721 C.ar    1  UNL1        0.0000
     22 C           2.3703   -0.1711   21.7677 C.ar    1  UNL1        0.0000
     23 S          -5.4302    5.6506   26.1580 S.O2    1  UNL1        0.0054
     24 O          -5.9770    6.7845   25.3423 O.2     1  UNL1       -0.1689
     25 O          -4.8834    4.5167   26.9736 O.2     1  UNL1       -0.1689
     26 C          -7.2604    6.2443   27.9038 C.3     1  UNL1        0.0276
     27 C          -5.8464    6.3545   27.4154 C.3     1  UNL1        0.1556
@<TRIPOS>BOND
     1    26    27    1
     2    27    23    1
     3    23    24    2
     4    23    25    2
     5    23     1    1
     6     1     2    2
     7     2     3    1
     8     3     4    2
     9     4     5    1
    10     5     6    2
    11     6    10    1
    12    10    11   ar
    13    11    12   ar
    14    12    17    1
    15    17    18   ar
    16    18    19   ar
    17    19    20   ar
    18    20    21   ar
    19    21    22   ar
    20    12    13   ar
    21    13    14   ar
    22    14    15   ar
    23    15    16    1
    24     6     7    1
    25     7     8    2
    26     8     9    1
    27     9     1    1
    28     8     4    1
    29    15    10   ar
    30    22    17   ar
@<TRIPOS>MOLECULE
*****
 27 30 0 0 0
SMALL
GASTEIGER

@<TRIPOS>ATOM
      1 C         -12.3151   -5.0226   19.2024 C.2     1  UNL1        0.0919
      2 C         -13.4712   -5.9012   19.5784 C.2     1  UNL1        0.0183
      3 C         -14.8281   -5.3015   19.7998 C.2     1  UNL1        0.0511
      4 C         -15.0290   -3.8231   19.6452 C.2     1  UNL1        0.2322
      5 N         -16.2416   -2.9535   19.7981 N.2     1  UNL1       -0.0308
      6 C         -15.8349   -1.5373   19.5166 C.2     1  UNL1        0.3749
      7 N         -14.3710   -1.5317   19.1897 N.2     1  UNL1       -0.0347
      8 C         -13.8729   -2.9444   19.2692 C.2     1  UNL1        0.2191
      9 C         -12.5160   -3.5442   19.0478 C.3     1  UNL1        0.1226
     10 C         -16.7344   -0.3375   19.5551 C.ar    1  UNL1        0.0845
     11 C         -16.7735    0.5315   20.7771 C.ar    1  UNL1        0.0074
     12 C         -17.6729    1.7313   20.8158 C.ar    1  UNL1        0.0002
     13 C         -18.5332    2.0621   19.6324 C.ar    1  UNL1       -0.0003
     14 C         -18.4941    1.1931   18.4104 C.ar    1  UNL1       -0.0040
     15 C         -17.5947   -0.0067   18.3718 C.ar    1  UNL1       -0.0144
     16 C         -17.5556   -0.8757   17.1498 C.3     1  UNL1        0.0313
     17 C         -17.7120    2.6003   22.0378 C.ar    1  UNL1        0.0000
     18 C         -16.6024    3.5748   22.3009 C.ar    1  UNL1        0.0000
     19 C         -16.6415    4.4438   23.5229 C.ar    1  UNL1        0.0000
     20 C         -17.7901    4.3384   24.4818 C.ar    1  UNL1        0.0000
     21 C         -18.8997    3.3639   24.2187 C.ar    1  UNL1        0.0000
     22 C         -18.8606    2.4949   22.9967 C.ar    1  UNL1        0.0000
     23 S         -10.9582   -5.6223   18.9810 S.O2    1  UNL1        0.0054
     24 O         -11.5626   -6.9950   18.9948 O.2     1  UNL1       -0.1689
     25 O         -10.3537   -4.2496   18.9671 O.2     1  UNL1       -0.1689
     26 C          -9.4380   -7.7125   18.7163 C.3     1  UNL1        0.0276
     27 C          -9.6012   -6.2220   18.7595 C.3     1  UNL1        0.1556
@<TRIPOS>BOND
     1    26    27    1
     2    27    23    1
     3    23    24    2
     4    23    25    2
     5    23     1    1
     6     1     2    2
     7     2     3    1
     8     3     4    2
     9     4     5    1
    10     5     6    2
    11     6    10    1
    12    10    11   ar
    13    11    12   ar
    14    12    17    1
    15    17    18   ar
    16    18    19   ar
    17    19    20   ar
    18    20    21   ar
    19    21    22   ar
    20    12    13   ar
    21    13    14   ar
    22    14    15   ar
    23    15    16    1
    24     6     7    1
    25     7     8    2
    26     8     9    1
    27     9     1    1
    28     8     4    1
    29    15    10   ar
    30    22    17   ar
@<TRIPOS>MOLECULE
*****
 27 30 0 0 0
SMALL
GASTEIGER

@<TRIPOS>ATOM
      1 C          -4.8307    4.2151   23.1820 C.2     1  UNL1        0.0919
      2 C          -3.8649    4.5976   24.2641 C.2     1  UNL1        0.0183
      3 C          -2.4061    4.2830   24.1130 C.2     1  UNL1        0.0511
      4 C          -1.9130    3.5859   22.8798 C.2     1  UNL1        0.2322
      5 N          -0.5428    3.1485   22.4540 N.2     1  UNL1       -0.0308
      6 C          -0.6618    2.4957   21.1087 C.2     1  UNL1        0.3749
      7 N          -2.1054    2.5295   20.7031 N.2     1  UNL1       -0.0347
      8 C          -2.8788    3.2033   21.7977 C.2     1  UNL1        0.2191
      9 C          -4.3376    3.5179   21.9488 C.3     1  UNL1        0.1226
     10 C           0.4652    1.9115   20.3095 C.ar    1  UNL1        0.0845
     11 C           1.1599    0.6711   20.7880 C.ar    1  UNL1        0.0074
     12 C           2.2868    0.0870   19.9888 C.ar    1  UNL1        0.0002
     13 C           2.7191    0.7432   18.7111 C.ar    1  UNL1       -0.0003
     14 C           2.0245    1.9836   18.2327 C.ar    1  UNL1       -0.0040
     15 C           0.8975    2.5677   19.0318 C.ar    1  UNL1       -0.0144
     16 C           0.2029    3.8081   18.5534 C.3     1  UNL1        0.0313
     17 C           2.9815   -1.1534   20.4673 C.ar    1  UNL1        0.0000
     18 C           3.4417   -1.2533   21.8914 C.ar    1  UNL1        0.0000
     19 C           4.1364   -2.4936   22.3698 C.ar    1  UNL1        0.0000
     20 C           4.3708   -3.6341   21.4242 C.ar    1  UNL1        0.0000
     21 C           3.9105   -3.5342   20.0001 C.ar    1  UNL1        0.0000
     22 C           3.2159   -2.2939   19.5216 C.ar    1  UNL1        0.0000
     23 S          -6.2895    4.5297   23.3331 S.O2    1  UNL1        0.0054
     24 O          -6.4765    4.3738   21.8530 O.2     1  UNL1       -0.1689
     25 O          -6.1026    4.6855   24.8132 O.2     1  UNL1       -0.1689
     26 C          -8.1961    5.8587   24.4943 C.3     1  UNL1        0.0276
     27 C          -7.7484    4.8443   23.4842 C.3     1  UNL1        0.1556
@<TRIPOS>BOND
     1    26    27    1
     2    27    23    1
     3    23    24    2
     4    23    25    2
     5    23     1    1
     6     1     2    2
     7     2     3    1
     8     3     4    2
     9     4     5    1
    10     5     6    2
    11     6    10    1
    12    10    11   ar
    13    11    12   ar
    14    12    17    1
    15    17    18   ar
    16    18    19   ar
    17    19    20   ar
    18    20    21   ar
    19    21    22   ar
    20    12    13   ar
    21    13    14   ar
    22    14    15   ar
    23    15    16    1
    24     6     7    1
    25     7     8    2
    26     8     9    1
    27     9     1    1
    28     8     4    1
    29    15    10   ar
    30    22    17   ar
@<TRIPOS>MOLECULE
*****
 27 30 0 0 0
SMALL
GASTEIGER

@<TRIPOS>ATOM
      1 C          -3.9848    4.0241   21.0714 C.2     1  UNL1        0.0919
      2 C          -3.3888    4.0239   22.4479 C.2     1  UNL1        0.0183
      3 C          -1.9503    3.6457   22.6422 C.2     1  UNL1        0.0511
      4 C          -1.1079    3.2676   21.4601 C.2     1  UNL1        0.2322
      5 N           0.3286    2.8523   21.3430 N.2     1  UNL1       -0.0308
      6 C           0.6204    2.5957   19.8942 C.2     1  UNL1        0.3749
      7 N          -0.6358    2.8525   19.1158 N.2     1  UNL1       -0.0347
      8 C          -1.7040    3.2678   20.0837 C.2     1  UNL1        0.2191
      9 C          -3.1425    3.6460   19.8893 C.3     1  UNL1        0.1226
     10 C           1.9373    2.1590   19.3239 C.ar    1  UNL1        0.0845
     11 C           2.3180    0.7082   19.3412 C.ar    1  UNL1        0.0074
     12 C           3.6348    0.2715   18.7709 C.ar    1  UNL1        0.0002
     13 C           4.5710    1.2856   18.1834 C.ar    1  UNL1       -0.0003
     14 C           4.1903    2.7364   18.1661 C.ar    1  UNL1       -0.0040
     15 C           2.8735    3.1731   18.7364 C.ar    1  UNL1       -0.0144
     16 C           2.4928    4.6239   18.7191 C.3     1  UNL1        0.0313
     17 C           4.0155   -1.1793   18.7882 C.ar    1  UNL1        0.0000
     18 C           5.2425   -1.6414   18.0597 C.ar    1  UNL1        0.0000
     19 C           5.6232   -3.0922   18.0769 C.ar    1  UNL1        0.0000
     20 C           4.7768   -4.0808   18.8227 C.ar    1  UNL1        0.0000
     21 C           3.5498   -3.6187   19.5512 C.ar    1  UNL1        0.0000
     22 C           3.1691   -2.1679   19.5339 C.ar    1  UNL1        0.0000
     23 S          -5.4233    4.4024   20.8771 S.O2    1  UNL1        0.0054
     24 O          -5.1328    4.7759   19.4537 O.2     1  UNL1       -0.1689
     25 O          -5.7138    4.0288   22.3005 O.2     1  UNL1       -0.1689
     26 C          -7.3568    5.1731   19.3223 C.3     1  UNL1        0.0276
     27 C          -6.8617    4.7806   20.6827 C.3     1  UNL1        0.1556
@<TRIPOS>BOND
     1    26    27    1
     2    27    23    1
     3    23    24    2
     4    23    25    2
     5    23     1    1
     6     1     2    2
     7     2     3    1
     8     3     4    2
     9     4     5    1
    10     5     6    2
    11     6    10    1
    12    10    11   ar
    13    11    12   ar
    14    12    17    1
    15    17    18   ar
    16    18    19   ar
    17    19    20   ar
    18    20    21   ar
    19    21    22   ar
    20    12    13   ar
    21    13    14   ar
    22    14    15   ar
    23    15    16    1
    24     6     7    1
    25     7     8    2
    26     8     9    1
    27     9     1    1
    28     8     4    1
    29    15    10   ar
    30    22    17   ar
@<TRIPOS>MOLECULE
*****
 27 30 0 0 0
SMALL
GASTEIGER

@<TRIPOS>ATOM
      1 C           7.3566   -4.9965   26.5643 C.2     1  UNL1        0.0919
      2 C           8.2234   -5.9823   25.8385 C.2     1  UNL1        0.0183
      3 C           8.2518   -5.9943   24.3388 C.2     1  UNL1        0.0511
      4 C           7.4134   -5.0205   23.5649 C.2     1  UNL1        0.2322
      5 N           7.2364   -4.7970   22.0923 N.2     1  UNL1       -0.0308
      6 C           6.2603   -3.6731   21.9080 C.2     1  UNL1        0.3749
      7 N           5.8339   -3.2020   23.2668 N.2     1  UNL1       -0.0347
      8 C           6.5466   -4.0348   24.2908 C.2     1  UNL1        0.2191
      9 C           6.5183   -4.0228   25.7905 C.3     1  UNL1        0.1226
     10 C           5.7926   -3.1178   20.5953 C.ar    1  UNL1        0.0845
     11 C           6.5305   -1.9782   19.9575 C.ar    1  UNL1        0.0074
     12 C           6.0629   -1.4229   18.6449 C.ar    1  UNL1        0.0002
     13 C           4.8574   -2.0073   17.9701 C.ar    1  UNL1       -0.0003
     14 C           4.1195   -3.1469   18.6080 C.ar    1  UNL1       -0.0040
     15 C           4.5871   -3.7022   19.9206 C.ar    1  UNL1       -0.0144
     16 C           3.8493   -4.8418   20.5584 C.3     1  UNL1        0.0313
     17 C           6.8007   -0.2833   18.0071 C.ar    1  UNL1        0.0000
     18 C           8.0466    0.2548   18.6459 C.ar    1  UNL1        0.0000
     19 C           8.7845    1.3944   18.0081 C.ar    1  UNL1        0.0000
     20 C           8.2764    1.9959   16.7314 C.ar    1  UNL1        0.0000
     21 C           7.0305    1.4579   16.0925 C.ar    1  UNL1        0.0000
     22 C           6.2927    0.3183   16.7304 C.ar    1  UNL1        0.0000
     23 S           7.3283   -4.9845   28.0640 S.O2    1  UNL1        0.0054
     24 O           8.7651   -4.5545   28.0877 O.2     1  UNL1       -0.1689
     25 O           5.8914   -5.4145   28.0403 O.2     1  UNL1       -0.1689
     26 C           6.9063   -3.7243   30.2964 C.3     1  UNL1        0.0276
     27 C           7.2999   -4.9725   29.5637 C.3     1  UNL1        0.1556
@<TRIPOS>BOND
     1    26    27    1
     2    27    23    1
     3    23    24    2
     4    23    25    2
     5    23     1    1
     6     1     2    2
     7     2     3    1
     8     3     4    2
     9     4     5    1
    10     5     6    2
    11     6    10    1
    12    10    11   ar
    13    11    12   ar
    14    12    17    1
    15    17    18   ar
    16    18    19   ar
    17    19    20   ar
    18    20    21   ar
    19    21    22   ar
    20    12    13   ar
    21    13    14   ar
    22    14    15   ar
    23    15    16    1
    24     6     7    1
    25     7     8    2
    26     8     9    1
    27     9     1    1
    28     8     4    1
    29    15    10   ar
    30    22    17   ar
