@<TRIPOS>MOLECULE
*****
 23 25 0 0 0
SMALL
GASTEIGER

@<TRIPOS>ATOM
      1 C          -8.6110  -17.0210   22.6002 C.ar    1  UNL1       -0.0158
      2 C          -7.9783  -18.3304   22.2325 C.ar    1  UNL1        0.0050
      3 S          -9.0691  -19.2705   21.8126 S.2     1  UNL1       -0.0915
      4 C         -10.3759  -18.5422   21.9208 C.ar    1  UNL1        0.0288
      5 C         -11.7871  -18.9654   21.6390 C.ar    1  UNL1        0.0065
      6 C         -12.9152  -17.9982   21.8439 C.ar    1  UNL1        0.0005
      7 C         -12.6321  -16.6079   22.3306 C.ar    1  UNL1        0.0000
      8 C         -11.2209  -16.1848   22.6125 C.ar    1  UNL1        0.0002
      9 C         -10.0928  -17.1519   22.4075 C.ar    1  UNL1        0.0025
     10 C          -7.5527  -14.6995   22.1097 C.3     1  UNL1        0.0095
     11 C          -7.8887  -15.7958   23.0768 C.3     1  UNL1        0.0471
     12 C          -7.5025  -15.6668   24.5204 C.ar    1  UNL1        0.0101
     13 C          -8.5647  -15.5796   25.5761 C.ar    1  UNL1       -0.0000
     14 C          -8.1785  -15.4507   27.0198 C.ar    1  UNL1        0.0204
     15 C          -6.7301  -15.4088   27.4078 C.ar    1  UNL1        0.0998
     16 N          -5.6681  -15.4960   26.3522 N.ar    1  UNL1       -0.2328
     17 C          -6.0542  -15.6250   24.9085 C.ar    1  UNL1        0.1346
     18 CL         -4.9921  -15.7122   23.8530 Cl      1  UNL1       -0.0617
     19 C          -6.5122  -18.6445   22.2769 C.3     1  UNL1        0.0499
     20 C          -5.8077  -19.1130   21.0383 C.3     1  UNL1        0.0774
     21 N          -4.3465  -18.8288   20.8536 N.3     1  UNL1       -0.2700
     22 C          -3.7530  -18.8169   19.4760 C.3     1  UNL1        0.0897
     23 C          -3.4788  -18.5566   22.0465 C.3     1  UNL1        0.0897
@<TRIPOS>BOND
     1    11    10    1
     2    11    12    1
     3    12    13   ar
     4    13    14   ar
     5    14    15   ar
     6    15    16   ar
     7    16    17   ar
     8    17    18    1
     9    11     1    1
    10     1     2   ar
    11     2    19    1
    12    19    20    1
    13    20    21    1
    14    21    22    1
    15    21    23    1
    16     2     3   ar
    17     3     4   ar
    18     4     5   ar
    19     5     6   ar
    20     6     7   ar
    21     7     8   ar
    22     8     9   ar
    23    17    12   ar
    24     9     1   ar
    25     9     4   ar
@<TRIPOS>MOLECULE
*****
 23 25 0 0 0
SMALL
GASTEIGER

@<TRIPOS>ATOM
      1 C          -8.0155  -18.5446   22.5095 C.ar    1  UNL1       -0.0158
      2 C          -7.4300  -17.3716   23.2383 C.ar    1  UNL1        0.0050
      3 S          -5.9552  -17.3459   22.9659 S.2     1  UNL1       -0.0915
      4 C          -5.6292  -18.5030   22.0688 C.ar    1  UNL1        0.0288
      5 C          -4.3374  -18.9778   21.4724 C.ar    1  UNL1        0.0065
      6 C          -4.3190  -20.1934   20.5939 C.ar    1  UNL1        0.0005
      7 C          -5.5924  -20.9343   20.3118 C.ar    1  UNL1        0.0000
      8 C          -6.8842  -20.4595   20.9082 C.ar    1  UNL1        0.0002
      9 C          -6.9026  -19.2439   21.7867 C.ar    1  UNL1        0.0025
     10 C          -9.8827  -20.2335   23.1512 C.3     1  UNL1        0.0095
     11 C          -9.4604  -18.9476   22.5044 C.3     1  UNL1        0.0471
     12 C         -10.4830  -18.0650   21.8525 C.ar    1  UNL1        0.0101
     13 C         -11.2604  -17.0821   22.6770 C.ar    1  UNL1       -0.0000
     14 C         -12.2830  -16.1993   22.0251 C.ar    1  UNL1        0.0204
     15 C         -12.5283  -16.2994   20.5486 C.ar    1  UNL1        0.0998
     16 N         -11.7509  -17.2822   19.7242 N.ar    1  UNL1       -0.2328
     17 C         -10.7283  -18.1650   20.3760 C.ar    1  UNL1        0.1346
     18 CL         -9.9510  -19.1478   19.5515 Cl      1  UNL1       -0.0617
     19 C          -8.1865  -16.3956   24.0899 C.3     1  UNL1        0.0499
     20 C          -7.4814  -15.2093   24.6777 C.3     1  UNL1        0.0774
     21 N          -6.7923  -15.3282   26.0048 N.3     1  UNL1       -0.2700
     22 C          -7.5977  -15.5481   27.2510 C.3     1  UNL1        0.0897
     23 C          -5.2980  -15.2270   26.0856 C.3     1  UNL1        0.0897
@<TRIPOS>BOND
     1    11    10    1
     2    11    12    1
     3    12    13   ar
     4    13    14   ar
     5    14    15   ar
     6    15    16   ar
     7    16    17   ar
     8    17    18    1
     9    11     1    1
    10     1     2   ar
    11     2    19    1
    12    19    20    1
    13    20    21    1
    14    21    22    1
    15    21    23    1
    16     2     3   ar
    17     3     4   ar
    18     4     5   ar
    19     5     6   ar
    20     6     7   ar
    21     7     8   ar
    22     8     9   ar
    23    17    12   ar
    24     9     1   ar
    25     9     4   ar
@<TRIPOS>MOLECULE
*****
 23 25 0 0 0
SMALL
GASTEIGER

@<TRIPOS>ATOM
      1 C          -8.4858  -17.2997   24.0796 C.ar    1  UNL1       -0.0158
      2 C          -7.4339  -17.2031   23.0147 C.ar    1  UNL1        0.0050
      3 S          -6.3157  -16.3546   23.5434 S.2     1  UNL1       -0.0915
      4 C          -6.6765  -15.9268   24.9351 C.ar    1  UNL1        0.0288
      5 C          -5.9571  -15.0808   25.9434 C.ar    1  UNL1        0.0065
      6 C          -6.5789  -14.8189   27.2830 C.ar    1  UNL1        0.0005
      7 C          -7.9201  -15.4031   27.6144 C.ar    1  UNL1        0.0000
      8 C          -8.6396  -16.2491   26.6061 C.ar    1  UNL1        0.0002
      9 C          -8.0178  -16.5109   25.2665 C.ar    1  UNL1        0.0025
     10 C         -10.0375  -19.2264   24.8739 C.3     1  UNL1        0.0095
     11 C          -9.7789  -18.0529   23.9759 C.3     1  UNL1        0.0471
     12 C         -10.8133  -17.6328   22.9743 C.ar    1  UNL1        0.0101
     13 C         -11.4840  -16.2973   23.1039 C.ar    1  UNL1       -0.0000
     14 C         -12.5185  -15.8771   22.1023 C.ar    1  UNL1        0.0204
     15 C         -12.8824  -16.7925   20.9710 C.ar    1  UNL1        0.0998
     16 N         -12.2118  -18.1279   20.8414 N.ar    1  UNL1       -0.2328
     17 C         -11.1773  -18.5481   21.8430 C.ar    1  UNL1        0.1346
     18 CL        -10.5068  -19.8836   21.7133 Cl      1  UNL1       -0.0617
     19 C          -7.4903  -17.8428   21.6590 C.3     1  UNL1        0.0499
     20 C          -6.7590  -19.1275   21.4049 C.3     1  UNL1        0.0774
     21 N          -5.2746  -19.1157   21.1897 N.3     1  UNL1       -0.2700
     22 C          -4.3464  -19.2918   22.3548 C.3     1  UNL1        0.0897
     23 C          -4.7184  -18.9278   19.8094 C.3     1  UNL1        0.0897
@<TRIPOS>BOND
     1    11    10    1
     2    11    12    1
     3    12    13   ar
     4    13    14   ar
     5    14    15   ar
     6    15    16   ar
     7    16    17   ar
     8    17    18    1
     9    11     1    1
    10     1     2   ar
    11     2    19    1
    12    19    20    1
    13    20    21    1
    14    21    22    1
    15    21    23    1
    16     2     3   ar
    17     3     4   ar
    18     4     5   ar
    19     5     6   ar
    20     6     7   ar
    21     7     8   ar
    22     8     9   ar
    23    17    12   ar
    24     9     1   ar
    25     9     4   ar
@<TRIPOS>MOLECULE
*****
 23 25 0 0 0
SMALL
GASTEIGER

@<TRIPOS>ATOM
      1 C          -6.9821  -18.5918   21.8532 C.ar    1  UNL1       -0.0158
      2 C          -6.6550  -17.5134   22.8431 C.ar    1  UNL1        0.0050
      3 S          -5.1637  -17.4615   22.9960 S.2     1  UNL1       -0.0915
      4 C          -4.5692  -18.5078   22.1006 C.ar    1  UNL1        0.0288
      5 C          -3.1497  -18.9146   21.8371 C.ar    1  UNL1        0.0065
      6 C          -2.8541  -20.0201   20.8674 C.ar    1  UNL1        0.0005
      7 C          -3.9779  -20.7187   20.1611 C.ar    1  UNL1        0.0000
      8 C          -5.3974  -20.3119   20.4245 C.ar    1  UNL1        0.0002
      9 C          -5.6931  -19.2064   21.3943 C.ar    1  UNL1        0.0025
     10 C          -8.5886  -19.4020   19.9788 C.3     1  UNL1        0.0095
     11 C          -8.3570  -18.9864   21.4015 C.3     1  UNL1        0.0471
     12 C          -9.5002  -18.9656   22.3722 C.ar    1  UNL1        0.0101
     13 C          -9.5175  -19.9177   23.5313 C.ar    1  UNL1       -0.0000
     14 C         -10.6608  -19.8968   24.5021 C.ar    1  UNL1        0.0204
     15 C         -11.7868  -18.9239   24.3139 C.ar    1  UNL1        0.0998
     16 N         -11.7696  -17.9718   23.1549 N.ar    1  UNL1       -0.2328
     17 C         -10.6263  -17.9926   22.1841 C.ar    1  UNL1        0.1346
     18 CL        -10.6091  -17.0406   21.0251 Cl      1  UNL1       -0.0617
     19 C          -7.6452  -16.6402   23.5551 C.3     1  UNL1        0.0499
     20 C          -7.1856  -15.3842   24.2342 C.3     1  UNL1        0.0774
     21 N          -6.8615  -15.3990   25.6987 N.3     1  UNL1       -0.2700
     22 C          -5.4366  -15.2822   26.1528 C.3     1  UNL1        0.0897
     23 C          -7.9623  -15.5304   26.7091 C.3     1  UNL1        0.0897
@<TRIPOS>BOND
     1    11    10    1
     2    11    12    1
     3    12    13   ar
     4    13    14   ar
     5    14    15   ar
     6    15    16   ar
     7    16    17   ar
     8    17    18    1
     9    11     1    1
    10     1     2   ar
    11     2    19    1
    12    19    20    1
    13    20    21    1
    14    21    22    1
    15    21    23    1
    16     2     3   ar
    17     3     4   ar
    18     4     5   ar
    19     5     6   ar
    20     6     7   ar
    21     7     8   ar
    22     8     9   ar
    23    17    12   ar
    24     9     1   ar
    25     9     4   ar
@<TRIPOS>MOLECULE
*****
 23 25 0 0 0
SMALL
GASTEIGER

@<TRIPOS>ATOM
      1 C          -7.8300  -17.7530   22.8302 C.ar    1  UNL1       -0.0158
      2 C          -8.9744  -18.6966   23.0536 C.ar    1  UNL1        0.0050
      3 S          -8.5849  -20.0362   22.5026 S.2     1  UNL1       -0.0915
      4 C          -7.1997  -19.9205   21.9387 C.ar    1  UNL1        0.0288
      5 C          -6.3029  -20.9178   21.2670 C.ar    1  UNL1        0.0065
      6 C          -4.9397  -20.5040   20.7979 C.ar    1  UNL1        0.0005
      7 C          -4.4731  -19.0928   21.0004 C.ar    1  UNL1        0.0000
      8 C          -5.3699  -18.0955   21.6720 C.ar    1  UNL1        0.0002
      9 C          -6.7332  -18.5094   22.1412 C.ar    1  UNL1        0.0025
     10 C          -8.1078  -15.2435   22.2172 C.3     1  UNL1        0.0095
     11 C          -7.7895  -16.3068   23.2264 C.3     1  UNL1        0.0471
     12 C          -7.4307  -15.9237   24.6315 C.ar    1  UNL1        0.0101
     13 C          -8.4685  -15.9821   25.7130 C.ar    1  UNL1       -0.0000
     14 C          -8.1098  -15.5991   27.1182 C.ar    1  UNL1        0.0204
     15 C          -6.7132  -15.1577   27.4419 C.ar    1  UNL1        0.0998
     16 N          -5.6755  -15.0993   26.3604 N.ar    1  UNL1       -0.2328
     17 C          -6.0342  -15.4823   24.9552 C.ar    1  UNL1        0.1346
     18 CL         -4.9964  -15.4239   23.8738 Cl      1  UNL1       -0.0617
     19 C         -10.2793  -18.3597   23.7123 C.3     1  UNL1        0.0499
     20 C         -11.5473  -18.3651   22.9110 C.3     1  UNL1        0.0774
     21 N         -11.7945  -17.2936   21.8908 N.3     1  UNL1       -0.2700
     22 C         -12.2488  -15.9325   22.3277 C.3     1  UNL1        0.0897
     23 C         -11.5873  -17.5833   20.4337 C.3     1  UNL1        0.0897
@<TRIPOS>BOND
     1    11    10    1
     2    11    12    1
     3    12    13   ar
     4    13    14   ar
     5    14    15   ar
     6    15    16   ar
     7    16    17   ar
     8    17    18    1
     9    11     1    1
    10     1     2   ar
    11     2    19    1
    12    19    20    1
    13    20    21    1
    14    21    22    1
    15    21    23    1
    16     2     3   ar
    17     3     4   ar
    18     4     5   ar
    19     5     6   ar
    20     6     7   ar
    21     7     8   ar
    22     8     9   ar
    23    17    12   ar
    24     9     1   ar
    25     9     4   ar
@<TRIPOS>MOLECULE
*****
 23 25 0 0 0
SMALL
GASTEIGER

@<TRIPOS>ATOM
      1 C          -7.2620  -18.2658   22.1731 C.ar    1  UNL1       -0.0158
      2 C          -5.9115  -18.9038   22.0343 C.ar    1  UNL1        0.0050
      3 S          -4.9400  -18.1176   22.8637 S.2     1  UNL1       -0.0915
      4 C          -5.6900  -16.9937   23.5152 C.ar    1  UNL1        0.0288
      5 C          -5.2516  -15.8987   24.4419 C.ar    1  UNL1        0.0065
      6 C          -6.2482  -14.8954   24.9417 C.ar    1  UNL1        0.0005
      7 C          -7.6833  -14.9870   24.5149 C.ar    1  UNL1        0.0000
      8 C          -8.1217  -16.0819   23.5882 C.ar    1  UNL1        0.0002
      9 C          -7.1251  -17.0853   23.0883 C.ar    1  UNL1        0.0025
     10 C          -8.4799  -19.3302   20.1399 C.3     1  UNL1        0.0095
     11 C          -8.5272  -18.7273   21.5127 C.3     1  UNL1        0.0471
     12 C          -9.8397  -18.5859   22.2248 C.ar    1  UNL1        0.0101
     13 C         -10.8344  -17.5603   21.7676 C.ar    1  UNL1       -0.0000
     14 C         -12.1470  -17.4188   22.4798 C.ar    1  UNL1        0.0204
     15 C         -12.4649  -18.3030   23.6491 C.ar    1  UNL1        0.0998
     16 N         -11.4703  -19.3285   24.1062 N.ar    1  UNL1       -0.2328
     17 C         -10.1577  -19.4700   23.3941 C.ar    1  UNL1        0.1346
     18 CL         -9.1632  -20.4955   23.8513 Cl      1  UNL1       -0.0617
     19 C          -5.5892  -20.1153   21.2106 C.3     1  UNL1        0.0499
     20 C          -4.7222  -19.9858   19.9935 C.3     1  UNL1        0.0774
     21 N          -3.3619  -19.3635   20.1045 N.3     1  UNL1       -0.2700
     22 C          -2.9997  -18.1930   19.2391 C.3     1  UNL1        0.0897
     23 C          -2.3638  -19.9116   21.0809 C.3     1  UNL1        0.0897
@<TRIPOS>BOND
     1    11    10    1
     2    11    12    1
     3    12    13   ar
     4    13    14   ar
     5    14    15   ar
     6    15    16   ar
     7    16    17   ar
     8    17    18    1
     9    11     1    1
    10     1     2   ar
    11     2    19    1
    12    19    20    1
    13    20    21    1
    14    21    22    1
    15    21    23    1
    16     2     3   ar
    17     3     4   ar
    18     4     5   ar
    19     5     6   ar
    20     6     7   ar
    21     7     8   ar
    22     8     9   ar
    23    17    12   ar
    24     9     1   ar
    25     9     4   ar
@<TRIPOS>MOLECULE
*****
 23 25 0 0 0
SMALL
GASTEIGER

@<TRIPOS>ATOM
      1 C          -7.2894  -18.3601   21.8443 C.ar    1  UNL1       -0.0158
      2 C          -7.3788  -17.1116   22.6710 C.ar    1  UNL1        0.0050
      3 S          -8.7041  -16.4662   22.3938 S.2     1  UNL1       -0.0915
      4 C          -9.4339  -17.3158   21.3960 C.ar    1  UNL1        0.0288
      5 C         -10.7816  -17.1748   20.7528 C.ar    1  UNL1        0.0065
      6 C         -11.2549  -18.2043   19.7699 C.ar    1  UNL1        0.0005
      7 C         -10.3805  -19.3748   19.4303 C.ar    1  UNL1        0.0000
      8 C          -9.0328  -19.5158   20.0735 C.ar    1  UNL1        0.0002
      9 C          -8.5595  -18.4863   21.0564 C.ar    1  UNL1        0.0025
     10 C          -6.2771  -20.6881   22.3976 C.3     1  UNL1        0.0095
     11 C          -6.1329  -19.3148   21.8115 C.3     1  UNL1        0.0471
     12 C          -4.8323  -18.8964   21.1925 C.ar    1  UNL1        0.0101
     13 C          -4.6670  -18.9266   19.7019 C.ar    1  UNL1       -0.0000
     14 C          -3.3664  -18.5082   19.0828 C.ar    1  UNL1        0.0204
     15 C          -2.2309  -18.0596   19.9544 C.ar    1  UNL1        0.0998
     16 N          -2.3962  -18.0295   21.4449 N.ar    1  UNL1       -0.2328
     17 C          -3.6968  -18.4479   22.0640 C.ar    1  UNL1        0.1346
     18 CL         -3.8620  -18.4177   23.5545 Cl      1  UNL1       -0.0617
     19 C          -6.3274  -16.5986   23.6098 C.3     1  UNL1        0.0499
     20 C          -6.5675  -15.3397   24.3891 C.3     1  UNL1        0.0774
     21 N          -7.1368  -15.4126   25.7750 N.3     1  UNL1       -0.2700
     22 C          -8.6226  -15.4689   25.9735 C.3     1  UNL1        0.0897
     23 C          -6.2203  -15.4292   26.9623 C.3     1  UNL1        0.0897
@<TRIPOS>BOND
     1    11    10    1
     2    11    12    1
     3    12    13   ar
     4    13    14   ar
     5    14    15   ar
     6    15    16   ar
     7    16    17   ar
     8    17    18    1
     9    11     1    1
    10     1     2   ar
    11     2    19    1
    12    19    20    1
    13    20    21    1
    14    21    22    1
    15    21    23    1
    16     2     3   ar
    17     3     4   ar
    18     4     5   ar
    19     5     6   ar
    20     6     7   ar
    21     7     8   ar
    22     8     9   ar
    23    17    12   ar
    24     9     1   ar
    25     9     4   ar
@<TRIPOS>MOLECULE
*****
 23 25 0 0 0
SMALL
GASTEIGER

@<TRIPOS>ATOM
      1 C          -7.9953  -18.1774   22.1370 C.ar    1  UNL1       -0.0158
      2 C          -7.6289  -16.8490   22.7296 C.ar    1  UNL1        0.0050
      3 S          -8.6294  -15.8376   22.2541 S.2     1  UNL1       -0.0915
      4 C          -9.6141  -16.5409   21.3676 C.ar    1  UNL1        0.0288
      5 C         -10.8169  -16.0513   20.6170 C.ar    1  UNL1        0.0065
      6 C         -11.6279  -17.0078   19.7940 C.ar    1  UNL1        0.0005
      7 C         -11.2360  -18.4539   19.7217 C.ar    1  UNL1        0.0000
      8 C         -10.0332  -18.9435   20.4723 C.ar    1  UNL1        0.0002
      9 C          -9.2222  -17.9870   21.2953 C.ar    1  UNL1        0.0025
     10 C          -7.9157  -20.5847   23.1110 C.3     1  UNL1        0.0095
     11 C          -7.2634  -19.4694   22.3489 C.3     1  UNL1        0.0471
     12 C          -5.8792  -19.6462   21.7989 C.ar    1  UNL1        0.0101
     13 C          -4.6933  -19.1718   22.5856 C.ar    1  UNL1       -0.0000
     14 C          -3.3090  -19.3485   22.0356 C.ar    1  UNL1        0.0204
     15 C          -3.1105  -19.9997   20.6989 C.ar    1  UNL1        0.0998
     16 N          -4.2964  -20.4741   19.9123 N.ar    1  UNL1       -0.2328
     17 C          -5.6806  -20.2973   20.4623 C.ar    1  UNL1        0.1346
     18 CL         -6.8664  -20.7718   19.6756 Cl      1  UNL1       -0.0617
     19 C          -6.4663  -16.5794   23.6382 C.3     1  UNL1        0.0499
     20 C          -6.4769  -15.3754   24.5327 C.3     1  UNL1        0.0774
     21 N          -7.1346  -15.4471   25.8790 N.3     1  UNL1       -0.2700
     22 C          -6.2958  -15.5232   27.1203 C.3     1  UNL1        0.0897
     23 C          -8.6308  -15.4427   25.9839 C.3     1  UNL1        0.0897
@<TRIPOS>BOND
     1    11    10    1
     2    11    12    1
     3    12    13   ar
     4    13    14   ar
     5    14    15   ar
     6    15    16   ar
     7    16    17   ar
     8    17    18    1
     9    11     1    1
    10     1     2   ar
    11     2    19    1
    12    19    20    1
    13    20    21    1
    14    21    22    1
    15    21    23    1
    16     2     3   ar
    17     3     4   ar
    18     4     5   ar
    19     5     6   ar
    20     6     7   ar
    21     7     8   ar
    22     8     9   ar
    23    17    12   ar
    24     9     1   ar
    25     9     4   ar
@<TRIPOS>MOLECULE
*****
 23 25 0 0 0
SMALL
GASTEIGER

@<TRIPOS>ATOM
      1 C          -7.9583  -18.0957   22.9018 C.ar    1  UNL1       -0.0158
      2 C          -6.6690  -18.3188   22.1684 C.ar    1  UNL1        0.0050
      3 S          -5.6309  -17.4199   22.7721 S.2     1  UNL1       -0.0915
      4 C          -6.2786  -16.6414   23.8786 C.ar    1  UNL1        0.0288
      5 C          -5.7444  -15.6061   24.8235 C.ar    1  UNL1        0.0065
      6 C          -6.6487  -14.9885   25.8485 C.ar    1  UNL1        0.0005
      7 C          -8.0872  -15.4061   25.9287 C.ar    1  UNL1        0.0000
      8 C          -8.6214  -16.4414   24.9838 C.ar    1  UNL1        0.0002
      9 C          -7.7171  -17.0590   23.9588 C.ar    1  UNL1        0.0025
     10 C          -9.4156  -20.2463   22.9411 C.3     1  UNL1        0.0095
     11 C          -9.2603  -18.7878   22.6266 C.3     1  UNL1        0.0471
     12 C         -10.4070  -18.0216   22.0370 C.ar    1  UNL1        0.0101
     13 C         -10.3157  -17.4954   20.6352 C.ar    1  UNL1       -0.0000
     14 C         -11.4625  -16.7291   20.0455 C.ar    1  UNL1        0.0204
     15 C         -12.7006  -16.4891   20.8575 C.ar    1  UNL1        0.0998
     16 N         -12.7920  -17.0152   22.2592 N.ar    1  UNL1       -0.2328
     17 C         -11.6452  -17.7815   22.8490 C.ar    1  UNL1        0.1346
     18 CL        -11.7366  -18.3076   24.2507 Cl      1  UNL1       -0.0617
     19 C          -6.4552  -19.2731   21.0311 C.3     1  UNL1        0.0499
     20 C          -5.2430  -20.1562   21.0107 C.3     1  UNL1        0.0774
     21 N          -3.9148  -19.5973   20.5940 N.3     1  UNL1       -0.2700
     22 C          -2.7006  -19.8379   21.4413 C.3     1  UNL1        0.0897
     23 C          -3.8008  -18.7979   19.3299 C.3     1  UNL1        0.0897
@<TRIPOS>BOND
     1    11    10    1
     2    11    12    1
     3    12    13   ar
     4    13    14   ar
     5    14    15   ar
     6    15    16   ar
     7    16    17   ar
     8    17    18    1
     9    11     1    1
    10     1     2   ar
    11     2    19    1
    12    19    20    1
    13    20    21    1
    14    21    22    1
    15    21    23    1
    16     2     3   ar
    17     3     4   ar
    18     4     5   ar
    19     5     6   ar
    20     6     7   ar
    21     7     8   ar
    22     8     9   ar
    23    17    12   ar
    24     9     1   ar
    25     9     4   ar
