@<TRIPOS>MOLECULE
*****
 22 24 0 0 0
SMALL
GASTEIGER

@<TRIPOS>ATOM
      1 C          -8.5324  -18.3761   21.8623 C.2     1  UNL1        0.2486
      2 O          -8.3457  -19.6125   21.0339 O.2     1  UNL1       -0.2699
      3 N          -7.3649  -17.7765   22.5886 N.am    1  UNL1       -0.2779
      4 C         -10.8486  -18.1881   23.0242 C.ar    1  UNL1       -0.0181
      5 C         -12.2028  -17.5512   23.1263 C.ar    1  UNL1       -0.0041
      6 C         -12.5950  -16.4653   22.1687 C.ar    1  UNL1       -0.0003
      7 C         -11.6331  -16.0164   21.1090 C.ar    1  UNL1        0.0001
      8 C         -10.2789  -16.6533   21.0069 C.ar    1  UNL1        0.0042
      9 C          -9.8867  -17.7391   21.9645 C.ar    1  UNL1        0.0496
     10 C         -10.4753  -20.7071   23.5394 C.3     1  UNL1        0.0047
     11 C         -10.4563  -19.2740   23.9818 C.3     1  UNL1        0.0225
     12 C         -10.0451  -18.9267   25.3819 C.3     1  UNL1        0.0047
     13 C          -7.5516  -16.5401   23.4170 C.3     1  UNL1        0.0926
     14 C          -7.9848  -16.4976   24.8525 C.3     1  UNL1        0.0383
     15 C          -8.0388  -15.0603   25.2781 C.3     1  UNL1        0.0704
     16 N          -7.6390  -14.2144   24.1057 N.3     1  UNL1       -0.2960
     17 C          -7.3378  -15.1290   22.9555 C.3     1  UNL1        0.0887
     18 H          -6.8100  -13.6681   24.3397 H       1  UNL1        0.1233
     19 C          -6.0106  -18.4135   22.4864 C.3     1  UNL1        0.0756
     20 C          -5.4907  -19.7236   21.9732 C.3     1  UNL1        0.0199
     21 C          -4.0955  -19.3143   22.3419 C.3     1  UNL1        0.0034
     22 C          -4.6156  -18.0042   22.8551 C.3     1  UNL1        0.0199
@<TRIPOS>BOND
     1    10    11    1
     2    11    12    1
     3    11     4    1
     4     4     5   ar
     5     5     6   ar
     6     6     7   ar
     7     7     8   ar
     8     8     9   ar
     9     9     1    1
    10     1     2    2
    11     1     3   am
    12     3    19    1
    13    19    20    1
    14    20    21    1
    15    21    22    1
    16    13     3    1
    17    13    14    1
    18    14    15    1
    19    15    16    1
    20    16    17    1
    21     9     4   ar
    22    22    19    1
    23    17    13    1
    24    16    18    1
@<TRIPOS>MOLECULE
*****
 22 24 0 0 0
SMALL
GASTEIGER

@<TRIPOS>ATOM
      1 C          -9.4089  -19.0345   22.1859 C.2     1  UNL1        0.2486
      2 O          -9.3295  -20.2906   21.3699 O.2     1  UNL1       -0.2699
      3 N          -8.1800  -18.2025   22.4035 N.am    1  UNL1       -0.2779
      4 C         -11.5962  -17.6386   22.0541 C.ar    1  UNL1       -0.0181
      5 C         -12.9046  -17.2145   22.6525 C.ar    1  UNL1       -0.0041
      6 C         -13.3342  -17.7622   23.9812 C.ar    1  UNL1       -0.0003
      7 C         -12.4554  -18.7339   24.7115 C.ar    1  UNL1        0.0001
      8 C         -11.1470  -19.1580   24.1131 C.ar    1  UNL1        0.0042
      9 C         -10.7174  -18.6103   22.7843 C.ar    1  UNL1        0.0496
     10 C         -11.1528  -17.9794   19.5169 C.3     1  UNL1        0.0047
     11 C         -11.1666  -17.0909   20.7253 C.3     1  UNL1        0.0225
     12 C         -10.7508  -15.6548   20.6051 C.3     1  UNL1        0.0047
     13 C          -8.2594  -16.9464   23.2195 C.3     1  UNL1        0.0926
     14 C          -8.7457  -16.8436   24.6347 C.3     1  UNL1        0.0383
     15 C          -8.6533  -15.4062   25.0535 C.3     1  UNL1        0.0704
     16 N          -8.1099  -14.6206   23.8970 N.3     1  UNL1       -0.2960
     17 C          -7.8664  -15.5725   22.7635 C.3     1  UNL1        0.0887
     18 H          -7.2347  -14.1704   24.1650 H       1  UNL1        0.1233
     19 C          -6.8715  -18.6266   21.8051 C.3     1  UNL1        0.0756
     20 C          -5.4857  -18.8493   22.3343 C.3     1  UNL1        0.0199
     21 C          -5.0210  -19.2264   20.9589 C.3     1  UNL1        0.0034
     22 C          -6.4068  -19.0037   20.4297 C.3     1  UNL1        0.0199
@<TRIPOS>BOND
     1    10    11    1
     2    11    12    1
     3    11     4    1
     4     4     5   ar
     5     5     6   ar
     6     6     7   ar
     7     7     8   ar
     8     8     9   ar
     9     9     1    1
    10     1     2    2
    11     1     3   am
    12     3    19    1
    13    19    20    1
    14    20    21    1
    15    21    22    1
    16    13     3    1
    17    13    14    1
    18    14    15    1
    19    15    16    1
    20    16    17    1
    21     9     4   ar
    22    22    19    1
    23    17    13    1
    24    16    18    1
@<TRIPOS>MOLECULE
*****
 22 24 0 0 0
SMALL
GASTEIGER

@<TRIPOS>ATOM
      1 C          -8.4182  -17.0624   22.0676 C.2     1  UNL1        0.2486
      2 O          -7.8696  -15.7460   21.6030 O.2     1  UNL1       -0.2699
      3 N          -8.5123  -17.3599   23.5348 N.am    1  UNL1       -0.2779
      4 C         -10.3237  -18.1753   20.6962 C.ar    1  UNL1       -0.0181
      5 C         -10.7782  -19.1942   19.6936 C.ar    1  UNL1       -0.0041
      6 C          -9.7818  -20.1193   19.0600 C.ar    1  UNL1       -0.0003
      7 C          -8.3310  -20.0255   19.4289 C.ar    1  UNL1        0.0001
      8 C          -7.8765  -19.0065   20.4314 C.ar    1  UNL1        0.0042
      9 C          -8.8728  -18.0814   21.0650 C.ar    1  UNL1        0.0496
     10 C         -12.1555  -17.7233   22.4823 C.3     1  UNL1        0.0047
     11 C         -11.3200  -17.2502   21.3298 C.3     1  UNL1        0.0225
     12 C         -11.4810  -15.8521   20.8110 C.3     1  UNL1        0.0047
     13 C          -9.0610  -18.6764   23.9994 C.3     1  UNL1        0.0926
     14 C          -8.7236  -20.0226   23.4302 C.3     1  UNL1        0.0383
     15 C          -9.4974  -21.0560   24.1939 C.3     1  UNL1        0.0704
     16 N         -10.3131  -20.3485   25.2351 N.3     1  UNL1       -0.2960
     17 C         -10.0434  -18.8779   25.1149 C.3     1  UNL1        0.0887
     18 H         -10.0466  -20.6745   26.1641 H       1  UNL1        0.1233
     19 C          -8.0577  -16.3409   24.5374 C.3     1  UNL1        0.0756
     20 C          -6.7415  -15.7142   24.8904 C.3     1  UNL1        0.0199
     21 C          -7.4148  -14.8999   25.9552 C.3     1  UNL1        0.0034
     22 C          -8.7310  -15.5267   25.6020 C.3     1  UNL1        0.0199
@<TRIPOS>BOND
     1    10    11    1
     2    11    12    1
     3    11     4    1
     4     4     5   ar
     5     5     6   ar
     6     6     7   ar
     7     7     8   ar
     8     8     9   ar
     9     9     1    1
    10     1     2    2
    11     1     3   am
    12     3    19    1
    13    19    20    1
    14    20    21    1
    15    21    22    1
    16    13     3    1
    17    13    14    1
    18    14    15    1
    19    15    16    1
    20    16    17    1
    21     9     4   ar
    22    22    19    1
    23    17    13    1
    24    16    18    1
@<TRIPOS>MOLECULE
*****
 22 24 0 0 0
SMALL
GASTEIGER

@<TRIPOS>ATOM
      1 C          -8.5445  -16.5638   22.5082 C.2     1  UNL1        0.2486
      2 O          -7.4595  -15.5970   22.1364 O.2     1  UNL1       -0.2699
      3 N          -8.8291  -16.8527   23.9523 N.am    1  UNL1       -0.2779
      4 C          -8.8745  -18.5436   20.8585 C.ar    1  UNL1       -0.0181
      5 C          -9.6749  -19.2214   19.7862 C.ar    1  UNL1       -0.0041
      6 C         -10.9457  -18.5970   19.2911 C.ar    1  UNL1       -0.0003
      7 C         -11.4162  -17.2950   19.8683 C.ar    1  UNL1        0.0001
      8 C         -10.6158  -16.6172   20.9407 C.ar    1  UNL1        0.0042
      9 C          -9.3449  -17.2416   21.4358 C.ar    1  UNL1        0.0496
     10 C          -6.3018  -18.8570   20.6765 C.3     1  UNL1        0.0047
     11 C          -7.6036  -19.1680   21.3536 C.3     1  UNL1        0.0225
     12 C          -7.6345  -20.1032   22.5259 C.3     1  UNL1        0.0047
     13 C          -9.9141  -17.8195   24.3241 C.3     1  UNL1        0.0926
     14 C         -11.3678  -17.6890   23.9782 C.3     1  UNL1        0.0383
     15 C         -12.0881  -18.8753   24.5473 C.3     1  UNL1        0.0704
     16 N         -11.0795  -19.7390   25.2450 N.3     1  UNL1       -0.2960
     17 C          -9.7359  -19.0864   25.1070 C.3     1  UNL1        0.0887
     18 H         -11.0605  -20.6643   24.8163 H       1  UNL1        0.1233
     19 C          -8.0287  -16.1749   25.0247 C.3     1  UNL1        0.0756
     20 C          -6.6444  -15.6042   25.1144 C.3     1  UNL1        0.0199
     21 C          -6.8967  -15.2164   26.5412 C.3     1  UNL1        0.0034
     22 C          -8.2810  -15.7871   26.4515 C.3     1  UNL1        0.0199
@<TRIPOS>BOND
     1    10    11    1
     2    11    12    1
     3    11     4    1
     4     4     5   ar
     5     5     6   ar
     6     6     7   ar
     7     7     8   ar
     8     8     9   ar
     9     9     1    1
    10     1     2    2
    11     1     3   am
    12     3    19    1
    13    19    20    1
    14    20    21    1
    15    21    22    1
    16    13     3    1
    17    13    14    1
    18    14    15    1
    19    15    16    1
    20    16    17    1
    21     9     4   ar
    22    22    19    1
    23    17    13    1
    24    16    18    1
@<TRIPOS>MOLECULE
*****
 22 24 0 0 0
SMALL
GASTEIGER

@<TRIPOS>ATOM
      1 C          -8.1502  -18.5237   22.1999 C.2     1  UNL1        0.2486
      2 O          -7.0148  -19.4960   22.0749 O.2     1  UNL1       -0.2699
      3 N          -9.1984  -18.4531   21.1293 N.am    1  UNL1       -0.2779
      4 C          -9.1976  -17.9366   24.5039 C.ar    1  UNL1       -0.0181
      5 C          -9.2846  -17.0349   25.6994 C.ar    1  UNL1       -0.0041
      6 C          -8.4113  -15.8184   25.7864 C.ar    1  UNL1       -0.0003
      7 C          -7.4510  -15.5037   24.6779 C.ar    1  UNL1        0.0001
      8 C          -7.3640  -16.4054   23.4825 C.ar    1  UNL1        0.0042
      9 C          -8.2372  -17.6219   23.3954 C.ar    1  UNL1        0.0496
     10 C         -11.5635  -19.0088   24.4504 C.3     1  UNL1        0.0047
     11 C         -10.0708  -19.1531   24.4168 C.3     1  UNL1        0.0225
     12 C          -9.4515  -20.5139   24.2962 C.3     1  UNL1        0.0047
     13 C         -10.3338  -17.4808   21.2542 C.3     1  UNL1        0.0926
     14 C         -11.7940  -17.8234   21.2359 C.3     1  UNL1        0.0383
     15 C         -12.5710  -16.5495   21.3898 C.3     1  UNL1        0.0704
     16 N         -11.5909  -15.4197   21.5032 N.3     1  UNL1       -0.2960
     17 C         -10.2083  -15.9952   21.4194 C.3     1  UNL1        0.0887
     18 H         -11.7139  -14.9431   22.3966 H       1  UNL1        0.1233
     19 C          -9.1113  -19.3549   19.9337 C.3     1  UNL1        0.0756
     20 C         -10.1017  -20.1265   19.1129 C.3     1  UNL1        0.0199
     21 C          -8.9883  -20.6302   18.2430 C.3     1  UNL1        0.0034
     22 C          -7.9980  -19.8585   19.0639 C.3     1  UNL1        0.0199
@<TRIPOS>BOND
     1    10    11    1
     2    11    12    1
     3    11     4    1
     4     4     5   ar
     5     5     6   ar
     6     6     7   ar
     7     7     8   ar
     8     8     9   ar
     9     9     1    1
    10     1     2    2
    11     1     3   am
    12     3    19    1
    13    19    20    1
    14    20    21    1
    15    21    22    1
    16    13     3    1
    17    13    14    1
    18    14    15    1
    19    15    16    1
    20    16    17    1
    21     9     4   ar
    22    22    19    1
    23    17    13    1
    24    16    18    1
@<TRIPOS>MOLECULE
*****
 22 24 0 0 0
SMALL
GASTEIGER

@<TRIPOS>ATOM
      1 C          -9.7988  -18.1653   24.0192 C.2     1  UNL1        0.2486
      2 O         -10.2776  -19.0413   25.1387 O.2     1  UNL1       -0.2699
      3 N          -9.0260  -16.9160   24.3223 N.am    1  UNL1       -0.2779
      4 C         -11.4115  -18.1726   21.9821 C.ar    1  UNL1       -0.0181
      5 C         -11.7055  -18.5460   20.5595 C.ar    1  UNL1       -0.0041
      6 C         -10.6810  -19.2854   19.7510 C.ar    1  UNL1       -0.0003
      7 C          -9.3624  -19.6515   20.3653 C.ar    1  UNL1        0.0001
      8 C          -9.0684  -19.2781   21.7880 C.ar    1  UNL1        0.0042
      9 C         -10.0929  -18.5386   22.5964 C.ar    1  UNL1        0.0496
     10 C         -12.5604  -15.9439   22.6624 C.3     1  UNL1        0.0047
     11 C         -12.4360  -17.4332   22.7906 C.3     1  UNL1        0.0225
     12 C         -13.3362  -18.1830   23.7273 C.3     1  UNL1        0.0047
     13 C          -8.5473  -16.0400   23.2027 C.3     1  UNL1        0.0926
     14 C          -9.3411  -15.6408   21.9943 C.3     1  UNL1        0.0383
     15 C          -8.4751  -14.7635   21.1397 C.3     1  UNL1        0.0704
     16 N          -7.1459  -14.6204   21.8200 N.3     1  UNL1       -0.2960
     17 C          -7.1906  -15.4093   23.0951 C.3     1  UNL1        0.0887
     18 H          -6.9671  -13.6378   22.0271 H       1  UNL1        0.1233
     19 C          -8.7319  -16.5426   25.7451 C.3     1  UNL1        0.0756
     20 C          -8.2704  -15.2965   26.4409 C.3     1  UNL1        0.0199
     21 C          -8.3160  -16.0145   27.7571 C.3     1  UNL1        0.0034
     22 C          -8.7776  -17.2606   27.0612 C.3     1  UNL1        0.0199
@<TRIPOS>BOND
     1    10    11    1
     2    11    12    1
     3    11     4    1
     4     4     5   ar
     5     5     6   ar
     6     6     7   ar
     7     7     8   ar
     8     8     9   ar
     9     9     1    1
    10     1     2    2
    11     1     3   am
    12     3    19    1
    13    19    20    1
    14    20    21    1
    15    21    22    1
    16    13     3    1
    17    13    14    1
    18    14    15    1
    19    15    16    1
    20    16    17    1
    21     9     4   ar
    22    22    19    1
    23    17    13    1
    24    16    18    1
@<TRIPOS>MOLECULE
*****
 22 24 0 0 0
SMALL
GASTEIGER

@<TRIPOS>ATOM
      1 C          -9.1610  -16.2667   23.8005 C.2     1  UNL1        0.2486
      2 O          -9.4557  -15.3002   24.9091 O.2     1  UNL1       -0.2699
      3 N          -7.7422  -16.6407   23.4890 N.am    1  UNL1       -0.2779
      4 C         -10.7050  -18.2796   23.2397 C.ar    1  UNL1       -0.0181
      5 C         -11.8291  -18.8720   22.4426 C.ar    1  UNL1       -0.0041
      6 C         -12.5333  -18.0438   21.4090 C.ar    1  UNL1       -0.0003
      7 C         -12.1135  -16.6233   21.1727 C.ar    1  UNL1        0.0001
      8 C         -10.9894  -16.0310   21.9698 C.ar    1  UNL1        0.0042
      9 C         -10.2851  -16.8591   23.0033 C.ar    1  UNL1        0.0496
     10 C          -9.9467  -18.6421   25.6981 C.3     1  UNL1        0.0047
     11 C         -10.0007  -19.1077   24.2732 C.3     1  UNL1        0.0225
     12 C          -9.3503  -20.4015   23.8819 C.3     1  UNL1        0.0047
     13 C          -7.4475  -17.6072   22.3803 C.3     1  UNL1        0.0926
     14 C          -6.4083  -18.6886   22.4064 C.3     1  UNL1        0.0383
     15 C          -6.4587  -19.4117   21.0931 C.3     1  UNL1        0.0704
     16 N          -7.5291  -18.7773   20.2555 N.3     1  UNL1       -0.2960
     17 C          -8.1402  -17.6620   21.0510 C.3     1  UNL1        0.0887
     18 H          -8.2426  -19.4685   20.0238 H       1  UNL1        0.1233
     19 C          -6.6180  -16.0483   24.2861 C.3     1  UNL1        0.0756
     20 C          -5.2373  -15.5557   23.9687 C.3     1  UNL1        0.0199
     21 C          -5.0282  -15.2105   25.4134 C.3     1  UNL1        0.0034
     22 C          -6.4091  -15.7032   25.7308 C.3     1  UNL1        0.0199
@<TRIPOS>BOND
     1    10    11    1
     2    11    12    1
     3    11     4    1
     4     4     5   ar
     5     5     6   ar
     6     6     7   ar
     7     7     8   ar
     8     8     9   ar
     9     9     1    1
    10     1     2    2
    11     1     3   am
    12     3    19    1
    13    19    20    1
    14    20    21    1
    15    21    22    1
    16    13     3    1
    17    13    14    1
    18    14    15    1
    19    15    16    1
    20    16    17    1
    21     9     4   ar
    22    22    19    1
    23    17    13    1
    24    16    18    1
@<TRIPOS>MOLECULE
*****
 22 24 0 0 0
SMALL
GASTEIGER

@<TRIPOS>ATOM
      1 C          -9.6623  -18.7652   23.8924 C.2     1  UNL1        0.2486
      2 O          -9.7588  -18.8011   25.3889 O.2     1  UNL1       -0.2699
      3 N         -10.8960  -18.5522   23.0663 N.am    1  UNL1       -0.2779
      4 C          -7.4470  -17.7546   22.9864 C.ar    1  UNL1       -0.0181
      5 C          -6.1169  -17.9317   22.3161 C.ar    1  UNL1       -0.0041
      6 C          -5.6719  -19.2967   21.8816 C.ar    1  UNL1       -0.0003
      7 C          -6.5570  -20.4845   22.1173 C.ar    1  UNL1        0.0001
      8 C          -7.8871  -20.3073   22.7876 C.ar    1  UNL1        0.0042
      9 C          -8.3321  -18.9424   23.2221 C.ar    1  UNL1        0.0496
     10 C          -8.3960  -15.4067   22.4061 C.3     1  UNL1        0.0047
     11 C          -7.8920  -16.3896   23.4209 C.3     1  UNL1        0.0225
     12 C          -7.8330  -16.0075   24.8702 C.3     1  UNL1        0.0047
     13 C         -10.7996  -18.5164   21.5698 C.3     1  UNL1        0.0926
     14 C         -10.6799  -19.7069   20.6652 C.3     1  UNL1        0.0383
     15 C         -10.6123  -19.2100   19.2515 C.3     1  UNL1        0.0704
     16 N         -10.6902  -17.7124   19.2824 N.3     1  UNL1       -0.2960
     17 C         -10.8060  -17.2837   20.7151 C.3     1  UNL1        0.0887
     18 H         -11.5076  -17.3974   18.7597 H       1  UNL1        0.1233
     19 C         -12.2263  -18.3751   23.7366 C.3     1  UNL1        0.0756
     20 C         -13.5028  -17.6679   23.3899 C.3     1  UNL1        0.0199
     21 C         -14.1074  -18.1246   24.6844 C.3     1  UNL1        0.0034
     22 C         -12.8308  -18.8318   25.0310 C.3     1  UNL1        0.0199
@<TRIPOS>BOND
     1    10    11    1
     2    11    12    1
     3    11     4    1
     4     4     5   ar
     5     5     6   ar
     6     6     7   ar
     7     7     8   ar
     8     8     9   ar
     9     9     1    1
    10     1     2    2
    11     1     3   am
    12     3    19    1
    13    19    20    1
    14    20    21    1
    15    21    22    1
    16    13     3    1
    17    13    14    1
    18    14    15    1
    19    15    16    1
    20    16    17    1
    21     9     4   ar
    22    22    19    1
    23    17    13    1
    24    16    18    1
@<TRIPOS>MOLECULE
*****
 22 24 0 0 0
SMALL
GASTEIGER

@<TRIPOS>ATOM
      1 C          -7.9511  -17.3545   22.8721 C.2     1  UNL1        0.2486
      2 O          -7.1570  -16.6738   23.9473 O.2     1  UNL1       -0.2699
      3 N          -7.2868  -18.3449   21.9622 N.am    1  UNL1       -0.2779
      4 C         -10.4123  -17.6268   23.6586 C.ar    1  UNL1       -0.0181
      5 C         -11.8706  -17.3171   23.4933 C.ar    1  UNL1       -0.0041
      6 C         -12.3261  -16.4255   22.3764 C.ar    1  UNL1       -0.0003
      7 C         -11.3233  -15.8436   21.4247 C.ar    1  UNL1        0.0001
      8 C          -9.8650  -16.1533   21.5899 C.ar    1  UNL1        0.0042
      9 C          -9.4095  -17.0449   22.7069 C.ar    1  UNL1        0.0496
     10 C          -9.5483  -17.9239   26.0907 C.3     1  UNL1        0.0047
     11 C          -9.9567  -18.5183   24.7755 C.3     1  UNL1        0.0225
     12 C          -9.9096  -20.0044   24.5773 C.3     1  UNL1        0.0047
     13 C          -8.0810  -19.0256   20.8871 C.3     1  UNL1        0.0926
     14 C          -9.5072  -19.4770   20.9962 C.3     1  UNL1        0.0383
     15 C          -9.8960  -20.1048   19.6906 C.3     1  UNL1        0.0704
     16 N          -8.7100  -20.0415   18.7745 N.3     1  UNL1       -0.2960
     17 C          -7.5882  -19.3745   19.5139 C.3     1  UNL1        0.0887
     18 H          -8.9445  -19.5018   17.9413 H       1  UNL1        0.1233
     19 C          -5.8284  -18.6545   22.1275 C.3     1  UNL1        0.0756
     20 C          -4.6933  -18.0390   22.8908 C.3     1  UNL1        0.0199
     21 C          -3.7660  -19.0924   22.3612 C.3     1  UNL1        0.0034
     22 C          -4.9012  -19.7078   21.5978 C.3     1  UNL1        0.0199
@<TRIPOS>BOND
     1    10    11    1
     2    11    12    1
     3    11     4    1
     4     4     5   ar
     5     5     6   ar
     6     6     7   ar
     7     7     8   ar
     8     8     9   ar
     9     9     1    1
    10     1     2    2
    11     1     3   am
    12     3    19    1
    13    19    20    1
    14    20    21    1
    15    21    22    1
    16    13     3    1
    17    13    14    1
    18    14    15    1
    19    15    16    1
    20    16    17    1
    21     9     4   ar
    22    22    19    1
    23    17    13    1
    24    16    18    1
