@<TRIPOS>MOLECULE
*****
 24 26 0 0 0
SMALL
GASTEIGER

@<TRIPOS>ATOM
      1 C          -8.0673  -17.9588   21.5770 C.3     1  UNL1        0.1471
      2 O          -6.7693  -17.2588   21.8509 O.3     1  UNL1       -0.3812
      3 C          -9.1820  -18.8786   21.1753 C.3     1  UNL1        0.0584
      4 C         -10.4769  -18.2492   21.5961 C.ar    1  UNL1       -0.0202
      5 C         -11.9016  -18.6988   21.4621 C.ar    1  UNL1       -0.0044
      6 C         -13.0119  -17.8395   21.9901 C.ar    1  UNL1       -0.0003
      7 C         -12.6976  -16.5307   22.6520 C.ar    1  UNL1       -0.0002
      8 C         -11.2728  -16.0811   22.7860 C.ar    1  UNL1       -0.0011
      9 C         -10.1625  -16.9404   22.2580 C.ar    1  UNL1        0.0157
     10 C          -8.6733  -16.7609   22.2462 C.3     1  UNL1        0.2138
     11 H          -6.0348  -17.7974   21.5172 H       1  UNL1        0.2105
     12 C          -7.1900  -19.0103   20.9651 C.3     1  UNL1        0.1001
     13 C          -4.8187  -19.2981   19.9431 C.3     1  UNL1        0.0859
     14 N          -6.1601  -18.6268   19.9441 N.3     1  UNL1       -0.2942
     15 H          -6.5756  -18.7976   19.0283 H       1  UNL1        0.1234
     16 O          -7.9220  -15.5892   22.8055 O.3     1  UNL1       -0.4692
     17 C          -7.5563  -15.5577   24.2599 C.ar    1  UNL1        0.1726
     18 C          -8.6331  -15.5152   25.3033 C.ar    1  UNL1        0.0401
     19 C          -8.2674  -15.4837   26.7577 C.ar    1  UNL1        0.0033
     20 C          -6.8248  -15.4948   27.1687 C.ar    1  UNL1        0.0033
     21 C          -5.7480  -15.5374   26.1253 C.ar    1  UNL1        0.0400
     22 C          -6.1137  -15.5689   24.6709 C.ar    1  UNL1        0.1724
     23 O          -5.0369  -15.6114   23.6275 O.3     1  UNL1       -0.4684
     24 C          -4.0953  -16.7776   23.5686 C.3     1  UNL1        0.2526
@<TRIPOS>BOND
     1    13    14    1
     2    14    12    1
     3    12     1    1
     4     1     2    1
     5     1     3    1
     6     3     4    1
     7     4     5   ar
     8     5     6   ar
     9     6     7   ar
    10     7     8   ar
    11     8     9   ar
    12     9    10    1
    13    10    16    1
    14    16    17    1
    15    17    18   ar
    16    18    19   ar
    17    19    20   ar
    18    20    21   ar
    19    21    22   ar
    20    22    23    1
    21    23    24    1
    22    10     1    1
    23    22    17   ar
    24     9     4   ar
    25    14    15    1
    26     2    11    1
@<TRIPOS>MOLECULE
*****
 24 26 0 0 0
SMALL
GASTEIGER

@<TRIPOS>ATOM
      1 C          -7.9988  -16.1759   23.5413 C.3     1  UNL1        0.1471
      2 O          -6.9470  -15.6316   22.6207 O.3     1  UNL1       -0.3812
      3 C          -8.9785  -16.4711   24.6381 C.3     1  UNL1        0.0584
      4 C          -9.7089  -17.7315   24.2804 C.ar    1  UNL1       -0.0202
      5 C         -10.7868  -18.5012   24.9845 C.ar    1  UNL1       -0.0044
      6 C         -11.3363  -19.7547   24.3707 C.ar    1  UNL1       -0.0003
      7 C         -10.8079  -20.2385   23.0529 C.ar    1  UNL1       -0.0002
      8 C          -9.7300  -19.4688   22.3488 C.ar    1  UNL1       -0.0011
      9 C          -9.1805  -18.2154   22.9626 C.ar    1  UNL1        0.0157
     10 C          -8.1237  -17.2539   22.5058 C.3     1  UNL1        0.2138
     11 H          -6.5764  -14.8185   22.9981 H       1  UNL1        0.2105
     12 C          -7.6541  -14.9841   24.3843 C.3     1  UNL1        0.1001
     13 C          -5.4667  -15.2480   25.7612 C.3     1  UNL1        0.0859
     14 N          -6.2175  -14.6240   24.6224 N.3     1  UNL1       -0.2942
     15 H          -5.7096  -14.8605   23.7700 H       1  UNL1        0.1234
     16 O          -7.3308  -17.3532   21.2363 O.3     1  UNL1       -0.4692
     17 C          -6.4670  -18.5532   20.9833 C.ar    1  UNL1        0.1726
     18 C          -6.9635  -19.6628   20.1045 C.ar    1  UNL1        0.0401
     19 C          -6.0998  -20.8628   19.8515 C.ar    1  UNL1        0.0033
     20 C          -4.7396  -20.9532   20.4774 C.ar    1  UNL1        0.0033
     21 C          -4.2432  -19.8436   21.3562 C.ar    1  UNL1        0.0400
     22 C          -5.1068  -18.6436   21.6092 C.ar    1  UNL1        0.1724
     23 O          -4.6104  -17.5340   22.4881 O.3     1  UNL1       -0.4684
     24 C          -3.6724  -17.8356   23.6191 C.3     1  UNL1        0.2526
@<TRIPOS>BOND
     1    13    14    1
     2    14    12    1
     3    12     1    1
     4     1     2    1
     5     1     3    1
     6     3     4    1
     7     4     5   ar
     8     5     6   ar
     9     6     7   ar
    10     7     8   ar
    11     8     9   ar
    12     9    10    1
    13    10    16    1
    14    16    17    1
    15    17    18   ar
    16    18    19   ar
    17    19    20   ar
    18    20    21   ar
    19    21    22   ar
    20    22    23    1
    21    23    24    1
    22    10     1    1
    23    22    17   ar
    24     9     4   ar
    25    14    15    1
    26     2    11    1
@<TRIPOS>MOLECULE
*****
 24 26 0 0 0
SMALL
GASTEIGER

@<TRIPOS>ATOM
      1 C          -6.2355  -15.9266   23.8188 C.3     1  UNL1        0.1471
      2 O          -7.2167  -14.8272   24.0987 O.3     1  UNL1       -0.3812
      3 C          -5.0661  -16.8617   23.7286 C.3     1  UNL1        0.0584
      4 C          -5.4482  -17.9958   22.8242 C.ar    1  UNL1       -0.0202
      5 C          -4.6979  -19.2115   22.3669 C.ar    1  UNL1       -0.0044
      6 C          -5.3531  -20.1929   21.4410 C.ar    1  UNL1       -0.0003
      7 C          -6.7586  -19.9587   20.9723 C.ar    1  UNL1       -0.0002
      8 C          -7.5089  -18.7430   21.4295 C.ar    1  UNL1       -0.0011
      9 C          -6.8537  -17.7616   22.3555 C.ar    1  UNL1        0.0157
     10 C          -7.3403  -16.4827   22.9702 C.3     1  UNL1        0.2138
     11 H          -6.8139  -14.1788   24.6972 H       1  UNL1        0.2105
     12 C          -5.3358  -15.1406   24.7260 C.3     1  UNL1        0.1001
     13 C          -6.3754  -15.5276   27.0753 C.3     1  UNL1        0.0859
     14 N          -5.8661  -14.5935   26.0180 N.3     1  UNL1       -0.2942
     15 H          -5.1112  -14.0535   26.4410 H       1  UNL1        0.1234
     16 O          -8.6940  -15.8680   22.7712 O.3     1  UNL1       -0.4692
     17 C          -9.9303  -16.6854   23.0026 C.ar    1  UNL1        0.1726
     18 C         -10.0017  -17.6228   24.1714 C.ar    1  UNL1        0.0401
     19 C         -11.2379  -18.4402   24.4028 C.ar    1  UNL1        0.0033
     20 C         -12.4027  -18.3202   23.4654 C.ar    1  UNL1        0.0033
     21 C         -12.3313  -17.3827   22.2966 C.ar    1  UNL1        0.0400
     22 C         -11.0951  -16.5653   22.0652 C.ar    1  UNL1        0.1724
     23 O         -11.0237  -15.6279   20.8964 O.3     1  UNL1       -0.4684
     24 C         -11.7381  -15.9636   19.6209 C.3     1  UNL1        0.2526
@<TRIPOS>BOND
     1    13    14    1
     2    14    12    1
     3    12     1    1
     4     1     2    1
     5     1     3    1
     6     3     4    1
     7     4     5   ar
     8     5     6   ar
     9     6     7   ar
    10     7     8   ar
    11     8     9   ar
    12     9    10    1
    13    10    16    1
    14    16    17    1
    15    17    18   ar
    16    18    19   ar
    17    19    20   ar
    18    20    21   ar
    19    21    22   ar
    20    22    23    1
    21    23    24    1
    22    10     1    1
    23    22    17   ar
    24     9     4   ar
    25    14    15    1
    26     2    11    1
@<TRIPOS>MOLECULE
*****
 24 26 0 0 0
SMALL
GASTEIGER

@<TRIPOS>ATOM
      1 C          -7.9948  -16.0983   23.6285 C.3     1  UNL1        0.1471
      2 O          -6.9519  -15.5449   22.7032 O.3     1  UNL1       -0.3812
      3 C          -8.9663  -16.4025   24.7301 C.3     1  UNL1        0.0584
      4 C          -9.6899  -17.6673   24.3740 C.ar    1  UNL1       -0.0202
      5 C         -10.7585  -18.4458   25.0825 C.ar    1  UNL1       -0.0044
      6 C         -11.3027  -19.7018   24.4692 C.ar    1  UNL1       -0.0003
      7 C         -10.7783  -20.1794   23.1475 C.ar    1  UNL1       -0.0002
      8 C          -9.7097  -19.4009   22.4390 C.ar    1  UNL1       -0.0011
      9 C          -9.1655  -18.1448   23.0522 C.ar    1  UNL1        0.0157
     10 C          -8.1179  -17.1751   22.5915 C.3     1  UNL1        0.2138
     11 H          -6.5848  -14.7300   23.0801 H       1  UNL1        0.2105
     12 C          -7.6537  -14.9058   24.4720 C.3     1  UNL1        0.1001
     13 C          -5.5290  -15.1317   25.9501 C.3     1  UNL1        0.0859
     14 N          -6.2184  -14.5655   24.7442 N.3     1  UNL1       -0.2942
     15 H          -5.6842  -14.8693   23.9301 H       1  UNL1        0.1234
     16 O          -7.3315  -17.2663   21.3174 O.3     1  UNL1       -0.4692
     17 C          -6.5376  -18.5021   21.0129 C.ar    1  UNL1        0.1726
     18 C          -5.2565  -18.7702   21.7458 C.ar    1  UNL1        0.0401
     19 C          -4.4626  -20.0058   21.4413 C.ar    1  UNL1        0.0033
     20 C          -4.9498  -20.9735   20.4039 C.ar    1  UNL1        0.0033
     21 C          -6.2309  -20.7055   19.6710 C.ar    1  UNL1        0.0400
     22 C          -7.0248  -19.4698   19.9755 C.ar    1  UNL1        0.1724
     23 O          -8.3058  -19.2018   19.2426 O.3     1  UNL1       -0.4684
     24 C          -9.0716  -20.3373   18.6308 C.3     1  UNL1        0.2526
@<TRIPOS>BOND
     1    13    14    1
     2    14    12    1
     3    12     1    1
     4     1     2    1
     5     1     3    1
     6     3     4    1
     7     4     5   ar
     8     5     6   ar
     9     6     7   ar
    10     7     8   ar
    11     8     9   ar
    12     9    10    1
    13    10    16    1
    14    16    17    1
    15    17    18   ar
    16    18    19   ar
    17    19    20   ar
    18    20    21   ar
    19    21    22   ar
    20    22    23    1
    21    23    24    1
    22    10     1    1
    23    22    17   ar
    24     9     4   ar
    25    14    15    1
    26     2    11    1
@<TRIPOS>MOLECULE
*****
 24 26 0 0 0
SMALL
GASTEIGER

@<TRIPOS>ATOM
      1 C          -7.4308  -16.4565   22.9921 C.3     1  UNL1        0.1471
      2 O          -6.1052  -16.6951   23.6522 O.3     1  UNL1       -0.3812
      3 C          -8.7355  -15.9354   22.4664 C.3     1  UNL1        0.0584
      4 C          -9.3652  -17.0148   21.6368 C.ar    1  UNL1       -0.0202
      5 C         -10.6540  -17.0692   20.8712 C.ar    1  UNL1       -0.0044
      6 C         -11.0273  -18.3118   20.1186 C.ar    1  UNL1       -0.0003
      7 C         -10.1118  -19.5000   20.1315 C.ar    1  UNL1       -0.0002
      8 C          -8.8231  -19.4456   20.8971 C.ar    1  UNL1       -0.0011
      9 C          -8.4498  -18.2030   21.6497 C.ar    1  UNL1        0.0157
     10 C          -7.2543  -17.8579   22.4874 C.3     1  UNL1        0.2138
     11 H          -5.8427  -15.9026   24.1462 H       1  UNL1        0.2105
     12 C          -7.3303  -15.1049   23.6349 C.3     1  UNL1        0.1001
     13 C          -8.2540  -15.4755   26.0348 C.3     1  UNL1        0.0859
     14 N          -8.2759  -14.7258   24.7358 N.3     1  UNL1       -0.2942
     15 H          -8.0924  -13.7472   24.9575 H       1  UNL1        0.1234
     16 O          -6.0871  -18.7566   22.7705 O.3     1  UNL1       -0.4692
     17 C          -5.1512  -19.1418   21.6633 C.ar    1  UNL1        0.1726
     18 C          -5.4839  -20.2987   20.7685 C.ar    1  UNL1        0.0401
     19 C          -4.5481  -20.6839   19.6613 C.ar    1  UNL1        0.0033
     20 C          -3.2794  -19.9122   19.4491 C.ar    1  UNL1        0.0033
     21 C          -2.9467  -18.7553   20.3440 C.ar    1  UNL1        0.0400
     22 C          -3.8826  -18.3701   21.4511 C.ar    1  UNL1        0.1724
     23 O          -3.5499  -17.2131   22.3460 O.3     1  UNL1       -0.4684
     24 C          -2.3689  -16.3414   22.0372 C.3     1  UNL1        0.2526
@<TRIPOS>BOND
     1    13    14    1
     2    14    12    1
     3    12     1    1
     4     1     2    1
     5     1     3    1
     6     3     4    1
     7     4     5   ar
     8     5     6   ar
     9     6     7   ar
    10     7     8   ar
    11     8     9   ar
    12     9    10    1
    13    10    16    1
    14    16    17    1
    15    17    18   ar
    16    18    19   ar
    17    19    20   ar
    18    20    21   ar
    19    21    22   ar
    20    22    23    1
    21    23    24    1
    22    10     1    1
    23    22    17   ar
    24     9     4   ar
    25    14    15    1
    26     2    11    1
@<TRIPOS>MOLECULE
*****
 24 26 0 0 0
SMALL
GASTEIGER

@<TRIPOS>ATOM
      1 C          -6.4008  -16.4878   23.6718 C.3     1  UNL1        0.1471
      2 O          -7.8753  -16.6631   23.8843 O.3     1  UNL1       -0.3812
      3 C          -4.9750  -16.0300   23.5864 C.3     1  UNL1        0.0584
      4 C          -4.1694  -17.1350   22.9700 C.ar    1  UNL1       -0.0202
      5 C          -2.7108  -17.2499   22.6397 C.ar    1  UNL1       -0.0044
      6 C          -2.1802  -18.5055   22.0138 C.ar    1  UNL1       -0.0003
      7 C          -3.1082  -19.6463   21.7182 C.ar    1  UNL1       -0.0002
      8 C          -4.5668  -19.5315   22.0485 C.ar    1  UNL1       -0.0011
      9 C          -5.0974  -18.2758   22.6744 C.ar    1  UNL1        0.0157
     10 C          -6.4765  -17.8758   23.1082 C.3     1  UNL1        0.2138
     11 H          -8.2412  -15.8612   24.2893 H       1  UNL1        0.2105
     12 C          -6.6334  -15.1364   24.2799 C.3     1  UNL1        0.1001
     13 C          -6.4859  -15.3091   26.8680 C.3     1  UNL1        0.0859
     14 N          -5.9625  -14.7691   25.5702 N.3     1  UNL1       -0.2942
     15 H          -4.9919  -15.0737   25.4946 H       1  UNL1        0.1234
     16 O          -7.7140  -18.7163   22.9976 O.3     1  UNL1       -0.4692
     17 C          -8.4001  -18.8704   21.6726 C.ar    1  UNL1        0.1726
     18 C          -7.7128  -19.5920   20.5515 C.ar    1  UNL1        0.0401
     19 C          -8.3988  -19.7461   19.2266 C.ar    1  UNL1        0.0033
     20 C          -9.7722  -19.1786   19.0227 C.ar    1  UNL1        0.0033
     21 C         -10.4596  -18.4570   20.1438 C.ar    1  UNL1        0.0400
     22 C          -9.7736  -18.3029   21.4687 C.ar    1  UNL1        0.1724
     23 O         -10.4610  -17.5813   22.5898 O.3     1  UNL1       -0.4684
     24 C         -11.3742  -16.4292   22.2918 C.3     1  UNL1        0.2526
@<TRIPOS>BOND
     1    13    14    1
     2    14    12    1
     3    12     1    1
     4     1     2    1
     5     1     3    1
     6     3     4    1
     7     4     5   ar
     8     5     6   ar
     9     6     7   ar
    10     7     8   ar
    11     8     9   ar
    12     9    10    1
    13    10    16    1
    14    16    17    1
    15    17    18   ar
    16    18    19   ar
    17    19    20   ar
    18    20    21   ar
    19    21    22   ar
    20    22    23    1
    21    23    24    1
    22    10     1    1
    23    22    17   ar
    24     9     4   ar
    25    14    15    1
    26     2    11    1
@<TRIPOS>MOLECULE
*****
 24 26 0 0 0
SMALL
GASTEIGER

@<TRIPOS>ATOM
      1 C          -7.4783  -15.9717   24.0584 C.3     1  UNL1        0.1471
      2 O          -8.7893  -15.4355   24.5522 O.3     1  UNL1       -0.3812
      3 C          -6.0512  -16.2424   23.6843 C.3     1  UNL1        0.0584
      4 C          -5.9991  -17.5678   22.9837 C.ar    1  UNL1       -0.0202
      5 C          -4.8616  -18.3460   22.3917 C.ar    1  UNL1       -0.0044
      6 C          -5.1191  -19.6727   21.7409 C.ar    1  UNL1       -0.0003
      7 C          -6.5140  -20.2211   21.6821 C.ar    1  UNL1       -0.0002
      8 C          -7.6515  -19.4428   22.2740 C.ar    1  UNL1       -0.0011
      9 C          -7.3940  -18.1161   22.9248 C.ar    1  UNL1        0.0157
     10 C          -8.3082  -17.1297   23.5890 C.3     1  UNL1        0.2138
     11 H          -8.6471  -14.5756   24.9781 H       1  UNL1        0.2105
     12 C          -6.9225  -14.7016   24.6310 C.3     1  UNL1        0.1001
     13 C          -6.5162  -15.2254   27.1431 C.3     1  UNL1        0.0859
     14 N          -6.0034  -14.7520   25.8154 N.3     1  UNL1       -0.2942
     15 H          -5.2302  -15.3672   25.5620 H       1  UNL1        0.1234
     16 O          -9.7919  -17.2757   23.7548 O.3     1  UNL1       -0.4692
     17 C         -10.7061  -17.0052   22.5967 C.ar    1  UNL1        0.1726
     18 C         -10.2029  -16.2450   21.4055 C.ar    1  UNL1        0.0401
     19 C         -11.1171  -15.9745   20.2475 C.ar    1  UNL1        0.0033
     20 C         -12.5345  -16.4642   20.2806 C.ar    1  UNL1        0.0033
     21 C         -13.0377  -17.2243   21.4718 C.ar    1  UNL1        0.0400
     22 C         -12.1236  -17.4949   22.6299 C.ar    1  UNL1        0.1724
     23 O         -12.6268  -18.2550   23.8210 O.3     1  UNL1       -0.4684
     24 C         -14.0652  -18.1408   24.2308 C.3     1  UNL1        0.2526
@<TRIPOS>BOND
     1    13    14    1
     2    14    12    1
     3    12     1    1
     4     1     2    1
     5     1     3    1
     6     3     4    1
     7     4     5   ar
     8     5     6   ar
     9     6     7   ar
    10     7     8   ar
    11     8     9   ar
    12     9    10    1
    13    10    16    1
    14    16    17    1
    15    17    18   ar
    16    18    19   ar
    17    19    20   ar
    18    20    21   ar
    19    21    22   ar
    20    22    23    1
    21    23    24    1
    22    10     1    1
    23    22    17   ar
    24     9     4   ar
    25    14    15    1
    26     2    11    1
@<TRIPOS>MOLECULE
*****
 24 26 0 0 0
SMALL
GASTEIGER

@<TRIPOS>ATOM
      1 C          -7.2768  -18.4727   22.0187 C.3     1  UNL1        0.1471
      2 O          -6.0801  -17.7454   22.5561 O.3     1  UNL1       -0.3812
      3 C          -8.2766  -19.4433   21.4635 C.3     1  UNL1        0.0584
      4 C          -9.5865  -18.7271   21.3179 C.ar    1  UNL1       -0.0202
      5 C         -10.9279  -19.1792   20.8218 C.ar    1  UNL1       -0.0044
      6 C         -12.0791  -18.2181   20.7909 C.ar    1  UNL1       -0.0003
      7 C         -11.8889  -16.8048   21.2561 C.ar    1  UNL1       -0.0002
      8 C         -10.5475  -16.3527   21.7522 C.ar    1  UNL1       -0.0011
      9 C          -9.3963  -17.3138   21.7831 C.ar    1  UNL1        0.0157
     10 C          -7.9688  -17.1566   22.2163 C.3     1  UNL1        0.2138
     11 H          -5.3212  -18.3488   22.5853 H       1  UNL1        0.2105
     12 C          -6.3346  -19.6367   21.9335 C.3     1  UNL1        0.1001
     13 C          -4.2353  -20.0420   20.4575 C.3     1  UNL1        0.0859
     14 N          -4.8795  -19.4048   21.6530 N.3     1  UNL1       -0.2942
     15 H          -4.7560  -18.3974   21.5520 H       1  UNL1        0.1234
     16 O          -7.3432  -15.9033   22.7527 O.3     1  UNL1       -0.4692
     17 C          -7.0919  -15.7612   24.2248 C.ar    1  UNL1        0.1726
     18 C          -5.7940  -15.1886   24.7122 C.ar    1  UNL1        0.0401
     19 C          -5.5427  -15.0465   26.1841 C.ar    1  UNL1        0.0033
     20 C          -6.5893  -15.4770   27.1686 C.ar    1  UNL1        0.0033
     21 C          -7.8872  -16.0495   26.6812 C.ar    1  UNL1        0.0400
     22 C          -8.1386  -16.1916   25.2093 C.ar    1  UNL1        0.1724
     23 O          -9.4365  -16.7642   24.7219 O.3     1  UNL1       -0.4684
     24 C          -9.8721  -18.1265   25.1741 C.3     1  UNL1        0.2526
@<TRIPOS>BOND
     1    13    14    1
     2    14    12    1
     3    12     1    1
     4     1     2    1
     5     1     3    1
     6     3     4    1
     7     4     5   ar
     8     5     6   ar
     9     6     7   ar
    10     7     8   ar
    11     8     9   ar
    12     9    10    1
    13    10    16    1
    14    16    17    1
    15    17    18   ar
    16    18    19   ar
    17    19    20   ar
    18    20    21   ar
    19    21    22   ar
    20    22    23    1
    21    23    24    1
    22    10     1    1
    23    22    17   ar
    24     9     4   ar
    25    14    15    1
    26     2    11    1
@<TRIPOS>MOLECULE
*****
 24 26 0 0 0
SMALL
GASTEIGER

@<TRIPOS>ATOM
      1 C          -9.5989  -17.6196   23.0137 C.3     1  UNL1        0.1471
      2 O          -9.6151  -18.0780   21.5856 O.3     1  UNL1       -0.3812
      3 C          -9.8719  -17.2822   24.4496 C.3     1  UNL1        0.0584
      4 C          -8.6608  -16.5905   25.0016 C.ar    1  UNL1       -0.0202
      5 C          -8.3562  -16.0311   26.3596 C.ar    1  UNL1       -0.0044
      6 C          -7.0301  -15.3814   26.6229 C.ar    1  UNL1       -0.0003
      7 C          -6.0086  -15.2912   25.5282 C.ar    1  UNL1       -0.0002
      8 C          -6.3132  -15.8506   24.1702 C.ar    1  UNL1       -0.0011
      9 C          -7.6393  -16.5002   23.9069 C.ar    1  UNL1        0.0157
     10 C          -8.2191  -17.1363   22.6783 C.3     1  UNL1        0.2138
     11 H         -10.4655  -18.5024   21.3918 H       1  UNL1        0.2105
     12 C         -10.9821  -18.1987   23.0506 C.3     1  UNL1        0.1001
     13 C         -12.2299  -16.1965   21.9624 C.3     1  UNL1        0.0859
     14 N         -12.0392  -17.6755   22.1238 N.3     1  UNL1       -0.2942
     15 H         -11.8296  -18.0482   21.1978 H       1  UNL1        0.1234
     16 O          -7.5385  -17.2662   21.3480 O.3     1  UNL1       -0.4692
     17 C          -6.7898  -18.5208   21.0078 C.ar    1  UNL1        0.1726
     18 C          -7.4470  -19.5853   20.1802 C.ar    1  UNL1        0.0401
     19 C          -6.6985  -20.8398   19.8401 C.ar    1  UNL1        0.0033
     20 C          -5.2927  -21.0298   20.3275 C.ar    1  UNL1        0.0033
     21 C          -4.6355  -19.9653   21.1551 C.ar    1  UNL1        0.0400
     22 C          -5.3840  -18.7108   21.4952 C.ar    1  UNL1        0.1724
     23 O          -4.7268  -17.6462   22.3228 O.3     1  UNL1       -0.4684
     24 C          -3.5748  -17.9961   23.2174 C.3     1  UNL1        0.2526
@<TRIPOS>BOND
     1    13    14    1
     2    14    12    1
     3    12     1    1
     4     1     2    1
     5     1     3    1
     6     3     4    1
     7     4     5   ar
     8     5     6   ar
     9     6     7   ar
    10     7     8   ar
    11     8     9   ar
    12     9    10    1
    13    10    16    1
    14    16    17    1
    15    17    18   ar
    16    18    19   ar
    17    19    20   ar
    18    20    21   ar
    19    21    22   ar
    20    22    23    1
    21    23    24    1
    22    10     1    1
    23    22    17   ar
    24     9     4   ar
    25    14    15    1
    26     2    11    1
