@<TRIPOS>MOLECULE
*****
 22 23 0 0 0
SMALL
GASTEIGER

@<TRIPOS>ATOM
      1 C          -9.5580  -17.9557   22.9096 C.2     1  UNL1        0.1855
      2 O          -9.0542  -19.1549   22.1626 O.2     1  UNL1       -0.2900
      3 C          -8.6063  -17.1157   23.7089 C.ar    1  UNL1        0.0369
      4 C          -7.2568  -16.7739   23.1504 C.ar    1  UNL1        0.0042
      5 C          -6.3052  -15.9339   23.9496 C.ar    1  UNL1        0.0150
      6 C          -6.7031  -15.4357   25.3074 C.ar    1  UNL1        0.0522
      7 N          -5.7515  -14.5956   26.1067 N.pl3   1  UNL1       -0.3563
      8 C          -8.0526  -15.7775   25.8659 C.ar    1  UNL1        0.0706
      9 CL         -8.4505  -15.2793   27.2236 Cl      1  UNL1       -0.0810
     10 C          -9.0042  -16.6175   25.0666 C.ar    1  UNL1        0.0155
     11 H          -4.8657  -14.3713   25.7401 H       1  UNL1        0.1424
     12 H          -6.0126  -14.2686   26.9978 H       1  UNL1        0.1424
     13 C         -11.0133  -17.5965   22.8574 C.3     1  UNL1        0.0981
     14 C         -12.3789  -17.0437   22.5753 C.3     1  UNL1        0.0233
     15 C         -13.3483  -17.7030   23.5112 C.3     1  UNL1        0.0189
     16 C         -12.5817  -18.6633   24.3715 C.3     1  UNL1        0.0689
     17 N         -11.1386  -18.5975   23.9674 N.3     1  UNL1       -0.2938
     18 H         -10.8275  -19.5135   23.6443 H       1  UNL1        0.1235
     19 C         -10.5837  -16.6706   21.7582 C.3     1  UNL1        0.0219
     20 C         -11.0306  -18.2867   19.7736 C.3     1  UNL1        0.0001
     21 C         -11.0562  -16.9036   20.3538 C.3     1  UNL1        0.0017
     22 C         -11.5542  -15.7536   19.5294 C.3     1  UNL1        0.0001
@<TRIPOS>BOND
     1    20    21    1
     2    21    22    1
     3    21    19    1
     4    19    13    1
     5    13     1    1
     6     1     2    2
     7     1     3    1
     8     3     4   ar
     9     4     5   ar
    10     5     6   ar
    11     6     7    1
    12     6     8   ar
    13     8     9    1
    14     8    10   ar
    15    13    14    1
    16    14    15    1
    17    15    16    1
    18    16    17    1
    19    17    13    1
    20    10     3   ar
    21     7    11    1
    22     7    12    1
    23    17    18    1
@<TRIPOS>MOLECULE
*****
 22 23 0 0 0
SMALL
GASTEIGER

@<TRIPOS>ATOM
      1 C          -7.7283  -18.7575   21.1624 C.2     1  UNL1        0.1855
      2 O          -8.5408  -19.0523   19.9365 O.2     1  UNL1       -0.2900
      3 C          -6.2706  -19.1097   21.1986 C.ar    1  UNL1        0.0369
      4 C          -5.7188  -20.1192   20.2361 C.ar    1  UNL1        0.0042
      5 C          -4.2612  -20.4713   20.2723 C.ar    1  UNL1        0.0150
      6 C          -3.3554  -19.8139   21.2710 C.ar    1  UNL1        0.0522
      7 N          -1.8977  -20.1661   21.3072 N.pl3   1  UNL1       -0.3563
      8 C          -3.9072  -18.8044   22.2334 C.ar    1  UNL1        0.0706
      9 CL         -3.0013  -18.1470   23.2321 Cl      1  UNL1       -0.0810
     10 C          -5.3648  -18.4523   22.1972 C.ar    1  UNL1        0.0155
     11 H          -1.5355  -20.8287   20.6755 H       1  UNL1        0.1424
     12 H          -1.3032  -19.7346   21.9626 H       1  UNL1        0.1424
     13 C          -8.3733  -18.1106   22.3521 C.3     1  UNL1        0.0981
     14 C          -9.0519  -17.7587   23.6427 C.3     1  UNL1        0.0233
     15 C          -9.1760  -16.2653   23.7090 C.3     1  UNL1        0.0189
     16 C          -8.5741  -15.6943   22.4593 C.3     1  UNL1        0.0689
     17 N          -8.0780  -16.8348   21.6207 N.3     1  UNL1       -0.2938
     18 H          -7.0727  -16.7447   21.4738 H       1  UNL1        0.1235
     19 C          -8.5337  -19.5217   22.8347 C.3     1  UNL1        0.0219
     20 C         -10.1556  -20.4927   24.6172 C.3     1  UNL1        0.0001
     21 C          -9.8913  -20.0351   23.2133 C.3     1  UNL1        0.0017
     22 C         -10.9848  -20.0909   22.1880 C.3     1  UNL1        0.0001
@<TRIPOS>BOND
     1    20    21    1
     2    21    22    1
     3    21    19    1
     4    19    13    1
     5    13     1    1
     6     1     2    2
     7     1     3    1
     8     3     4   ar
     9     4     5   ar
    10     5     6   ar
    11     6     7    1
    12     6     8   ar
    13     8     9    1
    14     8    10   ar
    15    13    14    1
    16    14    15    1
    17    15    16    1
    18    16    17    1
    19    17    13    1
    20    10     3   ar
    21     7    11    1
    22     7    12    1
    23    17    18    1
@<TRIPOS>MOLECULE
*****
 22 23 0 0 0
SMALL
GASTEIGER

@<TRIPOS>ATOM
      1 C          -9.5491  -16.3172   22.3283 C.2     1  UNL1        0.1855
      2 O          -9.4270  -15.6746   20.9784 O.2     1  UNL1       -0.2900
      3 C          -8.5258  -16.0357   23.3883 C.ar    1  UNL1        0.0369
      4 C          -7.0701  -15.9834   23.0304 C.ar    1  UNL1        0.0042
      5 C          -6.0468  -15.7019   24.0903 C.ar    1  UNL1        0.0150
      6 C          -6.4792  -15.4727   25.5083 C.ar    1  UNL1        0.0522
      7 N          -5.4558  -15.1912   26.5683 N.pl3   1  UNL1       -0.3563
      8 C          -7.9349  -15.5250   25.8662 C.ar    1  UNL1        0.0706
      9 CL         -8.3673  -15.2959   27.2841 Cl      1  UNL1       -0.0810
     10 C          -8.9582  -15.8065   24.8062 C.ar    1  UNL1        0.0155
     11 H          -4.5004  -15.1569   26.3333 H       1  UNL1        0.1424
     12 H          -5.7396  -15.0408   27.4989 H       1  UNL1        0.1424
     13 C         -10.6945  -17.2413   22.6182 C.3     1  UNL1        0.0981
     14 C         -11.6177  -18.3867   22.9110 C.3     1  UNL1        0.0233
     15 C         -13.0117  -17.8430   23.0173 C.3     1  UNL1        0.0189
     16 C         -12.9500  -16.3616   22.7902 C.3     1  UNL1        0.0689
     17 N         -11.5179  -15.9898   22.5435 N.3     1  UNL1       -0.2938
     18 H         -11.2052  -15.3269   23.2529 H       1  UNL1        0.1235
     19 C          -9.6317  -18.2997   22.6323 C.3     1  UNL1        0.0219
     20 C         -10.1377  -19.1496   20.2298 C.3     1  UNL1        0.0001
     21 C          -9.1630  -18.9090   21.3442 C.3     1  UNL1        0.0017
     22 C          -7.7194  -19.2779   21.1706 C.3     1  UNL1        0.0001
@<TRIPOS>BOND
     1    20    21    1
     2    21    22    1
     3    21    19    1
     4    19    13    1
     5    13     1    1
     6     1     2    2
     7     1     3    1
     8     3     4   ar
     9     4     5   ar
    10     5     6   ar
    11     6     7    1
    12     6     8   ar
    13     8     9    1
    14     8    10   ar
    15    13    14    1
    16    14    15    1
    17    15    16    1
    18    16    17    1
    19    17    13    1
    20    10     3   ar
    21     7    11    1
    22     7    12    1
    23    17    18    1
@<TRIPOS>MOLECULE
*****
 22 23 0 0 0
SMALL
GASTEIGER

@<TRIPOS>ATOM
      1 C          -9.0787  -18.1831   22.0933 C.2     1  UNL1        0.1855
      2 O          -8.3280  -19.3156   21.4577 O.2     1  UNL1       -0.2900
      3 C          -8.3984  -17.3041   23.1006 C.ar    1  UNL1        0.0369
      4 C          -9.1782  -16.7379   24.2501 C.ar    1  UNL1        0.0042
      5 C          -8.4979  -15.8590   25.2573 C.ar    1  UNL1        0.0150
      6 C          -7.0378  -15.5461   25.1151 C.ar    1  UNL1        0.0522
      7 N          -6.3576  -14.6671   26.1224 N.pl3   1  UNL1       -0.3563
      8 C          -6.2580  -16.1122   23.9656 C.ar    1  UNL1        0.0706
      9 CL         -4.7979  -15.7994   23.8233 Cl      1  UNL1       -0.0810
     10 C          -6.9383  -16.9912   22.9583 C.ar    1  UNL1        0.0155
     11 H          -6.8694  -14.2955   26.8768 H       1  UNL1        0.1424
     12 H          -5.3993  -14.4617   26.0290 H       1  UNL1        0.1424
     13 C         -10.5096  -17.9296   21.7215 C.3     1  UNL1        0.0981
     14 C         -11.9870  -17.9641   21.4649 C.3     1  UNL1        0.0233
     15 C         -12.3784  -16.6608   20.8335 C.3     1  UNL1        0.0189
     16 C         -11.1427  -15.8210   20.6999 C.3     1  UNL1        0.0689
     17 N          -9.9877  -16.6051   21.2488 N.3     1  UNL1       -0.2938
     18 H          -9.5664  -16.1007   22.0288 H       1  UNL1        0.1235
     19 C         -10.7322  -19.3070   22.2720 C.3     1  UNL1        0.0219
     20 C         -10.0482  -20.4121   24.5217 C.3     1  UNL1        0.0001
     21 C         -10.9500  -19.5005   23.7434 C.3     1  UNL1        0.0017
     22 C         -12.0697  -18.7823   24.4367 C.3     1  UNL1        0.0001
@<TRIPOS>BOND
     1    20    21    1
     2    21    22    1
     3    21    19    1
     4    19    13    1
     5    13     1    1
     6     1     2    2
     7     1     3    1
     8     3     4   ar
     9     4     5   ar
    10     5     6   ar
    11     6     7    1
    12     6     8   ar
    13     8     9    1
    14     8    10   ar
    15    13    14    1
    16    14    15    1
    17    15    16    1
    18    16    17    1
    19    17    13    1
    20    10     3   ar
    21     7    11    1
    22     7    12    1
    23    17    18    1
@<TRIPOS>MOLECULE
*****
 22 23 0 0 0
SMALL
GASTEIGER

@<TRIPOS>ATOM
      1 C         -10.3670  -18.7102   24.4423 C.2     1  UNL1        0.1855
      2 O          -9.9743  -20.1565   24.3794 O.2     1  UNL1       -0.2900
      3 C          -9.4442  -17.7092   25.0719 C.ar    1  UNL1        0.0369
      4 C          -9.3202  -17.6388   26.5651 C.ar    1  UNL1        0.0042
      5 C          -8.3974  -16.6378   27.1946 C.ar    1  UNL1        0.0150
      6 C          -7.5985  -15.7072   26.3310 C.ar    1  UNL1        0.0522
      7 N          -6.6757  -14.7062   26.9606 N.pl3   1  UNL1       -0.3563
      8 C          -7.7225  -15.7776   24.8378 C.ar    1  UNL1        0.0706
      9 CL         -6.9236  -14.8471   23.9742 Cl      1  UNL1       -0.0810
     10 C          -8.6453  -16.7786   24.2083 C.ar    1  UNL1        0.0155
     11 H          -6.5943  -14.6599   27.9407 H       1  UNL1        0.1424
     12 H          -6.1513  -14.0954   26.3938 H       1  UNL1        0.1424
     13 C         -11.6825  -18.2649   23.8756 C.3     1  UNL1        0.0981
     14 C         -12.8245  -17.7296   23.0638 C.3     1  UNL1        0.0233
     15 C         -14.0852  -17.9225   23.8534 C.3     1  UNL1        0.0189
     16 C         -13.7223  -18.5771   25.1533 C.3     1  UNL1        0.0689
     17 N         -12.2373  -18.7887   25.1671 N.3     1  UNL1       -0.2938
     18 H         -12.0302  -19.7836   25.2545 H       1  UNL1        0.1235
     19 C         -10.8526  -17.8342   22.7027 C.3     1  UNL1        0.0219
     20 C         -11.2219  -17.6570   20.1370 C.3     1  UNL1        0.0001
     21 C         -11.0403  -18.4938   21.3686 C.3     1  UNL1        0.0017
     22 C         -11.0465  -19.9903   21.2661 C.3     1  UNL1        0.0001
@<TRIPOS>BOND
     1    20    21    1
     2    21    22    1
     3    21    19    1
     4    19    13    1
     5    13     1    1
     6     1     2    2
     7     1     3    1
     8     3     4   ar
     9     4     5   ar
    10     5     6   ar
    11     6     7    1
    12     6     8   ar
    13     8     9    1
    14     8    10   ar
    15    13    14    1
    16    14    15    1
    17    15    16    1
    18    16    17    1
    19    17    13    1
    20    10     3   ar
    21     7    11    1
    22     7    12    1
    23    17    18    1
@<TRIPOS>MOLECULE
*****
 22 23 0 0 0
SMALL
GASTEIGER

@<TRIPOS>ATOM
      1 C          -9.5119  -16.6951   22.0451 C.2     1  UNL1        0.1855
      2 O         -10.5578  -15.7826   21.4765 O.2     1  UNL1       -0.2900
      3 C          -8.7402  -16.2841   23.2640 C.ar    1  UNL1        0.0369
      4 C          -7.5752  -15.3483   23.1338 C.ar    1  UNL1        0.0042
      5 C          -6.8036  -14.9373   24.3527 C.ar    1  UNL1        0.0150
      6 C          -7.1970  -15.4621   25.7017 C.ar    1  UNL1        0.0522
      7 N          -6.4253  -15.0510   26.9206 N.pl3   1  UNL1       -0.3563
      8 C          -8.3620  -16.3979   25.8318 C.ar    1  UNL1        0.0706
      9 CL         -8.7555  -16.9226   27.1808 Cl      1  UNL1       -0.0810
     10 C          -9.1336  -16.8089   24.6130 C.ar    1  UNL1        0.0155
     11 H          -5.6606  -14.4369   26.8351 H       1  UNL1        0.1424
     12 H          -6.6835  -15.3955   27.8060 H       1  UNL1        0.1424
     13 C          -9.2376  -18.0187   21.3948 C.3     1  UNL1        0.0981
     14 C          -9.2739  -19.3799   20.7656 C.3     1  UNL1        0.0233
     15 C          -7.8679  -19.7645   20.4114 C.3     1  UNL1        0.0189
     16 C          -6.9627  -18.6409   20.8216 C.3     1  UNL1        0.0689
     17 N          -7.8092  -17.5620   21.4293 N.3     1  UNL1       -0.2938
     18 H          -7.7084  -16.6999   20.8936 H       1  UNL1        0.1235
     19 C         -10.7233  -18.1987   21.4961 C.3     1  UNL1        0.0219
     20 C         -10.6902  -19.9754   23.3915 C.3     1  UNL1        0.0001
     21 C         -11.3248  -18.7826   22.7400 C.3     1  UNL1        0.0017
     22 C         -12.5611  -18.1737   23.3324 C.3     1  UNL1        0.0001
@<TRIPOS>BOND
     1    20    21    1
     2    21    22    1
     3    21    19    1
     4    19    13    1
     5    13     1    1
     6     1     2    2
     7     1     3    1
     8     3     4   ar
     9     4     5   ar
    10     5     6   ar
    11     6     7    1
    12     6     8   ar
    13     8     9    1
    14     8    10   ar
    15    13    14    1
    16    14    15    1
    17    15    16    1
    18    16    17    1
    19    17    13    1
    20    10     3   ar
    21     7    11    1
    22     7    12    1
    23    17    18    1
@<TRIPOS>MOLECULE
*****
 22 23 0 0 0
SMALL
GASTEIGER

@<TRIPOS>ATOM
      1 C          -8.8079  -17.7661   22.3265 C.2     1  UNL1        0.1855
      2 O          -8.6071  -16.8798   23.5199 O.2     1  UNL1       -0.2900
      3 C          -7.6438  -18.5072   21.7384 C.ar    1  UNL1        0.0369
      4 C          -7.8018  -19.2446   20.4418 C.ar    1  UNL1        0.0042
      5 C          -6.6378  -19.9857   19.8538 C.ar    1  UNL1        0.0150
      6 C          -5.3157  -19.9894   20.5624 C.ar    1  UNL1        0.0522
      7 N          -4.1517  -20.7305   19.9743 N.pl3   1  UNL1       -0.3563
      8 C          -5.1577  -19.2520   21.8590 C.ar    1  UNL1        0.0706
      9 CL         -3.8356  -19.2557   22.5676 Cl      1  UNL1       -0.0810
     10 C          -6.3217  -18.5109   22.4470 C.ar    1  UNL1        0.0155
     11 H          -4.2554  -21.2145   19.1233 H       1  UNL1        0.1424
     12 H          -3.2840  -20.7330   20.4394 H       1  UNL1        0.1424
     13 C         -10.1726  -17.9113   21.7211 C.3     1  UNL1        0.0981
     14 C         -11.5261  -18.3438   21.2408 C.3     1  UNL1        0.0233
     15 C         -12.1308  -17.2060   20.4727 C.3     1  UNL1        0.0189
     16 C         -11.1509  -16.0704   20.4784 C.3     1  UNL1        0.0689
     17 N          -9.9407  -16.5062   21.2500 N.3     1  UNL1       -0.2938
     18 H          -9.8011  -15.8909   22.0515 H       1  UNL1        0.1235
     19 C         -10.1191  -19.2860   22.3189 C.3     1  UNL1        0.0219
     20 C         -11.6132  -18.6821   24.3568 C.3     1  UNL1        0.0001
     21 C         -10.5078  -19.4961   23.7523 C.3     1  UNL1        0.0017
     22 C          -9.7912  -20.5204   24.5813 C.3     1  UNL1        0.0001
@<TRIPOS>BOND
     1    20    21    1
     2    21    22    1
     3    21    19    1
     4    19    13    1
     5    13     1    1
     6     1     2    2
     7     1     3    1
     8     3     4   ar
     9     4     5   ar
    10     5     6   ar
    11     6     7    1
    12     6     8   ar
    13     8     9    1
    14     8    10   ar
    15    13    14    1
    16    14    15    1
    17    15    16    1
    18    16    17    1
    19    17    13    1
    20    10     3   ar
    21     7    11    1
    22     7    12    1
    23    17    18    1
@<TRIPOS>MOLECULE
*****
 22 23 0 0 0
SMALL
GASTEIGER

@<TRIPOS>ATOM
      1 C         -10.0252  -19.1371   22.5169 C.2     1  UNL1        0.1855
      2 O         -10.7293  -20.0953   23.4312 O.2     1  UNL1       -0.2900
      3 C          -9.3082  -17.9480   23.0847 C.ar    1  UNL1        0.0369
      4 C          -8.6594  -16.9548   22.1669 C.ar    1  UNL1        0.0042
      5 C          -7.9425  -15.7659   22.7347 C.ar    1  UNL1        0.0150
      6 C          -7.8745  -15.5702   24.2203 C.ar    1  UNL1        0.0522
      7 N          -7.1575  -14.3812   24.7881 N.pl3   1  UNL1       -0.3563
      8 C          -8.5233  -16.5634   25.1381 C.ar    1  UNL1        0.0706
      9 CL         -8.4553  -16.3677   26.6237 Cl      1  UNL1       -0.0810
     10 C          -9.2402  -17.7524   24.5703 C.ar    1  UNL1        0.0155
     11 H          -6.7317  -13.7292   24.1857 H       1  UNL1        0.1424
     12 H          -7.1129  -14.2527   25.7632 H       1  UNL1        0.1424
     13 C         -10.0379  -19.3678   21.0348 C.3     1  UNL1        0.0981
     14 C         -10.3598  -19.5544   19.5817 C.3     1  UNL1        0.0233
     15 C          -9.0774  -19.8329   18.8549 C.3     1  UNL1        0.0189
     16 C          -7.9631  -19.8185   19.8589 C.3     1  UNL1        0.0689
     17 N          -8.5567  -19.5310   21.2062 N.3     1  UNL1       -0.2938
     18 H          -8.1556  -18.6733   21.5853 H       1  UNL1        0.1235
     19 C         -11.5165  -19.1564   21.1733 C.3     1  UNL1        0.0219
     20 C         -12.9154  -17.4051   22.4872 C.3     1  UNL1        0.0001
     21 C         -12.0663  -17.7670   21.3048 C.3     1  UNL1        0.0017
     22 C         -11.7670  -16.7393   20.2539 C.3     1  UNL1        0.0001
@<TRIPOS>BOND
     1    20    21    1
     2    21    22    1
     3    21    19    1
     4    19    13    1
     5    13     1    1
     6     1     2    2
     7     1     3    1
     8     3     4   ar
     9     4     5   ar
    10     5     6   ar
    11     6     7    1
    12     6     8   ar
    13     8     9    1
    14     8    10   ar
    15    13    14    1
    16    14    15    1
    17    15    16    1
    18    16    17    1
    19    17    13    1
    20    10     3   ar
    21     7    11    1
    22     7    12    1
    23    17    18    1
@<TRIPOS>MOLECULE
*****
 22 23 0 0 0
SMALL
GASTEIGER

@<TRIPOS>ATOM
      1 C         -10.1322  -18.5667   23.4489 C.2     1  UNL1        0.1855
      2 O         -10.2649  -19.9539   24.0039 O.2     1  UNL1       -0.2900
      3 C          -9.1864  -17.5916   24.0852 C.ar    1  UNL1        0.0369
      4 C          -8.1697  -16.8763   23.2459 C.ar    1  UNL1        0.0042
      5 C          -7.2240  -15.9013   23.8822 C.ar    1  UNL1        0.0150
      6 C          -7.2950  -15.6416   25.3578 C.ar    1  UNL1        0.0522
      7 N          -6.3492  -14.6665   25.9942 N.pl3   1  UNL1       -0.3563
      8 C          -8.3117  -16.3570   26.1972 C.ar    1  UNL1        0.0706
      9 CL         -8.3827  -16.0973   27.6728 Cl      1  UNL1       -0.0810
     10 C          -9.2574  -17.3320   25.5608 C.ar    1  UNL1        0.0155
     11 H          -5.6819  -14.1970   25.4433 H       1  UNL1        0.1424
     12 H          -6.3958  -14.4961   26.9627 H       1  UNL1        0.1424
     13 C         -10.9452  -18.1545   22.2576 C.3     1  UNL1        0.0981
     14 C         -11.6565  -18.0129   20.9446 C.3     1  UNL1        0.0233
     15 C         -12.4124  -16.7174   20.9643 C.3     1  UNL1        0.0189
     16 C         -12.1681  -16.0584   22.2894 C.3     1  UNL1        0.0689
     17 N         -11.2613  -16.9466   23.0887 N.3     1  UNL1       -0.2938
     18 H         -11.7272  -17.2314   23.9503 H       1  UNL1        0.1235
     19 C         -10.4590  -19.4487   21.6755 C.3     1  UNL1        0.0219
     20 C          -8.0478  -19.0991   20.7733 C.3     1  UNL1        0.0001
     21 C          -9.4887  -19.4390   20.5317 C.3     1  UNL1        0.0017
     22 C          -9.9592  -19.7692   19.1462 C.3     1  UNL1        0.0001
@<TRIPOS>BOND
     1    20    21    1
     2    21    22    1
     3    21    19    1
     4    19    13    1
     5    13     1    1
     6     1     2    2
     7     1     3    1
     8     3     4   ar
     9     4     5   ar
    10     5     6   ar
    11     6     7    1
    12     6     8   ar
    13     8     9    1
    14     8    10   ar
    15    13    14    1
    16    14    15    1
    17    15    16    1
    18    16    17    1
    19    17    13    1
    20    10     3   ar
    21     7    11    1
    22     7    12    1
    23    17    18    1
