@<TRIPOS>MOLECULE
*****
 37 39 0 0 0
SMALL
GASTEIGER

@<TRIPOS>ATOM
      1 C           6.5766   -2.9189   25.8415 C.2     1  UNL1        0.2485
      2 O           6.9888   -1.5557   25.3710 O.2     1  UNL1       -0.2726
      3 N           5.8293   -3.8364   24.9195 N.am    1  UNL1       -0.2823
      4 H           5.5587   -4.7312   25.2283 H       1  UNL1        0.1549
      5 C           9.5244   -6.4125   27.1610 C.3     1  UNL1        0.0949
      6 C           8.6188   -5.3349   26.6428 C.2     1  UNL1        0.2269
      7 O           8.4818   -5.1167   25.1651 O.2     1  UNL1       -0.2748
      8 N           7.8503   -4.4753   27.6023 N.am    1  UNL1       -0.2655
      9 C           7.8855   -4.5754   29.0985 C.3     1  UNL1        0.1206
     10 C           6.9685   -3.5267   29.6549 C.ar    1  UNL1       -0.0030
     11 C           6.6039   -3.1565   31.0620 C.ar    1  UNL1        0.0155
     12 C           5.6374   -2.0381   31.3167 C.ar    1  UNL1        0.1054
     13 C           5.0355   -1.2899   30.1644 C.ar    1  UNL1        0.0181
     14 C           5.4001   -1.6602   28.7573 C.ar    1  UNL1       -0.0011
     15 C           6.3666   -2.7786   28.5026 C.ar    1  UNL1        0.0022
     16 C           6.9116   -3.3649   27.2340 C.3     1  UNL1        0.1750
     17 S           5.2728   -1.6678   32.7239 S.O2    1  UNL1        0.0104
     18 C           4.9082   -1.2974   34.1309 C.3     1  UNL1        0.1816
     19 O           3.8487   -2.0562   32.4571 O.2     1  UNL1       -0.1686
     20 O           6.6968   -1.2793   32.9906 O.2     1  UNL1       -0.1686
     21 C           5.4943   -3.3904   23.5271 C.ar    1  UNL1        0.0503
     22 C           6.3404   -3.8381   22.3722 C.ar    1  UNL1        0.0144
     23 C           6.0054   -3.3921   20.9797 C.ar    1  UNL1       -0.0002
     24 C           4.8243   -2.4986   20.7422 C.ar    1  UNL1        0.0182
     25 C           3.9782   -2.0509   21.8971 C.ar    1  UNL1       -0.0002
     26 C           4.3132   -2.4968   23.2896 C.ar    1  UNL1        0.0144
     27 C           4.4892   -2.0526   19.3498 C.3     1  UNL1        0.2827
     28 O           5.2637   -0.7868   19.5688 O.3     1  UNL1       -0.3692
     29 H           5.2263   -0.2420   18.7670 H       1  UNL1        0.2112
     30 C           4.1541   -1.6066   17.9574 C.3     1  UNL1        0.4311
     31 F           3.8190   -1.1607   16.5649 F       1  UNL1       -0.1669
     32 F           3.1122   -0.6773   18.5057 F       1  UNL1       -0.1669
     33 F           4.7406   -2.1192   17.5357 F       1  UNL1       -0.1669
     34 C           3.7147   -3.3183   19.1308 C.3     1  UNL1        0.4311
     35 F           2.9401   -4.5841   18.9119 F       1  UNL1       -0.1669
     36 F           2.9436   -3.0312   19.4587 F       1  UNL1       -0.1669
     37 F           4.7115   -4.2509   18.5089 F       1  UNL1       -0.1669
@<TRIPOS>BOND
     1     5     6    1
     2     6     7    2
     3     6     8   am
     4     8     9    1
     5     9    10    1
     6    10    11   ar
     7    11    12   ar
     8    12    17    1
     9    17    18    1
    10    17    19    2
    11    17    20    2
    12    12    13   ar
    13    13    14   ar
    14    14    15   ar
    15    15    16    1
    16    16     1    1
    17     1     2    2
    18     1     3   am
    19     3    21    1
    20    21    22   ar
    21    22    23   ar
    22    23    24   ar
    23    24    27    1
    24    27    28    1
    25    27    30    1
    26    30    31    1
    27    30    32    1
    28    30    33    1
    29    27    34    1
    30    34    35    1
    31    34    36    1
    32    34    37    1
    33    24    25   ar
    34    25    26   ar
    35    16     8    1
    36    26    21   ar
    37    15    10   ar
    38     3     4    1
    39    28    29    1
@<TRIPOS>MOLECULE
*****
 37 39 0 0 0
SMALL
GASTEIGER

@<TRIPOS>ATOM
      1 C          -0.5360    2.7982   20.6606 C.2     1  UNL1        0.2485
      2 O           0.7811    3.4488   20.9636 O.2     1  UNL1       -0.2726
      3 N          -0.5756    1.3925   20.1384 N.am    1  UNL1       -0.2823
      4 H          -1.4401    0.9654   19.9395 H       1  UNL1        0.1549
      5 C          -3.3469    4.7978   17.3839 C.3     1  UNL1        0.0949
      6 C          -2.3964    4.1356   18.3367 C.2     1  UNL1        0.2269
      7 O          -1.1736    3.4411   17.8148 O.2     1  UNL1       -0.2748
      8 N          -2.6686    4.1679   19.8114 N.am    1  UNL1       -0.2655
      9 C          -3.8438    4.8206   20.4770 C.3     1  UNL1        0.1206
     10 C          -3.7150    4.6093   21.9564 C.ar    1  UNL1       -0.0030
     11 C          -4.5782    5.0290   23.1091 C.ar    1  UNL1        0.0155
     12 C          -4.1865    4.6653   24.5107 C.ar    1  UNL1        0.1054
     13 C          -2.9318    3.8820   24.7595 C.ar    1  UNL1        0.0181
     14 C          -2.0686    3.4623   23.6068 C.ar    1  UNL1       -0.0011
     15 C          -2.4602    3.8260   22.2053 C.ar    1  UNL1        0.0022
     16 C          -1.8135    3.5532   20.8796 C.3     1  UNL1        0.1750
     17 S          -5.0497    5.0849   25.6635 S.O2    1  UNL1        0.0104
     18 C          -5.9129    5.5046   26.8162 C.3     1  UNL1        0.1816
     19 O          -4.6527    3.8469   26.4115 O.2     1  UNL1       -0.1686
     20 O          -5.4468    6.3230   24.9154 O.2     1  UNL1       -0.1686
     21 C           0.7019    0.6375   19.9194 C.ar    1  UNL1        0.0503
     22 C           1.4338    0.7639   18.6162 C.ar    1  UNL1        0.0144
     23 C           2.7113    0.0089   18.3971 C.ar    1  UNL1       -0.0002
     24 C           3.2569   -0.8724   19.4814 C.ar    1  UNL1        0.0182
     25 C           2.5250   -0.9987   20.7846 C.ar    1  UNL1       -0.0002
     26 C           1.2475   -0.2437   21.0036 C.ar    1  UNL1        0.0144
     27 C           4.5344   -1.6274   19.2624 C.3     1  UNL1        0.2827
     28 O           5.2980   -0.3363   19.2650 O.3     1  UNL1       -0.3692
     29 H           6.2414   -0.5183   19.1321 H       1  UNL1        0.2112
     30 C           5.8119   -2.3825   19.0435 C.3     1  UNL1        0.4311
     31 F           7.0894   -3.1376   18.8245 F       1  UNL1       -0.1669
     32 F           6.2960   -1.9561   20.3977 F       1  UNL1       -0.1669
     33 F           5.6202   -2.6867   18.2340 F       1  UNL1       -0.1669
     34 C           3.7708   -2.9185   19.2598 C.3     1  UNL1        0.4311
     35 F           3.0072   -4.2096   19.2572 F       1  UNL1       -0.1669
     36 F           3.3822   -2.8124   18.4710 F       1  UNL1       -0.1669
     37 F           4.1385   -3.5603   20.5648 F       1  UNL1       -0.1669
@<TRIPOS>BOND
     1     5     6    1
     2     6     7    2
     3     6     8   am
     4     8     9    1
     5     9    10    1
     6    10    11   ar
     7    11    12   ar
     8    12    17    1
     9    17    18    1
    10    17    19    2
    11    17    20    2
    12    12    13   ar
    13    13    14   ar
    14    14    15   ar
    15    15    16    1
    16    16     1    1
    17     1     2    2
    18     1     3   am
    19     3    21    1
    20    21    22   ar
    21    22    23   ar
    22    23    24   ar
    23    24    27    1
    24    27    28    1
    25    27    30    1
    26    30    31    1
    27    30    32    1
    28    30    33    1
    29    27    34    1
    30    34    35    1
    31    34    36    1
    32    34    37    1
    33    24    25   ar
    34    25    26   ar
    35    16     8    1
    36    26    21   ar
    37    15    10   ar
    38     3     4    1
    39    28    29    1
@<TRIPOS>MOLECULE
*****
 37 39 0 0 0
SMALL
GASTEIGER

@<TRIPOS>ATOM
      1 C           5.0652   -1.0531   26.1275 C.2     1  UNL1        0.2485
      2 O           5.7534    0.1044   25.4669 O.2     1  UNL1       -0.2726
      3 N           4.3095   -2.0489   25.2983 N.am    1  UNL1       -0.2823
      4 H           3.8578   -2.8087   25.7319 H       1  UNL1        0.1549
      5 C           7.6269   -4.1997   28.6119 C.3     1  UNL1        0.0949
      6 C           6.8603   -3.2509   27.7390 C.2     1  UNL1        0.2269
      7 O           6.9963   -3.3278   26.2472 O.2     1  UNL1       -0.2748
      8 N           5.9577   -2.2251   28.3580 N.am    1  UNL1       -0.2655
      9 C           5.7217   -2.0294   29.8263 C.3     1  UNL1        0.1206
     10 C           4.7507   -0.8983   29.9931 C.ar    1  UNL1       -0.0030
     11 C           4.1511   -0.2617   31.2117 C.ar    1  UNL1        0.0155
     12 C           3.1874    0.8783   31.0651 C.ar    1  UNL1        0.1054
     13 C           2.8233    1.3817   29.6998 C.ar    1  UNL1        0.0181
     14 C           3.4229    0.7451   28.4811 C.ar    1  UNL1       -0.0011
     15 C           4.3866   -0.3949   28.6278 C.ar    1  UNL1        0.0022
     16 C           5.1326   -1.2149   27.6172 C.3     1  UNL1        0.1750
     17 S           2.5877    1.5150   32.2837 S.O2    1  UNL1        0.0104
     18 C           1.9881    2.1517   33.5024 C.3     1  UNL1        0.1816
     19 O           1.2191    1.3658   31.6883 O.2     1  UNL1       -0.1686
     20 O           3.9563    1.6642   32.8792 O.2     1  UNL1       -0.1686
     21 C           4.2422   -1.8871   23.8086 C.ar    1  UNL1        0.0503
     22 C           3.2464   -0.9442   23.2009 C.ar    1  UNL1        0.0144
     23 C           3.1790   -0.7823   21.7111 C.ar    1  UNL1       -0.0002
     24 C           4.1074   -1.5635   20.8292 C.ar    1  UNL1        0.0182
     25 C           5.1032   -2.5064   21.4369 C.ar    1  UNL1       -0.0002
     26 C           5.1706   -2.6682   22.9267 C.ar    1  UNL1        0.0144
     27 C           4.0401   -1.4017   19.3395 C.3     1  UNL1        0.2827
     28 O           4.5668   -0.0031   19.4674 O.3     1  UNL1       -0.3692
     29 H           4.6392    0.3970   18.5867 H       1  UNL1        0.2112
     30 C           3.9728   -1.2401   17.8497 C.3     1  UNL1        0.4311
     31 F           3.9055   -1.0784   16.3600 F       1  UNL1       -0.1669
     32 F           5.4707   -1.2759   17.7781 F       1  UNL1       -0.1669
     33 F           3.0901   -1.2074   17.7844 F       1  UNL1       -0.1669
     34 C           3.5135   -2.8004   19.2115 C.3     1  UNL1        0.4311
     35 F           2.9868   -4.1991   19.0835 F       1  UNL1       -0.1669
     36 F           2.7369   -2.6606   19.6139 F       1  UNL1       -0.1669
     37 F           4.6089   -3.5370   18.4991 F       1  UNL1       -0.1669
@<TRIPOS>BOND
     1     5     6    1
     2     6     7    2
     3     6     8   am
     4     8     9    1
     5     9    10    1
     6    10    11   ar
     7    11    12   ar
     8    12    17    1
     9    17    18    1
    10    17    19    2
    11    17    20    2
    12    12    13   ar
    13    13    14   ar
    14    14    15   ar
    15    15    16    1
    16    16     1    1
    17     1     2    2
    18     1     3   am
    19     3    21    1
    20    21    22   ar
    21    22    23   ar
    22    23    24   ar
    23    24    27    1
    24    27    28    1
    25    27    30    1
    26    30    31    1
    27    30    32    1
    28    30    33    1
    29    27    34    1
    30    34    35    1
    31    34    36    1
    32    34    37    1
    33    24    25   ar
    34    25    26   ar
    35    16     8    1
    36    26    21   ar
    37    15    10   ar
    38     3     4    1
    39    28    29    1
@<TRIPOS>MOLECULE
*****
 37 39 0 0 0
SMALL
GASTEIGER

@<TRIPOS>ATOM
      1 C           4.9143   -0.8874   32.5554 C.2     1  UNL1        0.2485
      2 O           3.5648   -1.4893   32.8128 O.2     1  UNL1       -0.2726
      3 N           5.4673    0.1434   33.4946 N.am    1  UNL1       -0.2823
      4 H           6.3530    0.5385   33.3257 H       1  UNL1        0.1549
      5 C           5.8847    1.6299   28.6365 C.3     1  UNL1        0.0949
      6 C           5.5243    0.9215   29.9086 C.2     1  UNL1        0.2269
      7 O           4.6967    1.6193   30.9470 O.2     1  UNL1       -0.2748
      8 N           5.9914   -0.4846   30.1424 N.am    1  UNL1       -0.2655
      9 C           6.8208   -1.3062   29.2006 C.3     1  UNL1        0.1206
     10 C           7.0531   -2.6454   29.8351 C.ar    1  UNL1       -0.0030
     11 C           7.8006   -3.8600   29.3705 C.ar    1  UNL1        0.0155
     12 C           7.8622   -5.0808   30.2399 C.ar    1  UNL1        0.1054
     13 C           7.1763   -5.0869   31.5739 C.ar    1  UNL1        0.0181
     14 C           6.4288   -3.8722   32.0385 C.ar    1  UNL1       -0.0011
     15 C           6.3672   -2.6515   31.1690 C.ar    1  UNL1        0.0022
     16 C           5.7110   -1.3160   31.3589 C.3     1  UNL1        0.1750
     17 S           8.6097   -6.2955   29.7754 S.O2    1  UNL1        0.0104
     18 C           9.3571   -7.5102   29.3108 C.3     1  UNL1        0.1816
     19 O           9.4892   -6.2180   30.9879 O.2     1  UNL1       -0.1686
     20 O           7.7301   -6.3730   28.5628 O.2     1  UNL1       -0.1686
     21 C           4.6706    0.5721   34.6911 C.ar    1  UNL1        0.0503
     22 C           3.5311    1.5339   34.5280 C.ar    1  UNL1        0.0144
     23 C           2.7345    1.9626   35.7245 C.ar    1  UNL1       -0.0002
     24 C           3.0773    1.4294   37.0840 C.ar    1  UNL1        0.0182
     25 C           4.2167    0.4676   37.2470 C.ar    1  UNL1       -0.0002
     26 C           5.0134    0.0389   36.0505 C.ar    1  UNL1        0.0144
     27 C           2.2807    1.8580   38.2805 C.3     1  UNL1        0.2827
     28 O           2.1344    0.4244   38.6968 O.3     1  UNL1       -0.3692
     29 H           1.6172    0.3767   39.5160 H       1  UNL1        0.2112
     30 C           1.4840    2.2867   39.4770 C.3     1  UNL1        0.4311
     31 F           0.6874    2.7155   40.6735 F       1  UNL1       -0.1669
     32 F           0.3484    1.4126   39.0341 F       1  UNL1       -0.1669
     33 F           2.0922    2.8299   39.8228 F       1  UNL1       -0.1669
     34 C           2.4269    3.2917   37.8642 C.3     1  UNL1        0.4311
     35 F           2.5731    4.7253   37.4479 F       1  UNL1       -0.1669
     36 F           1.5863    3.4180   37.6151 F       1  UNL1       -0.1669
     37 F           3.8713    3.6002   38.1262 F       1  UNL1       -0.1669
@<TRIPOS>BOND
     1     5     6    1
     2     6     7    2
     3     6     8   am
     4     8     9    1
     5     9    10    1
     6    10    11   ar
     7    11    12   ar
     8    12    17    1
     9    17    18    1
    10    17    19    2
    11    17    20    2
    12    12    13   ar
    13    13    14   ar
    14    14    15   ar
    15    15    16    1
    16    16     1    1
    17     1     2    2
    18     1     3   am
    19     3    21    1
    20    21    22   ar
    21    22    23   ar
    22    23    24   ar
    23    24    27    1
    24    27    28    1
    25    27    30    1
    26    30    31    1
    27    30    32    1
    28    30    33    1
    29    27    34    1
    30    34    35    1
    31    34    36    1
    32    34    37    1
    33    24    25   ar
    34    25    26   ar
    35    16     8    1
    36    26    21   ar
    37    15    10   ar
    38     3     4    1
    39    28    29    1
@<TRIPOS>MOLECULE
*****
 37 39 0 0 0
SMALL
GASTEIGER

@<TRIPOS>ATOM
      1 C          -0.6452    2.6784   20.7129 C.2     1  UNL1        0.2485
      2 O           0.5583    3.5143   20.3925 O.2     1  UNL1       -0.2726
      3 N          -0.5799    1.1861   20.5758 N.am    1  UNL1       -0.2823
      4 H          -1.3698    0.6374   20.7861 H       1  UNL1        0.1549
      5 C          -2.0548    3.5186   25.1787 C.3     1  UNL1        0.0949
      6 C          -1.5211    3.2096   23.8114 C.2     1  UNL1        0.2269
      7 O          -0.1917    2.5312   23.6609 O.2     1  UNL1       -0.2748
      8 N          -2.3167    3.5788   22.5945 N.am    1  UNL1       -0.2655
      9 C          -3.6546    4.2571   22.5883 C.3     1  UNL1        0.1206
     10 C          -4.0789    4.4321   21.1602 C.ar    1  UNL1       -0.0030
     11 C          -5.3057    5.0370   20.5446 C.ar    1  UNL1        0.0155
     12 C          -5.4569    5.0717   19.0527 C.ar    1  UNL1        0.1054
     13 C          -4.3812    4.5017   18.1763 C.ar    1  UNL1        0.0181
     14 C          -3.1544    3.8968   18.7919 C.ar    1  UNL1       -0.0011
     15 C          -3.0032    3.8621   20.2839 C.ar    1  UNL1        0.0022
     16 C          -1.9141    3.3347   21.1704 C.3     1  UNL1        0.1750
     17 S          -6.6837    5.6766   18.4370 S.O2    1  UNL1        0.0104
     18 C          -7.9106    6.2814   17.8213 C.3     1  UNL1        0.1816
     19 O          -7.0579    6.2681   19.7637 O.2     1  UNL1       -0.1686
     20 O          -6.3096    5.0851   17.1104 O.2     1  UNL1       -0.1686
     21 C           0.6890    0.5298   20.1183 C.ar    1  UNL1        0.0503
     22 C           1.1293    0.6622   18.6906 C.ar    1  UNL1        0.0144
     23 C           2.3982    0.0059   18.2331 C.ar    1  UNL1       -0.0002
     24 C           3.2267   -0.7828   19.2035 C.ar    1  UNL1        0.0182
     25 C           2.7863   -0.9152   20.6313 C.ar    1  UNL1       -0.0002
     26 C           1.5174   -0.2589   21.0887 C.ar    1  UNL1        0.0144
     27 C           4.4956   -1.4391   18.7461 C.3     1  UNL1        0.2827
     28 O           5.0771   -0.0934   18.4281 O.3     1  UNL1       -0.3692
     29 H           5.9760   -0.2036   18.0807 H       1  UNL1        0.2112
     30 C           5.7644   -2.0955   18.2888 C.3     1  UNL1        0.4311
     31 F           7.0333   -2.7519   17.8314 F       1  UNL1       -0.1669
     32 F           6.5158   -1.4124   19.3928 F       1  UNL1       -0.1669
     33 F           5.4155   -2.5431   17.6088 F       1  UNL1       -0.1669
     34 C           3.9141   -2.7847   19.0642 C.3     1  UNL1        0.4311
     35 F           3.3325   -4.1304   19.3821 F       1  UNL1       -0.1669
     36 F           3.2971   -2.7886   18.4286 F       1  UNL1       -0.1669
     37 F           4.7254   -3.2642   20.2311 F       1  UNL1       -0.1669
@<TRIPOS>BOND
     1     5     6    1
     2     6     7    2
     3     6     8   am
     4     8     9    1
     5     9    10    1
     6    10    11   ar
     7    11    12   ar
     8    12    17    1
     9    17    18    1
    10    17    19    2
    11    17    20    2
    12    12    13   ar
    13    13    14   ar
    14    14    15   ar
    15    15    16    1
    16    16     1    1
    17     1     2    2
    18     1     3   am
    19     3    21    1
    20    21    22   ar
    21    22    23   ar
    22    23    24   ar
    23    24    27    1
    24    27    28    1
    25    27    30    1
    26    30    31    1
    27    30    32    1
    28    30    33    1
    29    27    34    1
    30    34    35    1
    31    34    36    1
    32    34    37    1
    33    24    25   ar
    34    25    26   ar
    35    16     8    1
    36    26    21   ar
    37    15    10   ar
    38     3     4    1
    39    28    29    1
@<TRIPOS>MOLECULE
*****
 37 39 0 0 0
SMALL
GASTEIGER

@<TRIPOS>ATOM
      1 C           1.8105    1.1926   24.5957 C.2     1  UNL1        0.2485
      2 O           3.0558    1.8664   25.0905 O.2     1  UNL1       -0.2726
      3 N           0.6600    0.9629   25.5305 N.am    1  UNL1       -0.2823
      4 H          -0.1574    0.5206   25.2057 H       1  UNL1        0.1549
      5 C          -0.9445    2.9853   21.1558 C.3     1  UNL1        0.0949
      6 C          -0.1180    2.4935   22.3069 C.2     1  UNL1        0.2269
      7 O          -0.2385    3.1488   23.6508 O.2     1  UNL1       -0.2748
      8 N           0.8291    1.3463   22.1141 N.am    1  UNL1       -0.2655
      9 C           1.0560    0.5957   20.8354 C.3     1  UNL1        0.1206
     10 C           2.0826   -0.4662   21.0971 C.ar    1  UNL1       -0.0030
     11 C           2.6990   -1.5068   20.2099 C.ar    1  UNL1        0.0155
     12 C           3.7229   -2.4530   20.7632 C.ar    1  UNL1        0.1054
     13 C           4.1305   -2.3587   22.2036 C.ar    1  UNL1        0.0181
     14 C           3.5141   -1.3180   23.0909 C.ar    1  UNL1       -0.0011
     15 C           2.4902   -0.3718   22.5376 C.ar    1  UNL1        0.0022
     16 C           1.7155    0.7484   23.1661 C.3     1  UNL1        0.1750
     17 S           4.3393   -3.4937   19.8759 S.O2    1  UNL1        0.0104
     18 C           4.9557   -4.5343   18.9888 C.3     1  UNL1        0.1816
     19 O           3.9109   -2.7165   18.6666 O.2     1  UNL1       -0.1686
     20 O           4.7678   -4.2708   21.0852 O.2     1  UNL1       -0.1686
     21 C           0.7550    1.4071   26.9600 C.ar    1  UNL1        0.0503
     22 C           1.1756    0.4342   28.0214 C.ar    1  UNL1        0.0144
     23 C           1.2706    0.8784   29.4509 C.ar    1  UNL1       -0.0002
     24 C           0.9449    2.2955   29.8191 C.ar    1  UNL1        0.0182
     25 C           0.5243    3.2685   28.7578 C.ar    1  UNL1       -0.0002
     26 C           0.4293    2.8242   27.3282 C.ar    1  UNL1        0.0144
     27 C           1.0399    2.7398   31.2487 C.3     1  UNL1        0.2827
     28 O          -0.0519    1.7804   31.6195 O.3     1  UNL1       -0.3692
     29 H          -0.2293    1.8445   32.5709 H       1  UNL1        0.2112
     30 C           1.1349    3.1842   32.6782 C.3     1  UNL1        0.4311
     31 F           1.2300    3.6285   34.1077 F       1  UNL1       -0.1669
     32 F          -0.1621    3.9238   32.5345 F       1  UNL1       -0.1669
     33 F           1.9019    2.7827   32.8654 F       1  UNL1       -0.1669
     34 C           2.1317    3.6992   30.8778 C.3     1  UNL1        0.4311
     35 F           3.2235    4.6588   30.5070 F       1  UNL1       -0.1669
     36 F           1.6595    4.4425   30.9740 F       1  UNL1       -0.1669
     37 F           3.3077    2.8154   30.5848 F       1  UNL1       -0.1669
@<TRIPOS>BOND
     1     5     6    1
     2     6     7    2
     3     6     8   am
     4     8     9    1
     5     9    10    1
     6    10    11   ar
     7    11    12   ar
     8    12    17    1
     9    17    18    1
    10    17    19    2
    11    17    20    2
    12    12    13   ar
    13    13    14   ar
    14    14    15   ar
    15    15    16    1
    16    16     1    1
    17     1     2    2
    18     1     3   am
    19     3    21    1
    20    21    22   ar
    21    22    23   ar
    22    23    24   ar
    23    24    27    1
    24    27    28    1
    25    27    30    1
    26    30    31    1
    27    30    32    1
    28    30    33    1
    29    27    34    1
    30    34    35    1
    31    34    36    1
    32    34    37    1
    33    24    25   ar
    34    25    26   ar
    35    16     8    1
    36    26    21   ar
    37    15    10   ar
    38     3     4    1
    39    28    29    1
@<TRIPOS>MOLECULE
*****
 37 39 0 0 0
SMALL
GASTEIGER

@<TRIPOS>ATOM
      1 C           3.5873    0.0607   26.3596 C.2     1  UNL1        0.2485
      2 O           4.5659    1.1017   26.8160 O.2     1  UNL1       -0.2726
      3 N           3.0515   -0.9442   27.3360 N.am    1  UNL1       -0.2823
      4 H           2.4091   -1.6276   27.0365 H       1  UNL1        0.1549
      5 C           0.5618    3.0018   24.1614 C.3     1  UNL1        0.0949
      6 C           1.5002    2.1320   24.9441 C.2     1  UNL1        0.2269
      7 O           1.7539    2.4176   26.3946 O.2     1  UNL1       -0.2748
      8 N           2.1850    0.9765   24.2763 N.am    1  UNL1       -0.2655
      9 C           2.0307    0.5702   22.8407 C.3     1  UNL1        0.1206
     10 C           2.8947   -0.6330   22.6040 C.ar    1  UNL1       -0.0030
     11 C           3.1436   -1.4650   21.3810 C.ar    1  UNL1        0.0155
     12 C           4.0807   -2.6343   21.4474 C.ar    1  UNL1        0.1054
     13 C           4.7690   -2.9716   22.7368 C.ar    1  UNL1        0.0181
     14 C           4.5201   -2.1396   23.9598 C.ar    1  UNL1       -0.0011
     15 C           3.5829   -0.9703   23.8934 C.ar    1  UNL1        0.0022
     16 C           3.1443    0.0244   24.9269 C.3     1  UNL1        0.1750
     17 S           4.3297   -3.4663   20.2244 S.O2    1  UNL1        0.0104
     18 C           4.5786   -4.2984   19.0014 C.3     1  UNL1        0.1816
     19 O           4.2932   -2.2300   19.3758 O.2     1  UNL1       -0.1686
     20 O           4.3662   -4.7027   21.0729 O.2     1  UNL1       -0.1686
     21 C           3.4945   -0.9080   28.7686 C.ar    1  UNL1        0.0503
     22 C           2.5212   -0.5290   29.8452 C.ar    1  UNL1        0.0144
     23 C           2.9641   -0.4928   31.2779 C.ar    1  UNL1       -0.0002
     24 C           4.3804   -0.8355   31.6338 C.ar    1  UNL1        0.0182
     25 C           5.3536   -1.2145   30.5572 C.ar    1  UNL1       -0.0002
     26 C           4.9107   -1.2508   29.1246 C.ar    1  UNL1        0.0144
     27 C           4.8234   -0.7993   33.0665 C.3     1  UNL1        0.2827
     28 O           4.3871    0.6324   33.1653 O.3     1  UNL1       -0.3692
     29 H           4.5632    0.9631   34.0600 H       1  UNL1        0.2112
     30 C           5.2665   -0.7632   34.4991 C.3     1  UNL1        0.4311
     31 F           5.7096   -0.7270   35.9317 F       1  UNL1       -0.1669
     32 F           6.3898    0.1593   34.1284 F       1  UNL1       -0.1669
     33 F           4.6401   -1.3012   34.8195 F       1  UNL1       -0.1669
     34 C           5.2597   -2.2310   32.9676 C.3     1  UNL1        0.4311
     35 F           5.6961   -3.6628   32.8688 F       1  UNL1       -0.1669
     36 F           6.1321   -2.0777   32.9589 F       1  UNL1       -0.1669
     37 F           3.9732   -3.0020   32.9463 F       1  UNL1       -0.1669
@<TRIPOS>BOND
     1     5     6    1
     2     6     7    2
     3     6     8   am
     4     8     9    1
     5     9    10    1
     6    10    11   ar
     7    11    12   ar
     8    12    17    1
     9    17    18    1
    10    17    19    2
    11    17    20    2
    12    12    13   ar
    13    13    14   ar
    14    14    15   ar
    15    15    16    1
    16    16     1    1
    17     1     2    2
    18     1     3   am
    19     3    21    1
    20    21    22   ar
    21    22    23   ar
    22    23    24   ar
    23    24    27    1
    24    27    28    1
    25    27    30    1
    26    30    31    1
    27    30    32    1
    28    30    33    1
    29    27    34    1
    30    34    35    1
    31    34    36    1
    32    34    37    1
    33    24    25   ar
    34    25    26   ar
    35    16     8    1
    36    26    21   ar
    37    15    10   ar
    38     3     4    1
    39    28    29    1
@<TRIPOS>MOLECULE
*****
 37 39 0 0 0
SMALL
GASTEIGER

@<TRIPOS>ATOM
      1 C           1.4224    1.5297   24.5344 C.2     1  UNL1        0.2485
      2 O           2.1590    2.5364   23.7014 O.2     1  UNL1       -0.2726
      3 N           1.5920    0.0641   24.2637 N.am    1  UNL1       -0.2823
      4 H           1.1086   -0.5967   24.8104 H       1  UNL1        0.1549
      5 C           2.1116    1.1547   29.2270 C.3     1  UNL1        0.0949
      6 C           1.9894    1.2244   27.7336 C.2     1  UNL1        0.2269
      7 O           3.0796    0.6702   26.8652 O.2     1  UNL1       -0.2748
      8 N           0.7768    1.8482   27.1087 N.am    1  UNL1       -0.2655
      9 C          -0.3881    2.4412   27.8445 C.3     1  UNL1        0.1206
     10 C          -1.3686    2.9481   26.8287 C.ar    1  UNL1       -0.0030
     11 C          -2.6981    3.6282   26.9693 C.ar    1  UNL1        0.0155
     12 C          -3.4687    4.0286   25.7463 C.ar    1  UNL1        0.1054
     13 C          -2.9098    3.7488   24.3827 C.ar    1  UNL1        0.0181
     14 C          -1.5803    3.0687   24.2421 C.ar    1  UNL1       -0.0011
     15 C          -0.8097    2.6683   25.4651 C.ar    1  UNL1        0.0022
     16 C           0.5162    1.9886   25.6382 C.3     1  UNL1        0.1750
     17 S          -4.7983    4.7087   25.8868 S.O2    1  UNL1        0.0104
     18 C          -6.1278    5.3889   26.0274 C.3     1  UNL1        0.1816
     19 O          -5.4723    3.5186   25.2710 O.2     1  UNL1       -0.1686
     20 O          -4.1243    5.8988   26.5027 O.2     1  UNL1       -0.1686
     21 C           2.4982   -0.3948   23.1599 C.ar    1  UNL1        0.0503
     22 C           3.8013   -1.0616   23.4876 C.ar    1  UNL1        0.0144
     23 C           4.7075   -1.5205   22.3839 C.ar    1  UNL1       -0.0002
     24 C           4.3106   -1.3124   20.9524 C.ar    1  UNL1        0.0182
     25 C           3.0076   -0.6455   20.6247 C.ar    1  UNL1       -0.0002
     26 C           2.1014   -0.1867   21.7284 C.ar    1  UNL1        0.0144
     27 C           5.2167   -1.7712   19.8486 C.3     1  UNL1        0.2827
     28 O           6.2587   -0.7892   20.2957 O.3     1  UNL1       -0.3692
     29 H           7.0358   -0.8573   19.7191 H       1  UNL1        0.2112
     30 C           6.1228   -2.2301   18.7447 C.3     1  UNL1        0.4311
     31 F           7.0289   -2.6889   17.6409 F       1  UNL1       -0.1669
     32 F           6.0185   -0.8806   18.0981 F       1  UNL1       -0.1669
     33 F           6.2492   -3.0540   19.0442 F       1  UNL1       -0.1669
     34 C           4.1747   -2.7532   19.4015 C.3     1  UNL1        0.4311
     35 F           3.1327   -3.7353   18.9545 F       1  UNL1       -0.1669
     36 F           4.2225   -3.2892   20.1051 F       1  UNL1       -0.1669
     37 F           3.7193   -2.2207   18.0752 F       1  UNL1       -0.1669
@<TRIPOS>BOND
     1     5     6    1
     2     6     7    2
     3     6     8   am
     4     8     9    1
     5     9    10    1
     6    10    11   ar
     7    11    12   ar
     8    12    17    1
     9    17    18    1
    10    17    19    2
    11    17    20    2
    12    12    13   ar
    13    13    14   ar
    14    14    15   ar
    15    15    16    1
    16    16     1    1
    17     1     2    2
    18     1     3   am
    19     3    21    1
    20    21    22   ar
    21    22    23   ar
    22    23    24   ar
    23    24    27    1
    24    27    28    1
    25    27    30    1
    26    30    31    1
    27    30    32    1
    28    30    33    1
    29    27    34    1
    30    34    35    1
    31    34    36    1
    32    34    37    1
    33    24    25   ar
    34    25    26   ar
    35    16     8    1
    36    26    21   ar
    37    15    10   ar
    38     3     4    1
    39    28    29    1
@<TRIPOS>MOLECULE
*****
 37 39 0 0 0
SMALL
GASTEIGER

@<TRIPOS>ATOM
      1 C           3.5067    0.1141   26.4017 C.2     1  UNL1        0.2485
      2 O           4.7212    0.8778   25.9640 O.2     1  UNL1       -0.2726
      3 N           2.9180   -0.9358   25.5064 N.am    1  UNL1       -0.2823
      4 H           2.1208   -1.4371   25.7937 H       1  UNL1        0.1549
      5 C          -0.6187    2.3154   27.2800 C.3     1  UNL1        0.0949
      6 C           0.6628    1.6359   26.8982 C.2     1  UNL1        0.2269
      7 O           1.0337    1.4926   25.4519 O.2     1  UNL1       -0.2748
      8 N           1.5735    1.0997   27.9627 N.am    1  UNL1       -0.2655
      9 C           1.3370    1.1689   29.4423 C.3     1  UNL1        0.1206
     10 C           2.4980    0.5121   30.1285 C.ar    1  UNL1       -0.0030
     11 C           2.8096    0.2853   31.5781 C.ar    1  UNL1        0.0155
     12 C           4.0753   -0.4166   31.9722 C.ar    1  UNL1        0.1054
     13 C           5.0294   -0.8916   30.9167 C.ar    1  UNL1        0.0181
     14 C           4.7177   -0.6648   29.4671 C.ar    1  UNL1       -0.0011
     15 C           3.4520    0.0371   29.0730 C.ar    1  UNL1        0.0022
     16 C           2.8807    0.4002   27.7345 C.3     1  UNL1        0.1750
     17 S           4.3870   -0.6434   33.4219 S.O2    1  UNL1        0.0104
     18 C           4.6987   -0.8702   34.8715 C.3     1  UNL1        0.1816
     19 O           3.8753   -2.0491   33.3120 O.2     1  UNL1       -0.1686
     20 O           4.8987    0.7623   33.5318 O.2     1  UNL1       -0.1686
     21 C           3.5440   -1.2219   24.1737 C.ar    1  UNL1        0.0503
     22 C           4.6934   -2.1806   24.0752 C.ar    1  UNL1        0.0144
     23 C           5.3194   -2.4667   22.7424 C.ar    1  UNL1       -0.0002
     24 C           4.7958   -1.7941   21.5081 C.ar    1  UNL1        0.0182
     25 C           3.6464   -0.8354   21.6066 C.ar    1  UNL1       -0.0002
     26 C           3.0204   -0.5493   22.9394 C.ar    1  UNL1        0.0144
     27 C           5.4217   -2.0802   20.1753 C.3     1  UNL1        0.2827
     28 O           6.6335   -1.2916   20.5750 O.3     1  UNL1       -0.3692
     29 H           7.2763   -1.2961   19.8485 H       1  UNL1        0.2112
     30 C           6.0476   -2.3663   18.8424 C.3     1  UNL1        0.4311
     31 F           6.6734   -2.6524   17.5096 F       1  UNL1       -0.1669
     32 F           5.9241   -0.9176   18.4735 F       1  UNL1       -0.1669
     33 F           6.1650   -3.2359   18.9626 F       1  UNL1       -0.1669
     34 C           4.2100   -2.8687   19.7756 C.3     1  UNL1        0.4311
     35 F           2.9982   -3.6574   19.3759 F       1  UNL1       -0.1669
     36 F           4.3372   -3.5495   20.3277 F       1  UNL1       -0.1669
     37 F           3.5616   -2.0264   18.7172 F       1  UNL1       -0.1669
@<TRIPOS>BOND
     1     5     6    1
     2     6     7    2
     3     6     8   am
     4     8     9    1
     5     9    10    1
     6    10    11   ar
     7    11    12   ar
     8    12    17    1
     9    17    18    1
    10    17    19    2
    11    17    20    2
    12    12    13   ar
    13    13    14   ar
    14    14    15   ar
    15    15    16    1
    16    16     1    1
    17     1     2    2
    18     1     3   am
    19     3    21    1
    20    21    22   ar
    21    22    23   ar
    22    23    24   ar
    23    24    27    1
    24    27    28    1
    25    27    30    1
    26    30    31    1
    27    30    32    1
    28    30    33    1
    29    27    34    1
    30    34    35    1
    31    34    36    1
    32    34    37    1
    33    24    25   ar
    34    25    26   ar
    35    16     8    1
    36    26    21   ar
    37    15    10   ar
    38     3     4    1
    39    28    29    1
