@<TRIPOS>MOLECULE
*****
 33 35 0 0 0
SMALL
GASTEIGER

@<TRIPOS>ATOM
      1 C          -7.4873  -18.5326   21.5089 C.2     1  UNL1       -0.0040
      2 C          -8.5498  -18.9837   20.5509 C.2     1  UNL1       -0.0221
      3 C          -6.0633  -18.9565   21.3033 C.ar    1  UNL1       -0.0001
      4 C          -5.1932  -19.2614   22.4866 C.ar    1  UNL1        0.0031
      5 C          -3.7691  -19.6853   22.2810 C.ar    1  UNL1        0.0366
      6 C          -3.2151  -19.8044   20.8922 C.ar    1  UNL1        0.1337
      7 O          -1.7909  -20.2283   20.6866 O.3     1  UNL1       -0.5055
      8 C          -4.0851  -19.4995   19.7090 C.ar    1  UNL1        0.0366
      9 C          -5.5091  -19.0756   19.9145 C.ar    1  UNL1        0.0031
     10 H          -1.2474  -20.4187   21.4258 H       1  UNL1        0.2922
     11 C          -8.5722  -15.9076   24.9992 C.ar    1  UNL1        0.1386
     12 C          -7.7520  -15.3549   23.8715 C.ar    1  UNL1        0.0369
     13 C          -7.3903  -16.2299   22.7081 C.ar    1  UNL1        0.0031
     14 C          -7.8490  -17.6576   22.6723 C.ar    1  UNL1       -0.0001
     15 C          -8.6692  -18.2103   23.8000 C.ar    1  UNL1        0.0031
     16 C          -9.0308  -17.3353   24.9634 C.ar    1  UNL1        0.0369
     17 O          -8.9338  -15.0326   26.1626 O.3     1  UNL1       -0.4740
     18 C          -8.1257  -15.0914   27.4250 C.3     1  UNL1        0.2226
     19 C          -6.9058  -15.9614   27.4947 C.3     1  UNL1        0.1201
     20 C          -5.2962  -14.2607   26.3691 C.3     1  UNL1        0.0898
     21 N          -5.7298  -15.6767   26.6081 N.3     1  UNL1       -0.2672
     22 C          -4.9875  -16.8078   25.9605 C.3     1  UNL1        0.0898
     23 C          -9.9739  -18.5598   20.7564 C.ar    1  UNL1       -0.0040
     24 C         -10.4674  -17.2748   20.1605 C.ar    1  UNL1       -0.0003
     25 C         -11.8914  -16.8508   20.3659 C.ar    1  UNL1       -0.0000
     26 C         -12.8222  -17.7120   21.1674 C.ar    1  UNL1       -0.0000
     27 C         -12.3287  -18.9970   21.7633 C.ar    1  UNL1       -0.0000
     28 C         -10.9046  -19.4209   21.5579 C.ar    1  UNL1       -0.0003
     29 C          -8.1882  -19.8587   19.3875 C.3     1  UNL1        0.0289
     30 C          -9.2619  -20.3803   18.4791 C.3     1  UNL1        0.0364
     31 C          -8.9518  -21.4771   17.5039 C.3     1  UNL1        0.1375
     32 O          -9.5534  -21.4514   16.1301 O.3     1  UNL1       -0.3820
     33 H         -10.5151  -21.5600   16.1962 H       1  UNL1        0.2104
@<TRIPOS>BOND
     1    20    21    1
     2    21    22    1
     3    21    19    1
     4    19    18    1
     5    18    17    1
     6    17    11    1
     7    11    12   ar
     8    12    13   ar
     9    13    14   ar
    10    14     1    1
    11     1     2    2
    12     2    29    1
    13    29    30    1
    14    30    31    1
    15    31    32    1
    16     2    23    1
    17    23    24   ar
    18    24    25   ar
    19    25    26   ar
    20    26    27   ar
    21    27    28   ar
    22     1     3    1
    23     3     4   ar
    24     4     5   ar
    25     5     6   ar
    26     6     7    1
    27     6     8   ar
    28     8     9   ar
    29    14    15   ar
    30    15    16   ar
    31    16    11   ar
    32    28    23   ar
    33     9     3   ar
    34    32    33    1
    35     7    10    1
@<TRIPOS>MOLECULE
*****
 33 35 0 0 0
SMALL
GASTEIGER

@<TRIPOS>ATOM
      1 C         -16.4682   -6.2066   18.2332 C.2     1  UNL1       -0.0040
      2 C         -17.1228   -4.8588   18.3021 C.2     1  UNL1       -0.0221
      3 C         -17.3091   -7.4487   18.2163 C.ar    1  UNL1       -0.0001
      4 C         -17.6711   -8.1268   19.5043 C.ar    1  UNL1        0.0031
      5 C         -18.5120   -9.3689   19.4874 C.ar    1  UNL1        0.0366
      6 C         -18.9908   -9.9328   18.1825 C.ar    1  UNL1        0.1337
      7 O         -19.8317  -11.1748   18.1655 O.3     1  UNL1       -0.5055
      8 C         -18.6288   -9.2546   16.8944 C.ar    1  UNL1        0.0366
      9 C         -17.7879   -8.0126   16.9113 C.ar    1  UNL1        0.0031
     10 H         -20.0579  -11.5985   18.9701 H       1  UNL1        0.2922
     11 C         -11.9822   -6.5242   18.0770 C.ar    1  UNL1        0.1386
     12 C         -12.6757   -6.3408   19.3943 C.ar    1  UNL1        0.0369
     13 C         -14.1710   -6.2350   19.4464 C.ar    1  UNL1        0.0031
     14 C         -14.9729   -6.3125   18.1811 C.ar    1  UNL1       -0.0001
     15 C         -14.2794   -6.4959   16.8638 C.ar    1  UNL1        0.0031
     16 C         -12.7840   -6.6018   16.8117 C.ar    1  UNL1        0.0369
     17 O         -10.4868   -6.6301   18.0250 O.3     1  UNL1       -0.4740
     18 C          -9.6430   -5.7828   18.9305 C.3     1  UNL1        0.2226
     19 C          -9.6815   -4.2881   18.8102 C.3     1  UNL1        0.1201
     20 C          -9.0033   -3.8691   16.3375 C.3     1  UNL1        0.0898
     21 N          -9.9503   -3.6494   17.4798 N.3     1  UNL1       -0.2672
     22 C         -11.1659   -2.7911   17.2918 C.3     1  UNL1        0.0898
     23 C         -16.2819   -3.6167   18.3190 C.ar    1  UNL1       -0.0040
     24 C         -15.8861   -2.9967   19.6262 C.ar    1  UNL1       -0.0003
     25 C         -15.0453   -1.7546   19.6432 C.ar    1  UNL1       -0.0000
     26 C         -14.6003   -1.1325   18.3528 C.ar    1  UNL1       -0.0000
     27 C         -14.9961   -1.7525   17.0455 C.ar    1  UNL1       -0.0000
     28 C         -15.8369   -2.9946   17.0286 C.ar    1  UNL1       -0.0003
     29 C         -18.6181   -4.7529   18.3541 C.3     1  UNL1        0.0289
     30 C         -19.3066   -4.4944   19.6615 C.3     1  UNL1        0.0364
     31 C         -19.5658   -3.0857   20.1070 C.3     1  UNL1        0.1375
     32 O         -19.3050   -2.6891   21.5299 O.3     1  UNL1       -0.3820
     33 H         -19.9194   -3.1598   22.1145 H       1  UNL1        0.2104
@<TRIPOS>BOND
     1    20    21    1
     2    21    22    1
     3    21    19    1
     4    19    18    1
     5    18    17    1
     6    17    11    1
     7    11    12   ar
     8    12    13   ar
     9    13    14   ar
    10    14     1    1
    11     1     2    2
    12     2    29    1
    13    29    30    1
    14    30    31    1
    15    31    32    1
    16     2    23    1
    17    23    24   ar
    18    24    25   ar
    19    25    26   ar
    20    26    27   ar
    21    27    28   ar
    22     1     3    1
    23     3     4   ar
    24     4     5   ar
    25     5     6   ar
    26     6     7    1
    27     6     8   ar
    28     8     9   ar
    29    14    15   ar
    30    15    16   ar
    31    16    11   ar
    32    28    23   ar
    33     9     3   ar
    34    32    33    1
    35     7    10    1
@<TRIPOS>MOLECULE
*****
 33 35 0 0 0
SMALL
GASTEIGER

@<TRIPOS>ATOM
      1 C         -14.9564   -6.2527   18.5846 C.2     1  UNL1       -0.0040
      2 C         -13.4795   -5.9972   18.5272 C.2     1  UNL1       -0.0221
      3 C         -15.4706   -7.6570   18.7014 C.ar    1  UNL1       -0.0001
      4 C         -15.0651   -8.6905   17.6927 C.ar    1  UNL1        0.0031
      5 C         -15.5793  -10.0948   17.8096 C.ar    1  UNL1        0.0366
      6 C         -16.4989  -10.4656   18.9351 C.ar    1  UNL1        0.1337
      7 O         -17.0131  -11.8699   19.0519 O.3     1  UNL1       -0.5055
      8 C         -16.9044   -9.4321   19.9438 C.ar    1  UNL1        0.0366
      9 C         -16.3902   -8.0278   19.8270 C.ar    1  UNL1        0.0031
     10 H         -16.7599  -12.5155   18.4218 H       1  UNL1        0.2922
     11 C         -17.8447   -2.8066   18.4064 C.ar    1  UNL1        0.1386
     12 C         -17.3942   -3.4738   17.1408 C.ar    1  UNL1        0.0369
     13 C         -16.4315   -4.6225   17.2002 C.ar    1  UNL1        0.0031
     14 C         -15.9192   -5.1040   18.5252 C.ar    1  UNL1       -0.0001
     15 C         -16.3697   -4.4368   19.7908 C.ar    1  UNL1        0.0031
     16 C         -17.3325   -3.2881   19.7314 C.ar    1  UNL1        0.0369
     17 O         -18.8075   -1.6579   18.3470 O.3     1  UNL1       -0.4740
     18 C         -18.4604   -0.4282   17.5614 C.3     1  UNL1        0.2226
     19 C         -17.7207    0.6985   18.2198 C.3     1  UNL1        0.1201
     20 C         -16.9563    0.4734   20.6927 C.3     1  UNL1        0.0898
     21 N         -16.6480    0.4045   19.2263 N.3     1  UNL1       -0.2672
     22 C         -15.2671    0.0418   18.7665 C.3     1  UNL1        0.0898
     23 C         -12.9653   -4.5929   18.4103 C.ar    1  UNL1       -0.0040
     24 C         -12.8300   -3.7393   19.6364 C.ar    1  UNL1       -0.0003
     25 C         -12.3158   -2.3351   19.5196 C.ar    1  UNL1       -0.0000
     26 C         -11.9369   -1.7844   18.1767 C.ar    1  UNL1       -0.0000
     27 C         -12.0721   -2.6379   16.9507 C.ar    1  UNL1       -0.0000
     28 C         -12.5863   -4.0422   17.0675 C.ar    1  UNL1       -0.0003
     29 C         -12.5167   -7.1459   18.5866 C.3     1  UNL1        0.0289
     30 C         -11.0814   -6.9036   18.9490 C.3     1  UNL1        0.0364
     31 C          -9.9867   -7.4180   18.0618 C.3     1  UNL1        0.1375
     32 O          -9.7629   -8.8950   17.9264 O.3     1  UNL1       -0.3820
     33 H          -9.4663   -9.2563   18.7763 H       1  UNL1        0.2104
@<TRIPOS>BOND
     1    20    21    1
     2    21    22    1
     3    21    19    1
     4    19    18    1
     5    18    17    1
     6    17    11    1
     7    11    12   ar
     8    12    13   ar
     9    13    14   ar
    10    14     1    1
    11     1     2    2
    12     2    29    1
    13    29    30    1
    14    30    31    1
    15    31    32    1
    16     2    23    1
    17    23    24   ar
    18    24    25   ar
    19    25    26   ar
    20    26    27   ar
    21    27    28   ar
    22     1     3    1
    23     3     4   ar
    24     4     5   ar
    25     5     6   ar
    26     6     7    1
    27     6     8   ar
    28     8     9   ar
    29    14    15   ar
    30    15    16   ar
    31    16    11   ar
    32    28    23   ar
    33     9     3   ar
    34    32    33    1
    35     7    10    1
@<TRIPOS>MOLECULE
*****
 33 35 0 0 0
SMALL
GASTEIGER

@<TRIPOS>ATOM
      1 C         -14.4064   -5.9167   18.2490 C.2     1  UNL1       -0.0040
      2 C         -12.9171   -5.7594   18.3338 C.2     1  UNL1       -0.0221
      3 C         -15.0362   -7.2510   18.5189 C.ar    1  UNL1       -0.0001
      4 C         -14.7380   -8.4162   17.6227 C.ar    1  UNL1        0.0031
      5 C         -15.3678   -9.7506   17.8927 C.ar    1  UNL1        0.0366
      6 C         -16.2958   -9.9197   19.0589 C.ar    1  UNL1        0.1337
      7 O         -16.9256  -11.2541   19.3290 O.3     1  UNL1       -0.5055
      8 C         -16.5940   -8.7545   19.9552 C.ar    1  UNL1        0.0366
      9 C         -15.9642   -7.4202   19.6852 C.ar    1  UNL1        0.0031
     10 H         -16.7393  -11.9820   18.7691 H       1  UNL1        0.2922
     11 C         -16.9849   -2.3856   17.1847 C.ar    1  UNL1        0.1386
     12 C         -16.6389   -2.6565   18.6188 C.ar    1  UNL1        0.0369
     13 C         -15.7794   -3.8335   18.9736 C.ar    1  UNL1        0.0031
     14 C         -15.2659   -4.7397   17.8942 C.ar    1  UNL1       -0.0001
     15 C         -15.6119   -4.4688   16.4600 C.ar    1  UNL1        0.0031
     16 C         -16.4715   -3.2918   16.1053 C.ar    1  UNL1        0.0369
     17 O         -17.8445   -1.2086   16.8299 O.3     1  UNL1       -0.4740
     18 C         -19.3079   -1.4017   16.5636 C.3     1  UNL1        0.2226
     19 C         -20.2843   -1.3989   17.7023 C.3     1  UNL1        0.1201
     20 C         -20.1450   -2.1614   20.1821 C.3     1  UNL1        0.0898
     21 N         -20.2484   -2.4968   18.7237 N.3     1  UNL1       -0.2672
     22 C         -20.3160   -3.9302   18.2868 C.3     1  UNL1        0.0898
     23 C         -12.2873   -4.4250   18.0638 C.ar    1  UNL1       -0.0040
     24 C         -11.7802   -4.0992   16.6902 C.ar    1  UNL1       -0.0003
     25 C         -11.1503   -2.7649   16.4202 C.ar    1  UNL1       -0.0000
     26 C         -11.0276   -1.7563   17.5238 C.ar    1  UNL1       -0.0000
     27 C         -11.5347   -2.0822   18.8974 C.ar    1  UNL1       -0.0000
     28 C         -12.1646   -3.4165   19.1673 C.ar    1  UNL1       -0.0003
     29 C         -12.0576   -6.9364   18.6885 C.3     1  UNL1        0.0289
     30 C         -10.6215   -6.7289   19.0688 C.3     1  UNL1        0.0364
     31 C          -9.5439   -7.5213   18.3900 C.3     1  UNL1        0.1375
     32 O          -9.8417   -8.8930   17.8612 O.3     1  UNL1       -0.3820
     33 H         -10.0398   -9.4886   18.6007 H       1  UNL1        0.2104
@<TRIPOS>BOND
     1    20    21    1
     2    21    22    1
     3    21    19    1
     4    19    18    1
     5    18    17    1
     6    17    11    1
     7    11    12   ar
     8    12    13   ar
     9    13    14   ar
    10    14     1    1
    11     1     2    2
    12     2    29    1
    13    29    30    1
    14    30    31    1
    15    31    32    1
    16     2    23    1
    17    23    24   ar
    18    24    25   ar
    19    25    26   ar
    20    26    27   ar
    21    27    28   ar
    22     1     3    1
    23     3     4   ar
    24     4     5   ar
    25     5     6   ar
    26     6     7    1
    27     6     8   ar
    28     8     9   ar
    29    14    15   ar
    30    15    16   ar
    31    16    11   ar
    32    28    23   ar
    33     9     3   ar
    34    32    33    1
    35     7    10    1
@<TRIPOS>MOLECULE
*****
 33 35 0 0 0
SMALL
GASTEIGER

@<TRIPOS>ATOM
      1 C         -13.6674   -4.4647   17.6788 C.2     1  UNL1       -0.0040
      2 C         -15.1320   -4.7579   17.8170 C.2     1  UNL1       -0.0221
      3 C         -12.6766   -5.5905   17.6502 C.ar    1  UNL1       -0.0001
      4 C         -12.5193   -6.4198   16.4103 C.ar    1  UNL1        0.0031
      5 C         -11.5284   -7.5457   16.3819 C.ar    1  UNL1        0.0366
      6 C         -10.6950   -7.8421   17.5933 C.ar    1  UNL1        0.1337
      7 O          -9.7041   -8.9679   17.5648 O.3     1  UNL1       -0.5055
      8 C         -10.8523   -7.0127   18.8332 C.ar    1  UNL1        0.0366
      9 C         -11.8432   -5.8869   18.8617 C.ar    1  UNL1        0.0031
     10 H          -9.6058   -9.4860   16.7903 H       1  UNL1        0.2922
     11 C         -12.2463   -0.2077   17.3496 C.ar    1  UNL1        0.1386
     12 C         -12.5566   -0.9928   16.1097 C.ar    1  UNL1        0.0369
     13 C         -13.0304   -2.4118   16.2194 C.ar    1  UNL1        0.0031
     14 C         -13.1937   -3.0457   17.5690 C.ar    1  UNL1       -0.0001
     15 C         -12.8834   -2.2606   18.8089 C.ar    1  UNL1        0.0031
     16 C         -12.4097   -0.8416   18.6991 C.ar    1  UNL1        0.0369
     17 O         -11.7726    1.2113   17.2398 O.3     1  UNL1       -0.4740
     18 C         -12.5985    2.2228   16.5018 C.3     1  UNL1        0.2226
     19 C         -14.0822    2.2792   16.7151 C.3     1  UNL1        0.1201
     20 C         -15.0347    1.8861   19.1001 C.3     1  UNL1        0.0898
     21 N         -14.6351    2.8231   17.9991 N.3     1  UNL1       -0.2672
     22 C         -14.7884    4.3040   18.1819 C.3     1  UNL1        0.0898
     23 C         -16.1229   -3.6321   17.8455 C.ar    1  UNL1       -0.0040
     24 C         -16.5266   -3.0213   19.1547 C.ar    1  UNL1       -0.0003
     25 C         -17.5175   -1.8956   19.1833 C.ar    1  UNL1       -0.0000
     26 C         -18.1046   -1.3805   17.9026 C.ar    1  UNL1       -0.0000
     27 C         -17.7009   -1.9913   16.5934 C.ar    1  UNL1       -0.0000
     28 C         -16.7100   -3.1171   16.5649 C.ar    1  UNL1       -0.0003
     29 C         -15.6057   -6.1769   17.9267 C.3     1  UNL1        0.0289
     30 C         -15.5951   -6.8704   19.2568 C.3     1  UNL1        0.0364
     31 C         -15.5654   -8.3687   19.3212 C.3     1  UNL1        0.1375
     32 O         -14.2941   -9.1071   19.0239 O.3     1  UNL1       -0.3820
     33 H         -14.0567   -8.9800   18.0920 H       1  UNL1        0.2104
@<TRIPOS>BOND
     1    20    21    1
     2    21    22    1
     3    21    19    1
     4    19    18    1
     5    18    17    1
     6    17    11    1
     7    11    12   ar
     8    12    13   ar
     9    13    14   ar
    10    14     1    1
    11     1     2    2
    12     2    29    1
    13    29    30    1
    14    30    31    1
    15    31    32    1
    16     2    23    1
    17    23    24   ar
    18    24    25   ar
    19    25    26   ar
    20    26    27   ar
    21    27    28   ar
    22     1     3    1
    23     3     4   ar
    24     4     5   ar
    25     5     6   ar
    26     6     7    1
    27     6     8   ar
    28     8     9   ar
    29    14    15   ar
    30    15    16   ar
    31    16    11   ar
    32    28    23   ar
    33     9     3   ar
    34    32    33    1
    35     7    10    1
@<TRIPOS>MOLECULE
*****
 33 35 0 0 0
SMALL
GASTEIGER

@<TRIPOS>ATOM
      1 C         -14.8873   -5.7534   18.2723 C.2     1  UNL1       -0.0040
      2 C         -14.9890   -7.2498   18.2508 C.2     1  UNL1       -0.0221
      3 C         -13.5539   -5.0896   18.0951 C.ar    1  UNL1       -0.0001
      4 C         -12.5483   -5.1179   19.2078 C.ar    1  UNL1        0.0031
      5 C         -11.2149   -4.4541   19.0305 C.ar    1  UNL1        0.0366
      6 C         -10.8871   -3.7621   17.7407 C.ar    1  UNL1        0.1337
      7 O          -9.5536   -3.0983   17.5635 O.3     1  UNL1       -0.5055
      8 C         -11.8927   -3.7339   16.6281 C.ar    1  UNL1        0.0366
      9 C         -13.2261   -4.3976   16.8052 C.ar    1  UNL1        0.0031
     10 H          -8.9254   -3.1159   18.2585 H       1  UNL1        0.2922
     11 C         -18.5827   -3.2555   18.8682 C.ar    1  UNL1        0.1386
     12 C         -17.7119   -3.5980   20.0404 C.ar    1  UNL1        0.0369
     13 C         -16.4801   -4.4306   19.8418 C.ar    1  UNL1        0.0031
     14 C         -16.1191   -4.9208   18.4709 C.ar    1  UNL1       -0.0001
     15 C         -16.9899   -4.5782   17.2986 C.ar    1  UNL1        0.0031
     16 C         -18.2217   -3.7456   17.4972 C.ar    1  UNL1        0.0369
     17 O         -19.8145   -2.4229   19.0668 O.3     1  UNL1       -0.4740
     18 C         -19.6980   -0.9348   19.2148 C.3     1  UNL1        0.2226
     19 C         -19.5738   -0.3242   20.5792 C.3     1  UNL1        0.1201
     20 C         -17.0098    0.0763   20.4549 C.3     1  UNL1        0.0898
     21 N         -18.3695    0.5006   20.9250 N.3     1  UNL1       -0.2672
     22 C         -18.5251    1.7497   21.7408 C.3     1  UNL1        0.0898
     23 C         -16.3224   -7.9136   18.4280 C.ar    1  UNL1       -0.0040
     24 C         -17.1118   -8.3431   17.2271 C.ar    1  UNL1       -0.0003
     25 C         -18.4452   -9.0069   17.4042 C.ar    1  UNL1       -0.0000
     26 C         -18.9893   -9.2412   18.7823 C.ar    1  UNL1       -0.0000
     27 C         -18.1998   -8.8117   19.9833 C.ar    1  UNL1       -0.0000
     28 C         -16.8664   -8.1479   19.8061 C.ar    1  UNL1       -0.0003
     29 C         -13.7572   -8.0824   18.0522 C.3     1  UNL1        0.0289
     30 C         -13.0753   -8.1061   16.7163 C.3     1  UNL1        0.0364
     31 C         -11.6076   -7.8127   16.6181 C.3     1  UNL1        0.1375
     32 O         -10.6910   -8.1862   17.7452 O.3     1  UNL1       -0.3820
     33 H         -10.9101   -7.6579   18.5287 H       1  UNL1        0.2104
@<TRIPOS>BOND
     1    20    21    1
     2    21    22    1
     3    21    19    1
     4    19    18    1
     5    18    17    1
     6    17    11    1
     7    11    12   ar
     8    12    13   ar
     9    13    14   ar
    10    14     1    1
    11     1     2    2
    12     2    29    1
    13    29    30    1
    14    30    31    1
    15    31    32    1
    16     2    23    1
    17    23    24   ar
    18    24    25   ar
    19    25    26   ar
    20    26    27   ar
    21    27    28   ar
    22     1     3    1
    23     3     4   ar
    24     4     5   ar
    25     5     6   ar
    26     6     7    1
    27     6     8   ar
    28     8     9   ar
    29    14    15   ar
    30    15    16   ar
    31    16    11   ar
    32    28    23   ar
    33     9     3   ar
    34    32    33    1
    35     7    10    1
@<TRIPOS>MOLECULE
*****
 33 35 0 0 0
SMALL
GASTEIGER

@<TRIPOS>ATOM
      1 C         -14.4105   -4.5869   18.0189 C.2     1  UNL1       -0.0040
      2 C         -14.1029   -6.0483   17.8786 C.2     1  UNL1       -0.0221
      3 C         -13.3189   -3.5715   17.8535 C.ar    1  UNL1       -0.0001
      4 C         -12.9333   -3.1015   16.4822 C.ar    1  UNL1        0.0031
      5 C         -11.8416   -2.0860   16.3168 C.ar    1  UNL1        0.0366
      6 C         -11.1357   -1.5407   17.5227 C.ar    1  UNL1        0.1337
      7 O         -10.0440   -0.5252   17.3573 O.3     1  UNL1       -0.5055
      8 C         -11.5213   -2.0107   18.8940 C.ar    1  UNL1        0.0366
      9 C         -12.6129   -3.0261   19.0594 C.ar    1  UNL1        0.0031
     10 H          -9.8031   -0.2316   16.5008 H       1  UNL1        0.2922
     11 C         -18.6080   -3.2489   18.9357 C.ar    1  UNL1        0.1386
     12 C         -18.1199   -3.2682   17.5176 C.ar    1  UNL1        0.0369
     13 C         -16.7207   -3.7142   17.2119 C.ar    1  UNL1        0.0031
     14 C         -15.8097   -4.1409   18.3245 C.ar    1  UNL1       -0.0001
     15 C         -16.2978   -4.1216   19.7427 C.ar    1  UNL1        0.0031
     16 C         -17.6969   -3.6756   20.0483 C.ar    1  UNL1        0.0369
     17 O         -20.0072   -2.8029   19.2414 O.3     1  UNL1       -0.4740
     18 C         -20.3040   -1.3456   19.4369 C.3     1  UNL1        0.2226
     19 C         -20.0739   -0.7062   20.7741 C.3     1  UNL1        0.1201
     20 C         -19.1985    1.5526   21.7132 C.3     1  UNL1        0.0898
     21 N         -18.9601    0.2830   20.9507 N.3     1  UNL1       -0.2672
     22 C         -17.6081    0.0026   20.3648 C.3     1  UNL1        0.0898
     23 C         -15.1945   -7.0637   18.0440 C.ar    1  UNL1       -0.0040
     24 C         -15.4288   -7.7019   19.3811 C.ar    1  UNL1       -0.0003
     25 C         -16.5204   -8.7173   19.5466 C.ar    1  UNL1       -0.0000
     26 C         -17.3777   -9.0946   18.3749 C.ar    1  UNL1       -0.0000
     27 C         -17.1433   -8.4565   17.0378 C.ar    1  UNL1       -0.0000
     28 C         -16.0517   -7.4410   16.8724 C.ar    1  UNL1       -0.0003
     29 C         -12.7037   -6.4943   17.5730 C.3     1  UNL1        0.0289
     30 C         -11.8082   -6.9659   18.6801 C.3     1  UNL1        0.0364
     31 C         -10.3498   -7.1988   18.4174 C.3     1  UNL1        0.1375
     32 O          -9.8520   -8.5834   18.1259 O.3     1  UNL1       -0.3820
     33 H          -9.9663   -9.1402   18.9119 H       1  UNL1        0.2104
@<TRIPOS>BOND
     1    20    21    1
     2    21    22    1
     3    21    19    1
     4    19    18    1
     5    18    17    1
     6    17    11    1
     7    11    12   ar
     8    12    13   ar
     9    13    14   ar
    10    14     1    1
    11     1     2    2
    12     2    29    1
    13    29    30    1
    14    30    31    1
    15    31    32    1
    16     2    23    1
    17    23    24   ar
    18    24    25   ar
    19    25    26   ar
    20    26    27   ar
    21    27    28   ar
    22     1     3    1
    23     3     4   ar
    24     4     5   ar
    25     5     6   ar
    26     6     7    1
    27     6     8   ar
    28     8     9   ar
    29    14    15   ar
    30    15    16   ar
    31    16    11   ar
    32    28    23   ar
    33     9     3   ar
    34    32    33    1
    35     7    10    1
@<TRIPOS>MOLECULE
*****
 33 35 0 0 0
SMALL
GASTEIGER

@<TRIPOS>ATOM
      1 C          -8.7996  -17.5456   23.3114 C.2     1  UNL1       -0.0040
      2 C          -8.0760  -16.4187   23.9869 C.2     1  UNL1       -0.0221
      3 C         -10.2708  -17.7335   23.5355 C.ar    1  UNL1       -0.0001
      4 C         -10.7534  -18.6783   24.5959 C.ar    1  UNL1        0.0031
      5 C         -12.2246  -18.8661   24.8200 C.ar    1  UNL1        0.0366
      6 C         -13.2133  -18.1092   23.9836 C.ar    1  UNL1        0.1337
      7 O         -14.6846  -18.2970   24.2076 O.3     1  UNL1       -0.5055
      8 C         -12.7307  -17.1644   22.9232 C.ar    1  UNL1        0.0366
      9 C         -11.2595  -16.9765   22.6991 C.ar    1  UNL1        0.0031
     10 H         -14.9860  -18.8872   24.8701 H       1  UNL1        0.2922
     11 C          -6.5569  -20.3629   20.6127 C.ar    1  UNL1        0.1386
     12 C          -6.8241  -20.7437   22.0387 C.ar    1  UNL1        0.0369
     13 C          -7.5716  -19.8046   22.9383 C.ar    1  UNL1        0.0031
     14 C          -8.0520  -18.4847   22.4118 C.ar    1  UNL1       -0.0001
     15 C          -7.7848  -18.1040   20.9858 C.ar    1  UNL1        0.0031
     16 C          -7.0373  -19.0431   20.0863 C.ar    1  UNL1        0.0369
     17 O          -5.8093  -21.3020   19.7131 O.3     1  UNL1       -0.4740
     18 C          -4.3206  -21.1820   19.5744 C.3     1  UNL1        0.2226
     19 C          -3.6909  -19.8333   19.3888 C.3     1  UNL1        0.1201
     20 C          -1.4943  -18.5156   19.8235 C.3     1  UNL1        0.0898
     21 N          -2.6182  -19.3704   20.3296 N.3     1  UNL1       -0.2672
     22 C          -2.6693  -19.7625   21.7766 C.3     1  UNL1        0.0898
     23 C          -6.6047  -16.2308   23.7629 C.ar    1  UNL1       -0.0040
     24 C          -5.6585  -17.3703   23.9999 C.ar    1  UNL1       -0.0003
     25 C          -4.1873  -17.1825   23.7758 C.ar    1  UNL1       -0.0000
     26 C          -3.6622  -15.8551   23.3148 C.ar    1  UNL1       -0.0000
     27 C          -4.6085  -14.7156   23.0778 C.ar    1  UNL1       -0.0000
     28 C          -6.0798  -14.9035   23.3019 C.ar    1  UNL1       -0.0003
     29 C          -8.8236  -15.4796   24.8865 C.3     1  UNL1        0.0289
     30 C          -8.7458  -15.6458   26.3753 C.3     1  UNL1        0.0364
     31 C          -7.4096  -15.7070   27.0543 C.3     1  UNL1        0.1375
     32 O          -6.4118  -14.6065   26.8467 O.3     1  UNL1       -0.3820
     33 H          -6.1232  -14.6021   25.9207 H       1  UNL1        0.2104
@<TRIPOS>BOND
     1    20    21    1
     2    21    22    1
     3    21    19    1
     4    19    18    1
     5    18    17    1
     6    17    11    1
     7    11    12   ar
     8    12    13   ar
     9    13    14   ar
    10    14     1    1
    11     1     2    2
    12     2    29    1
    13    29    30    1
    14    30    31    1
    15    31    32    1
    16     2    23    1
    17    23    24   ar
    18    24    25   ar
    19    25    26   ar
    20    26    27   ar
    21    27    28   ar
    22     1     3    1
    23     3     4   ar
    24     4     5   ar
    25     5     6   ar
    26     6     7    1
    27     6     8   ar
    28     8     9   ar
    29    14    15   ar
    30    15    16   ar
    31    16    11   ar
    32    28    23   ar
    33     9     3   ar
    34    32    33    1
    35     7    10    1
@<TRIPOS>MOLECULE
*****
 33 35 0 0 0
SMALL
GASTEIGER

@<TRIPOS>ATOM
      1 C          -8.1604  -17.2707   23.1831 C.2     1  UNL1       -0.0040
      2 C          -9.6027  -17.3443   22.7779 C.2     1  UNL1       -0.0221
      3 C          -7.7630  -16.4951   24.4039 C.ar    1  UNL1       -0.0001
      4 C          -6.5508  -15.6123   24.3700 C.ar    1  UNL1        0.0031
      5 C          -6.1535  -14.8367   25.5910 C.ar    1  UNL1        0.0366
      6 C          -6.9683  -14.9439   26.8457 C.ar    1  UNL1        0.1337
      7 O          -6.5710  -14.1683   28.0667 O.3     1  UNL1       -0.5055
      8 C          -8.1805  -15.8268   26.8797 C.ar    1  UNL1        0.0366
      9 C          -8.5779  -16.6024   25.6588 C.ar    1  UNL1        0.0031
     10 H          -5.8138  -13.6168   28.0455 H       1  UNL1        0.2922
     11 C          -5.0255  -19.3766   20.7361 C.ar    1  UNL1        0.1386
     12 C          -4.7707  -19.0766   22.1835 C.ar    1  UNL1        0.0369
     13 C          -5.8157  -18.3746   22.9992 C.ar    1  UNL1        0.0031
     14 C          -7.1154  -17.9727   22.3674 C.ar    1  UNL1       -0.0001
     15 C          -7.3702  -18.2727   20.9200 C.ar    1  UNL1        0.0031
     16 C          -6.3252  -18.9747   20.1044 C.ar    1  UNL1        0.0369
     17 O          -3.9805  -20.0786   19.9205 O.3     1  UNL1       -0.4740
     18 C          -2.9065  -19.2866   19.2356 C.3     1  UNL1        0.2226
     19 C          -2.8077  -17.8067   19.4594 C.3     1  UNL1        0.1201
     20 C          -0.2838  -17.5279   20.0093 C.3     1  UNL1        0.0898
     21 N          -1.7221  -17.2510   20.3328 N.3     1  UNL1       -0.2672
     22 C          -2.0748  -16.4186   21.5297 C.3     1  UNL1        0.0898
     23 C         -10.0001  -18.1199   21.5570 C.ar    1  UNL1       -0.0040
     24 C          -9.9504  -19.6190   21.5717 C.ar    1  UNL1       -0.0003
     25 C         -10.3478  -20.3946   20.3508 C.ar    1  UNL1       -0.0000
     26 C         -10.7950  -19.6711   19.1152 C.ar    1  UNL1       -0.0000
     27 C         -10.8448  -18.1720   19.1005 C.ar    1  UNL1       -0.0000
     28 C         -10.4473  -17.3964   20.3215 C.ar    1  UNL1       -0.0003
     29 C         -10.6477  -16.6423   23.5935 C.3     1  UNL1        0.0289
     30 C         -12.0805  -17.0788   23.5127 C.3     1  UNL1        0.0364
     31 C         -12.5050  -18.3775   24.1319 C.3     1  UNL1        0.1375
     32 O         -11.5776  -19.1043   25.0600 O.3     1  UNL1       -0.3820
     33 H         -10.7985  -19.4064   24.5675 H       1  UNL1        0.2104
@<TRIPOS>BOND
     1    20    21    1
     2    21    22    1
     3    21    19    1
     4    19    18    1
     5    18    17    1
     6    17    11    1
     7    11    12   ar
     8    12    13   ar
     9    13    14   ar
    10    14     1    1
    11     1     2    2
    12     2    29    1
    13    29    30    1
    14    30    31    1
    15    31    32    1
    16     2    23    1
    17    23    24   ar
    18    24    25   ar
    19    25    26   ar
    20    26    27   ar
    21    27    28   ar
    22     1     3    1
    23     3     4   ar
    24     4     5   ar
    25     5     6   ar
    26     6     7    1
    27     6     8   ar
    28     8     9   ar
    29    14    15   ar
    30    15    16   ar
    31    16    11   ar
    32    28    23   ar
    33     9     3   ar
    34    32    33    1
    35     7    10    1
