@<TRIPOS>MOLECULE
*****
 23 26 0 0 0
SMALL
GASTEIGER

@<TRIPOS>ATOM
      1 C          -6.0449  -20.2994   20.6866 C.ar    1  UNL1        0.1387
      2 C          -6.7044  -19.8875   19.4038 C.ar    1  UNL1        0.0366
      3 C          -8.1238  -19.4025   19.4122 C.ar    1  UNL1       -0.0014
      4 C          -8.8837  -19.3293   20.7035 C.ar    1  UNL1       -0.0245
      5 C          -8.2243  -19.7411   21.9861 C.ar    1  UNL1       -0.0217
      6 C          -6.8049  -20.2262   21.9778 C.ar    1  UNL1        0.0324
      7 C          -8.7968  -19.7459   23.3726 C.3     1  UNL1        0.0434
      8 C         -10.1703  -19.3401   23.8187 C.3     1  UNL1        0.0768
      9 N         -11.3103  -18.8292   22.9885 N.3     1  UNL1       -0.2734
     10 C         -11.3586  -18.5980   21.5072 C.3     1  UNL1        0.0768
     11 C         -10.2786  -18.8206   20.4902 C.3     1  UNL1        0.0433
     12 C         -12.5686  -18.5070   23.7388 C.3     1  UNL1        0.0575
     13 C         -13.8442  -17.7888   23.4116 C.3     1  UNL1        0.0160
     14 C         -14.3481  -18.0512   24.7999 C.3     1  UNL1        0.0028
     15 C         -13.0724  -18.7693   25.1271 C.3     1  UNL1        0.0160
     16 O          -4.6255  -20.7844   20.6782 O.3     1  UNL1       -0.4707
     17 C          -3.5878  -20.0528   19.8795 C.3     1  UNL1        0.2320
     18 C          -1.6748  -16.3355   21.5445 C.ar    1  UNL1       -0.0000
     19 C          -2.6526  -17.1123   22.3753 C.ar    1  UNL1       -0.0002
     20 C          -3.2903  -18.3514   21.8204 C.ar    1  UNL1       -0.0007
     21 C          -2.9501  -18.8136   20.4345 C.ar    1  UNL1        0.0212
     22 C          -1.9723  -18.0368   19.6037 C.ar    1  UNL1       -0.0007
     23 C          -1.3346  -16.7977   20.1586 C.ar    1  UNL1       -0.0002
@<TRIPOS>BOND
     1    18    19   ar
     2    19    20   ar
     3    20    21   ar
     4    21    17    1
     5    17    16    1
     6    16     1    1
     7     1     2   ar
     8     2     3   ar
     9     3     4   ar
    10     4     5   ar
    11     5     6   ar
    12     5     7    1
    13     7     8    1
    14     8     9    1
    15     9    12    1
    16    12    13    1
    17    13    14    1
    18    14    15    1
    19     9    10    1
    20    10    11    1
    21    21    22   ar
    22    22    23   ar
    23    23    18   ar
    24     6     1   ar
    25    15    12    1
    26    11     4    1
@<TRIPOS>MOLECULE
*****
 23 26 0 0 0
SMALL
GASTEIGER

@<TRIPOS>ATOM
      1 C          -9.7650  -17.9014   24.3305 C.ar    1  UNL1        0.1387
      2 C          -9.3345  -16.6114   24.9634 C.ar    1  UNL1        0.0366
      3 C          -7.9528  -16.0807   24.7193 C.ar    1  UNL1       -0.0014
      4 C          -7.0018  -16.8401   23.8423 C.ar    1  UNL1       -0.0245
      5 C          -7.4324  -18.1300   23.2096 C.ar    1  UNL1       -0.0217
      6 C          -8.8139  -18.6608   23.4536 C.ar    1  UNL1        0.0324
      7 C          -6.6479  -19.0376   22.3090 C.3     1  UNL1        0.0434
      8 C          -5.2390  -18.8792   21.8188 C.3     1  UNL1        0.0768
      9 N          -4.2669  -17.7743   22.1082 N.3     1  UNL1       -0.2734
     10 C          -4.4633  -16.5547   22.9591 C.3     1  UNL1        0.0768
     11 C          -5.6804  -16.1389   23.7309 C.3     1  UNL1        0.0433
     12 C          -2.9202  -17.9062   21.4610 C.3     1  UNL1        0.0575
     13 C          -1.8823  -16.9431   20.9659 C.3     1  UNL1        0.0160
     14 C          -1.0155  -18.0929   20.5457 C.3     1  UNL1        0.0028
     15 C          -2.0534  -19.0561   21.0408 C.3     1  UNL1        0.0160
     16 O         -11.1466  -18.4321   24.5746 O.3     1  UNL1       -0.4707
     17 C         -12.2310  -18.1923   23.5664 C.3     1  UNL1        0.2320
     18 C         -11.1706  -16.9435   19.3753 C.ar    1  UNL1       -0.0000
     19 C         -11.1223  -18.3922   19.7611 C.ar    1  UNL1       -0.0002
     20 C         -11.4757  -18.8085   21.1581 C.ar    1  UNL1       -0.0007
     21 C         -11.8775  -17.7760   22.1693 C.ar    1  UNL1        0.0212
     22 C         -11.9259  -16.3274   21.7835 C.ar    1  UNL1       -0.0007
     23 C         -11.5724  -15.9111   20.3865 C.ar    1  UNL1       -0.0002
@<TRIPOS>BOND
     1    18    19   ar
     2    19    20   ar
     3    20    21   ar
     4    21    17    1
     5    17    16    1
     6    16     1    1
     7     1     2   ar
     8     2     3   ar
     9     3     4   ar
    10     4     5   ar
    11     5     6   ar
    12     5     7    1
    13     7     8    1
    14     8     9    1
    15     9    12    1
    16    12    13    1
    17    13    14    1
    18    14    15    1
    19     9    10    1
    20    10    11    1
    21    21    22   ar
    22    22    23   ar
    23    23    18   ar
    24     6     1   ar
    25    15    12    1
    26    11     4    1
@<TRIPOS>MOLECULE
*****
 23 26 0 0 0
SMALL
GASTEIGER

@<TRIPOS>ATOM
      1 C          -4.3634  -17.0369   23.6415 C.ar    1  UNL1        0.1387
      2 C          -4.7626  -15.8882   24.5197 C.ar    1  UNL1        0.0366
      3 C          -6.2114  -15.5334   24.6782 C.ar    1  UNL1       -0.0014
      4 C          -7.2610  -16.3274   23.9585 C.ar    1  UNL1       -0.0245
      5 C          -6.8619  -17.4760   23.0804 C.ar    1  UNL1       -0.0217
      6 C          -5.4131  -17.8308   22.9218 C.ar    1  UNL1        0.0324
      7 C          -7.7408  -18.3905   22.2795 C.3     1  UNL1        0.0434
      8 C          -9.2360  -18.3821   22.1591 C.3     1  UNL1        0.0768
      9 N         -10.2214  -17.4572   22.8097 N.3     1  UNL1       -0.2734
     10 C          -9.9552  -16.3123   23.7415 C.3     1  UNL1        0.0768
     11 C          -8.6377  -15.8094   24.2528 C.3     1  UNL1        0.0433
     12 C         -11.6639  -17.7108   22.4857 C.3     1  UNL1        0.0575
     13 C         -12.9158  -17.8932   23.2916 C.3     1  UNL1        0.0160
     14 C         -13.7039  -18.0694   22.0276 C.3     1  UNL1        0.0028
     15 C         -12.4519  -17.8870   21.2217 C.3     1  UNL1        0.0160
     16 O          -2.9146  -17.3916   23.4830 O.3     1  UNL1       -0.4707
     17 C          -2.5174  -18.5586   22.6284 C.3     1  UNL1        0.2320
     18 C          -1.6453  -17.9514   18.2557 C.ar    1  UNL1       -0.0000
     19 C          -2.9744  -18.4969   18.6866 C.ar    1  UNL1       -0.0002
     20 C          -3.2651  -18.6993   20.1442 C.ar    1  UNL1       -0.0007
     21 C          -2.2267  -18.3562   21.1708 C.ar    1  UNL1        0.0212
     22 C          -0.8976  -17.8106   20.7398 C.ar    1  UNL1       -0.0007
     23 C          -0.6068  -17.6082   19.2822 C.ar    1  UNL1       -0.0002
@<TRIPOS>BOND
     1    18    19   ar
     2    19    20   ar
     3    20    21   ar
     4    21    17    1
     5    17    16    1
     6    16     1    1
     7     1     2   ar
     8     2     3   ar
     9     3     4   ar
    10     4     5   ar
    11     5     6   ar
    12     5     7    1
    13     7     8    1
    14     8     9    1
    15     9    12    1
    16    12    13    1
    17    13    14    1
    18    14    15    1
    19     9    10    1
    20    10    11    1
    21    21    22   ar
    22    22    23   ar
    23    23    18   ar
    24     6     1   ar
    25    15    12    1
    26    11     4    1
@<TRIPOS>MOLECULE
*****
 23 26 0 0 0
SMALL
GASTEIGER

@<TRIPOS>ATOM
      1 C          -5.6234  -19.5198   21.9213 C.ar    1  UNL1        0.1387
      2 C          -5.4107  -18.1054   22.3734 C.ar    1  UNL1        0.0366
      3 C          -6.5590  -17.3140   22.9261 C.ar    1  UNL1       -0.0014
      4 C          -7.9198  -17.9371   23.0266 C.ar    1  UNL1       -0.0245
      5 C          -8.1323  -19.3513   22.5744 C.ar    1  UNL1       -0.0217
      6 C          -6.9842  -20.1427   22.0218 C.ar    1  UNL1        0.0324
      7 C          -9.3975  -20.1573   22.5873 C.3     1  UNL1        0.0434
      8 C         -10.7625  -19.7477   23.0556 C.3     1  UNL1        0.0768
      9 N         -11.1993  -18.4313   23.6265 N.3     1  UNL1       -0.2734
     10 C         -10.3793  -17.1992   23.8703 C.3     1  UNL1        0.0768
     11 C          -8.9197  -16.9792   23.6033 C.3     1  UNL1        0.0433
     12 C         -12.6479  -18.3341   24.0036 C.3     1  UNL1        0.0575
     13 C         -13.4432  -18.6229   25.2423 C.3     1  UNL1        0.0160
     14 C         -14.6966  -18.1966   24.5370 C.3     1  UNL1        0.0028
     15 C         -13.9012  -17.9078   23.2984 C.3     1  UNL1        0.0160
     16 O          -4.4751  -20.3111   21.3686 O.3     1  UNL1       -0.4707
     17 C          -3.0652  -19.8971   21.6699 C.3     1  UNL1        0.2320
     18 C          -0.7746  -17.3944   18.7136 C.ar    1  UNL1       -0.0000
     19 C          -2.1158  -17.9540   18.3422 C.ar    1  UNL1       -0.0002
     20 C          -2.8794  -18.7883   19.3276 C.ar    1  UNL1       -0.0007
     21 C          -2.3017  -19.0628   20.6844 C.ar    1  UNL1        0.0212
     22 C          -0.9605  -18.5032   21.0558 C.ar    1  UNL1       -0.0007
     23 C          -0.1969  -17.6690   20.0704 C.ar    1  UNL1       -0.0002
@<TRIPOS>BOND
     1    18    19   ar
     2    19    20   ar
     3    20    21   ar
     4    21    17    1
     5    17    16    1
     6    16     1    1
     7     1     2   ar
     8     2     3   ar
     9     3     4   ar
    10     4     5   ar
    11     5     6   ar
    12     5     7    1
    13     7     8    1
    14     8     9    1
    15     9    12    1
    16    12    13    1
    17    13    14    1
    18    14    15    1
    19     9    10    1
    20    10    11    1
    21    21    22   ar
    22    22    23   ar
    23    23    18   ar
    24     6     1   ar
    25    15    12    1
    26    11     4    1
@<TRIPOS>MOLECULE
*****
 23 26 0 0 0
SMALL
GASTEIGER

@<TRIPOS>ATOM
      1 C          -5.1825  -17.7329   22.7396 C.ar    1  UNL1        0.1387
      2 C          -5.3259  -19.1167   22.1788 C.ar    1  UNL1        0.0366
      3 C          -6.6725  -19.7769   22.1459 C.ar    1  UNL1       -0.0014
      4 C          -7.8756  -19.0531   22.6738 C.ar    1  UNL1       -0.0245
      5 C          -7.7322  -17.6693   23.2345 C.ar    1  UNL1       -0.0217
      6 C          -6.3857  -17.0092   23.2675 C.ar    1  UNL1        0.0324
      7 C          -8.7937  -16.7778   23.8076 C.3     1  UNL1        0.0434
      8 C         -10.2609  -17.0499   23.9614 C.3     1  UNL1        0.0768
      9 N         -11.0287  -18.2807   23.5801 N.3     1  UNL1       -0.2734
     10 C         -10.5192  -19.5434   22.9508 C.3     1  UNL1        0.0768
     11 C          -9.1159  -19.8872   22.5475 C.3     1  UNL1        0.0433
     12 C         -12.5008  -18.2440   23.8658 C.3     1  UNL1        0.0575
     13 C         -13.7169  -17.7954   23.1110 C.3     1  UNL1        0.0160
     14 C         -14.5827  -18.1920   24.2699 C.3     1  UNL1        0.0028
     15 C         -13.3665  -18.6406   25.0247 C.3     1  UNL1        0.0160
     16 O          -3.8360  -17.0729   22.7726 O.3     1  UNL1       -0.4707
     17 C          -2.6036  -17.8670   22.4553 C.3     1  UNL1        0.2320
     18 C          -0.9257  -17.8448   18.2799 C.ar    1  UNL1       -0.0000
     19 C          -2.4103  -17.8764   18.4914 C.ar    1  UNL1       -0.0002
     20 C          -2.9696  -17.8838   19.8831 C.ar    1  UNL1       -0.0007
     21 C          -2.0443  -17.8596   21.0634 C.ar    1  UNL1        0.0212
     22 C          -0.5596  -17.8279   20.8519 C.ar    1  UNL1       -0.0007
     23 C          -0.0003  -17.8205   19.4602 C.ar    1  UNL1       -0.0002
@<TRIPOS>BOND
     1    18    19   ar
     2    19    20   ar
     3    20    21   ar
     4    21    17    1
     5    17    16    1
     6    16     1    1
     7     1     2   ar
     8     2     3   ar
     9     3     4   ar
    10     4     5   ar
    11     5     6   ar
    12     5     7    1
    13     7     8    1
    14     8     9    1
    15     9    12    1
    16    12    13    1
    17    13    14    1
    18    14    15    1
    19     9    10    1
    20    10    11    1
    21    21    22   ar
    22    22    23   ar
    23    23    18   ar
    24     6     1   ar
    25    15    12    1
    26    11     4    1
@<TRIPOS>MOLECULE
*****
 23 26 0 0 0
SMALL
GASTEIGER

@<TRIPOS>ATOM
      1 C           4.5639    0.9212   35.4487 C.ar    1  UNL1        0.1387
      2 C           5.1667   -0.3401   34.9049 C.ar    1  UNL1        0.0366
      3 C           4.7072   -0.8822   33.5839 C.ar    1  UNL1       -0.0014
      4 C           3.6449   -0.1629   32.8067 C.ar    1  UNL1       -0.0245
      5 C           3.0421    1.0983   33.3504 C.ar    1  UNL1       -0.0217
      6 C           3.5015    1.6405   34.6713 C.ar    1  UNL1        0.0324
      7 C           1.9792    1.9648   32.7423 C.3     1  UNL1        0.0434
      8 C           1.2568    1.7838   31.4402 C.3     1  UNL1        0.0768
      9 N           1.4187    0.6918   30.4248 N.3     1  UNL1       -0.2734
     10 C           2.3431   -0.4890   30.4604 C.3     1  UNL1        0.0768
     11 C           3.3338   -0.8694   31.5205 C.3     1  UNL1        0.0433
     12 C           0.5401    0.7941   29.2133 C.3     1  UNL1        0.0575
     13 C          -0.5897   -0.0167   28.6509 C.3     1  UNL1        0.0160
     14 C          -0.7025    0.9387   27.5000 C.3     1  UNL1        0.0028
     15 C           0.4273    1.7495   28.0625 C.3     1  UNL1        0.0160
     16 O           5.0234    1.4633   36.7696 O.3     1  UNL1       -0.4707
     17 C           4.3899    0.9792   38.0402 C.3     1  UNL1        0.2320
     18 C           0.2339    2.3147   39.1331 C.ar    1  UNL1       -0.0000
     19 C           1.1481    3.2419   38.3885 C.ar    1  UNL1       -0.0002
     20 C           2.5334    2.7968   38.0242 C.ar    1  UNL1       -0.0007
     21 C           3.0045    1.4244   38.4045 C.ar    1  UNL1        0.0212
     22 C           2.0903    0.4972   39.1491 C.ar    1  UNL1       -0.0007
     23 C           0.7050    0.9423   39.5134 C.ar    1  UNL1       -0.0002
@<TRIPOS>BOND
     1    18    19   ar
     2    19    20   ar
     3    20    21   ar
     4    21    17    1
     5    17    16    1
     6    16     1    1
     7     1     2   ar
     8     2     3   ar
     9     3     4   ar
    10     4     5   ar
    11     5     6   ar
    12     5     7    1
    13     7     8    1
    14     8     9    1
    15     9    12    1
    16    12    13    1
    17    13    14    1
    18    14    15    1
    19     9    10    1
    20    10    11    1
    21    21    22   ar
    22    22    23   ar
    23    23    18   ar
    24     6     1   ar
    25    15    12    1
    26    11     4    1
@<TRIPOS>MOLECULE
*****
 23 26 0 0 0
SMALL
GASTEIGER

@<TRIPOS>ATOM
      1 C           8.1196   -5.7944   22.7736 C.ar    1  UNL1        0.1387
      2 C           8.7560   -7.0890   23.1846 C.ar    1  UNL1        0.0366
      3 C           8.8227   -7.4646   24.6353 C.ar    1  UNL1       -0.0014
      4 C           8.2530   -6.5455   25.6750 C.ar    1  UNL1       -0.0245
      5 C           7.6166   -5.2510   25.2639 C.ar    1  UNL1       -0.0217
      6 C           7.5499   -4.8754   23.8133 C.ar    1  UNL1        0.0324
      7 C           6.9928   -4.1985   26.1317 C.3     1  UNL1        0.0434
      8 C           6.8513   -4.1807   27.6250 C.3     1  UNL1        0.0768
      9 N           7.2986   -5.2110   28.6191 N.3     1  UNL1       -0.2734
     10 C           7.9980   -6.5135   28.3656 C.3     1  UNL1        0.0768
     11 C           8.4228   -7.1075   27.0554 C.3     1  UNL1        0.0433
     12 C           7.0082   -4.8972   30.0569 C.3     1  UNL1        0.0575
     13 C           6.9991   -5.6848   31.3335 C.3     1  UNL1        0.0160
     14 C           6.5975   -4.4536   32.0903 C.3     1  UNL1        0.0028
     15 C           6.6067   -3.6660   30.8137 C.3     1  UNL1        0.0160
     16 O           8.0529   -5.4188   21.3229 O.3     1  UNL1       -0.4707
     17 C           7.8683   -3.9837   20.9275 C.3     1  UNL1        0.2320
     18 C           4.0837   -2.6865   18.8674 C.ar    1  UNL1       -0.0000
     19 C           4.0122   -3.4409   20.1619 C.ar    1  UNL1       -0.0002
     20 C           5.2737   -3.8733   20.8486 C.ar    1  UNL1       -0.0007
     21 C           6.6067   -3.5513   20.2408 C.ar    1  UNL1        0.0212
     22 C           6.6781   -2.7969   18.9464 C.ar    1  UNL1       -0.0007
     23 C           5.4166   -2.3644   18.2596 C.ar    1  UNL1       -0.0002
@<TRIPOS>BOND
     1    18    19   ar
     2    19    20   ar
     3    20    21   ar
     4    21    17    1
     5    17    16    1
     6    16     1    1
     7     1     2   ar
     8     2     3   ar
     9     3     4   ar
    10     4     5   ar
    11     5     6   ar
    12     5     7    1
    13     7     8    1
    14     8     9    1
    15     9    12    1
    16    12    13    1
    17    13    14    1
    18    14    15    1
    19     9    10    1
    20    10    11    1
    21    21    22   ar
    22    22    23   ar
    23    23    18   ar
    24     6     1   ar
    25    15    12    1
    26    11     4    1
@<TRIPOS>MOLECULE
*****
 23 26 0 0 0
SMALL
GASTEIGER

@<TRIPOS>ATOM
      1 C           0.0503    3.4041   20.2245 C.ar    1  UNL1        0.1387
      2 C           0.9551    3.9863   19.1794 C.ar    1  UNL1        0.0366
      3 C           1.9969    3.1271   18.5262 C.ar    1  UNL1       -0.0014
      4 C           2.1338    1.6857   18.9183 C.ar    1  UNL1       -0.0245
      5 C           1.2291    1.1036   19.9634 C.ar    1  UNL1       -0.0217
      6 C           0.1873    1.9627   20.6166 C.ar    1  UNL1        0.0324
      7 C           1.1969   -0.2979   20.4973 C.3     1  UNL1        0.0434
      8 C           2.0618   -1.4633   20.1178 C.3     1  UNL1        0.0768
      9 N           3.1722   -1.5150   19.1108 N.3     1  UNL1       -0.2734
     10 C           3.6922   -0.4142   18.2344 C.3     1  UNL1        0.0768
     11 C           3.2300    1.0103   18.1488 C.3     1  UNL1        0.0433
     12 C           3.8527   -2.8432   18.9600 C.3     1  UNL1        0.0575
     13 C           3.4825   -4.2651   19.2621 C.3     1  UNL1        0.0160
     14 C           4.8152   -4.7216   18.7469 C.3     1  UNL1        0.0028
     15 C           5.1854   -3.2997   18.4448 C.3     1  UNL1        0.0160
     16 O          -0.9914    4.2633   20.8776 O.3     1  UNL1       -0.4707
     17 C          -2.3445    3.6956   21.1886 C.3     1  UNL1        0.2320
     18 C          -5.5533    3.6704   18.0338 C.ar    1  UNL1       -0.0000
     19 C          -4.1463    4.0409   17.6695 C.ar    1  UNL1       -0.0002
     20 C          -3.0767    4.0493   18.7210 C.ar    1  UNL1       -0.0007
     21 C          -3.4142    3.6872   20.1370 C.ar    1  UNL1        0.0212
     22 C          -4.8212    3.3167   20.5013 C.ar    1  UNL1       -0.0007
     23 C          -5.8909    3.3083   19.4498 C.ar    1  UNL1       -0.0002
@<TRIPOS>BOND
     1    18    19   ar
     2    19    20   ar
     3    20    21   ar
     4    21    17    1
     5    17    16    1
     6    16     1    1
     7     1     2   ar
     8     2     3   ar
     9     3     4   ar
    10     4     5   ar
    11     5     6   ar
    12     5     7    1
    13     7     8    1
    14     8     9    1
    15     9    12    1
    16    12    13    1
    17    13    14    1
    18    14    15    1
    19     9    10    1
    20    10    11    1
    21    21    22   ar
    22    22    23   ar
    23    23    18   ar
    24     6     1   ar
    25    15    12    1
    26    11     4    1
@<TRIPOS>MOLECULE
*****
 23 26 0 0 0
SMALL
GASTEIGER

@<TRIPOS>ATOM
      1 C           0.7514    2.3452   23.7917 C.ar    1  UNL1        0.1387
      2 C          -0.0839    2.6025   22.5727 C.ar    1  UNL1        0.0366
      3 C           0.0949    1.7546   21.3482 C.ar    1  UNL1       -0.0014
      4 C           1.1092    0.6494   21.3429 C.ar    1  UNL1       -0.0245
      5 C           1.9444    0.3922   22.5619 C.ar    1  UNL1       -0.0217
      6 C           1.7656    1.2400   23.7863 C.ar    1  UNL1        0.0324
      7 C           3.0039   -0.6498   22.7669 C.3     1  UNL1        0.0434
      8 C           3.4895   -1.6919   21.8034 C.3     1  UNL1        0.0768
      9 N           3.0358   -1.9493   20.3971 N.3     1  UNL1       -0.2734
     10 C           1.9843   -1.2282   19.6068 C.3     1  UNL1        0.0768
     11 C           1.1269   -0.0717   20.0277 C.3     1  UNL1        0.0433
     12 C           3.7246   -3.0768   19.6871 C.3     1  UNL1        0.0575
     13 C           3.4729   -4.5481   19.5385 C.3     1  UNL1        0.0160
     14 C           4.6988   -4.6715   18.6830 C.3     1  UNL1        0.0028
     15 C           4.9505   -3.2003   18.8316 C.3     1  UNL1        0.0160
     16 O           0.5725    3.1931   25.0160 O.3     1  UNL1       -0.4707
     17 C          -0.3566    2.7488   26.1067 C.3     1  UNL1        0.2320
     18 C           1.0331   -0.2450   29.1654 C.ar    1  UNL1       -0.0000
     19 C          -0.4300   -0.1007   28.8680 C.ar    1  UNL1       -0.0002
     20 C          -0.8933    0.8972   27.8485 C.ar    1  UNL1       -0.0007
     21 C           0.1067    1.7509   27.1263 C.ar    1  UNL1        0.0212
     22 C           1.5697    1.6066   27.4237 C.ar    1  UNL1       -0.0007
     23 C           2.0330    0.6087   28.4432 C.ar    1  UNL1       -0.0002
@<TRIPOS>BOND
     1    18    19   ar
     2    19    20   ar
     3    20    21   ar
     4    21    17    1
     5    17    16    1
     6    16     1    1
     7     1     2   ar
     8     2     3   ar
     9     3     4   ar
    10     4     5   ar
    11     5     6   ar
    12     5     7    1
    13     7     8    1
    14     8     9    1
    15     9    12    1
    16    12    13    1
    17    13    14    1
    18    14    15    1
    19     9    10    1
    20    10    11    1
    21    21    22   ar
    22    22    23   ar
    23    23    18   ar
    24     6     1   ar
    25    15    12    1
    26    11     4    1
