@<TRIPOS>MOLECULE
*****
 22 24 0 0 0
SMALL
GASTEIGER

@<TRIPOS>ATOM
      1 O          -9.8485  -19.7088   18.9708 O.2     1  UNL1       -0.2844
      2 C          -9.4647  -19.3004   20.3621 C.2     1  UNL1        0.2192
      3 C          -8.0196  -19.2700   20.7631 C.ar    1  UNL1        0.1496
      4 N          -7.4293  -18.4501   21.8719 N.ar    1  UNL1       -0.2351
      5 C          -5.9560  -18.7275   21.9198 C.ar    1  UNL1        0.0882
      6 C          -4.8647  -18.2055   22.8066 C.ar    1  UNL1        0.0227
      7 C          -3.4531  -18.6749   22.6143 C.ar    1  UNL1        0.0382
      8 C          -3.1328  -19.6663   21.5351 C.ar    1  UNL1        0.1343
      9 O          -1.7211  -20.1356   21.3428 O.3     1  UNL1       -0.5055
     10 C          -4.2241  -20.1883   20.6483 C.ar    1  UNL1        0.0446
     11 C          -5.6357  -19.7189   20.8406 C.ar    1  UNL1        0.0516
     12 S          -6.9111  -20.0542   20.1258 S.2     1  UNL1       -0.0633
     13 H          -1.0394  -19.8095   21.8968 H       1  UNL1        0.2922
     14 C         -10.5260  -18.9224   21.3524 C.ar    1  UNL1        0.0442
     15 C         -11.6912  -18.0829   20.9193 C.ar    1  UNL1        0.0058
     16 C         -12.7525  -17.7049   21.9096 C.ar    1  UNL1        0.0329
     17 C         -12.6486  -18.1663   23.3331 C.ar    1  UNL1        0.1735
     18 F         -13.7099  -17.7882   24.3235 F       1  UNL1       -0.2010
     19 C         -11.4834  -19.0058   23.7663 C.ar    1  UNL1        0.1611
     20 O         -11.3795  -19.4672   25.1897 O.3     1  UNL1       -0.5034
     21 C         -10.4221  -19.3839   22.7759 C.ar    1  UNL1        0.0422
     22 H         -12.0425  -19.2311   25.8084 H       1  UNL1        0.2923
@<TRIPOS>BOND
     1     1     2    2
     2     2    14    1
     3    14    15   ar
     4    15    16   ar
     5    16    17   ar
     6    17    18    1
     7    17    19   ar
     8    19    20    1
     9    19    21   ar
    10     2     3    1
    11     3     4   ar
    12     4     5   ar
    13     5     6   ar
    14     6     7   ar
    15     7     8   ar
    16     8     9    1
    17     8    10   ar
    18    10    11   ar
    19    11    12   ar
    20    21    14   ar
    21    12     3   ar
    22    11     5   ar
    23    20    22    1
    24     9    13    1
@<TRIPOS>MOLECULE
*****
 22 24 0 0 0
SMALL
GASTEIGER

@<TRIPOS>ATOM
      1 O          -5.2206  -21.2046   20.0029 O.2     1  UNL1       -0.2844
      2 C          -5.2400  -19.8476   20.6418 C.2     1  UNL1        0.2192
      3 C          -6.4779  -19.3635   21.3368 C.ar    1  UNL1        0.1496
      4 N          -7.0911  -18.0015   21.1987 N.ar    1  UNL1       -0.2351
      5 C          -8.3123  -17.9525   22.0684 C.ar    1  UNL1        0.0882
      6 C          -9.3136  -16.8674   22.3325 C.ar    1  UNL1        0.0227
      7 C         -10.4565  -17.1140   23.2721 C.ar    1  UNL1        0.0382
      8 C         -10.5980  -18.4457   23.9477 C.ar    1  UNL1        0.1343
      9 O         -11.7410  -18.6923   24.8874 O.3     1  UNL1       -0.5055
     10 C          -9.5967  -19.5309   23.6837 C.ar    1  UNL1        0.0446
     11 C          -8.4538  -19.2843   22.7440 C.ar    1  UNL1        0.0516
     12 S          -7.3202  -20.1562   22.2918 S.2     1  UNL1       -0.0633
     13 H         -12.3665  -18.0144   25.0523 H       1  UNL1        0.2922
     14 C          -4.0214  -18.9748   20.5858 C.ar    1  UNL1        0.0442
     15 C          -3.5246  -18.2994   21.8297 C.ar    1  UNL1        0.0058
     16 C          -2.3060  -17.4266   21.7736 C.ar    1  UNL1        0.0329
     17 C          -1.5841  -17.2292   20.4737 C.ar    1  UNL1        0.1735
     18 F          -0.3654  -16.3563   20.4177 F       1  UNL1       -0.2010
     19 C          -2.0807  -17.9045   19.2298 C.ar    1  UNL1        0.1611
     20 O          -1.3588  -17.7070   17.9299 O.3     1  UNL1       -0.5034
     21 C          -3.2994  -18.7774   19.2858 C.ar    1  UNL1        0.0422
     22 H          -0.5976  -17.1618   17.8949 H       1  UNL1        0.2923
@<TRIPOS>BOND
     1     1     2    2
     2     2    14    1
     3    14    15   ar
     4    15    16   ar
     5    16    17   ar
     6    17    18    1
     7    17    19   ar
     8    19    20    1
     9    19    21   ar
    10     2     3    1
    11     3     4   ar
    12     4     5   ar
    13     5     6   ar
    14     6     7   ar
    15     7     8   ar
    16     8     9    1
    17     8    10   ar
    18    10    11   ar
    19    11    12   ar
    20    21    14   ar
    21    12     3   ar
    22    11     5   ar
    23    20    22    1
    24     9    13    1
@<TRIPOS>MOLECULE
*****
 22 24 0 0 0
SMALL
GASTEIGER

@<TRIPOS>ATOM
      1 O          -5.6199  -21.7894   20.2441 O.2     1  UNL1       -0.2844
      2 C          -5.7897  -20.3636   20.6776 C.2     1  UNL1        0.2192
      3 C          -7.1525  -19.8428   21.0260 C.ar    1  UNL1        0.1496
      4 N          -7.7288  -19.7350   22.4067 N.ar    1  UNL1       -0.2351
      5 C          -9.1109  -19.1639   22.2888 C.ar    1  UNL1        0.0882
      6 C         -10.1522  -18.8355   23.3173 C.ar    1  UNL1        0.0227
      7 C         -11.4713  -18.2619   22.8922 C.ar    1  UNL1        0.0382
      8 C         -11.7492  -18.0167   21.4387 C.ar    1  UNL1        0.1343
      9 O         -13.0685  -17.4431   21.0137 O.3     1  UNL1       -0.5055
     10 C         -10.7079  -18.3452   20.4103 C.ar    1  UNL1        0.0446
     11 C          -9.3887  -18.9188   20.8353 C.ar    1  UNL1        0.0516
     12 S          -8.1784  -19.3383   20.0549 S.2     1  UNL1       -0.0633
     13 H         -13.7190  -17.2380   21.6561 H       1  UNL1        0.2922
     14 C          -4.5966  -19.4585   20.7628 C.ar    1  UNL1        0.0442
     15 C          -4.2755  -18.7599   22.0508 C.ar    1  UNL1        0.0058
     16 C          -3.0824  -17.8548   22.1360 C.ar    1  UNL1        0.0329
     17 C          -2.2103  -17.6482   20.9331 C.ar    1  UNL1        0.1735
     18 F          -1.0172  -16.7431   21.0184 F       1  UNL1       -0.2010
     19 C          -2.5313  -18.3468   19.6452 C.ar    1  UNL1        0.1611
     20 O          -1.6592  -18.1403   18.4423 O.3     1  UNL1       -0.5034
     21 C          -3.7245  -19.2519   19.5600 C.ar    1  UNL1        0.0422
     22 H          -0.9139  -17.5749   18.4956 H       1  UNL1        0.2923
@<TRIPOS>BOND
     1     1     2    2
     2     2    14    1
     3    14    15   ar
     4    15    16   ar
     5    16    17   ar
     6    17    18    1
     7    17    19   ar
     8    19    20    1
     9    19    21   ar
    10     2     3    1
    11     3     4   ar
    12     4     5   ar
    13     5     6   ar
    14     6     7   ar
    15     7     8   ar
    16     8     9    1
    17     8    10   ar
    18    10    11   ar
    19    11    12   ar
    20    21    14   ar
    21    12     3   ar
    22    11     5   ar
    23    20    22    1
    24     9    13    1
@<TRIPOS>MOLECULE
*****
 22 24 0 0 0
SMALL
GASTEIGER

@<TRIPOS>ATOM
      1 O          -7.0279  -20.5892   19.7931 O.2     1  UNL1       -0.2844
      2 C          -7.0356  -19.5802   20.9029 C.2     1  UNL1        0.2192
      3 C          -8.3328  -18.9903   21.3712 C.ar    1  UNL1        0.1496
      4 N          -8.8752  -17.6432   20.9957 N.ar    1  UNL1       -0.2351
      5 C         -10.1930  -17.4641   21.6897 C.ar    1  UNL1        0.0882
      6 C         -11.1803  -16.3350   21.6930 C.ar    1  UNL1        0.0227
      7 C         -12.4396  -16.4423   22.5008 C.ar    1  UNL1        0.0382
      8 C         -12.7116  -17.6788   23.3052 C.ar    1  UNL1        0.1343
      9 O         -13.9710  -17.7861   24.1130 O.3     1  UNL1       -0.5055
     10 C         -11.7242  -18.8079   23.3019 C.ar    1  UNL1        0.0446
     11 C         -10.4649  -18.7006   22.4941 C.ar    1  UNL1        0.0516
     12 S          -9.3152  -19.6438   22.2973 S.2     1  UNL1       -0.0633
     13 H         -14.5878  -17.0807   24.1151 H       1  UNL1        0.2922
     14 C          -5.7461  -19.1612   21.5445 C.ar    1  UNL1        0.0442
     15 C          -5.7375  -18.0564   22.5591 C.ar    1  UNL1        0.0058
     16 C          -4.4480  -17.6374   23.2007 C.ar    1  UNL1        0.0329
     17 C          -3.1671  -18.3231   22.8277 C.ar    1  UNL1        0.1735
     18 F          -1.8776  -17.9041   23.4693 F       1  UNL1       -0.2010
     19 C          -3.1757  -19.4279   21.8131 C.ar    1  UNL1        0.1611
     20 O          -1.8949  -20.1136   21.4401 O.3     1  UNL1       -0.5034
     21 C          -4.4653  -19.8470   21.1715 C.ar    1  UNL1        0.0422
     22 H          -1.0894  -19.8519   21.8409 H       1  UNL1        0.2923
@<TRIPOS>BOND
     1     1     2    2
     2     2    14    1
     3    14    15   ar
     4    15    16   ar
     5    16    17   ar
     6    17    18    1
     7    17    19   ar
     8    19    20    1
     9    19    21   ar
    10     2     3    1
    11     3     4   ar
    12     4     5   ar
    13     5     6   ar
    14     6     7   ar
    15     7     8   ar
    16     8     9    1
    17     8    10   ar
    18    10    11   ar
    19    11    12   ar
    20    21    14   ar
    21    12     3   ar
    22    11     5   ar
    23    20    22    1
    24     9    13    1
@<TRIPOS>MOLECULE
*****
 22 24 0 0 0
SMALL
GASTEIGER

@<TRIPOS>ATOM
      1 O          -5.7015  -21.6290   20.4355 O.2     1  UNL1       -0.2844
      2 C          -5.7517  -20.1521   20.6925 C.2     1  UNL1        0.2192
      3 C          -7.0625  -19.4871   20.9922 C.ar    1  UNL1        0.1496
      4 N          -7.4183  -18.7717   22.2616 N.ar    1  UNL1       -0.2351
      5 C          -8.8233  -18.2633   22.1290 C.ar    1  UNL1        0.0882
      6 C          -9.7022  -17.4868   23.0642 C.ar    1  UNL1        0.0227
      7 C         -11.0935  -17.1116   22.6480 C.ar    1  UNL1        0.0382
      8 C         -11.6060  -17.5128   21.2966 C.ar    1  UNL1        0.1343
      9 O         -12.9974  -17.1375   20.8804 O.3     1  UNL1       -0.5055
     10 C         -10.7271  -18.2892   20.3613 C.ar    1  UNL1        0.0446
     11 C          -9.3358  -18.6645   20.7776 C.ar    1  UNL1        0.0516
     12 S          -8.2475  -19.4208   20.0750 S.2     1  UNL1       -0.0633
     13 H         -13.5464  -16.6525   21.4646 H       1  UNL1        0.2922
     14 C          -4.4913  -19.3401   20.6499 C.ar    1  UNL1        0.0442
     15 C          -3.9637  -18.8424   19.3368 C.ar    1  UNL1        0.0058
     16 C          -2.7033  -18.0305   19.2941 C.ar    1  UNL1        0.0329
     17 C          -1.9703  -17.7161   20.5645 C.ar    1  UNL1        0.1735
     18 F          -0.7097  -16.9040   20.5219 F       1  UNL1       -0.2010
     19 C          -2.4978  -18.2137   21.8776 C.ar    1  UNL1        0.1611
     20 O          -1.7648  -17.8993   23.1480 O.3     1  UNL1       -0.5034
     21 C          -3.7583  -19.0257   21.9203 C.ar    1  UNL1        0.0422
     22 H          -0.9774  -17.3921   23.1213 H       1  UNL1        0.2923
@<TRIPOS>BOND
     1     1     2    2
     2     2    14    1
     3    14    15   ar
     4    15    16   ar
     5    16    17   ar
     6    17    18    1
     7    17    19   ar
     8    19    20    1
     9    19    21   ar
    10     2     3    1
    11     3     4   ar
    12     4     5   ar
    13     5     6   ar
    14     6     7   ar
    15     7     8   ar
    16     8     9    1
    17     8    10   ar
    18    10    11   ar
    19    11    12   ar
    20    21    14   ar
    21    12     3   ar
    22    11     5   ar
    23    20    22    1
    24     9    13    1
@<TRIPOS>MOLECULE
*****
 22 24 0 0 0
SMALL
GASTEIGER

@<TRIPOS>ATOM
      1 O          -9.3631  -20.0142   19.0733 O.2     1  UNL1       -0.2844
      2 C          -8.9132  -19.5579   20.4295 C.2     1  UNL1        0.2192
      3 C          -7.4492  -19.4663   20.7426 C.ar    1  UNL1        0.1496
      4 N          -6.3523  -20.2296   20.0611 N.ar    1  UNL1       -0.2351
      5 C          -5.0501  -19.8304   20.6895 C.ar    1  UNL1        0.0882
      6 C          -3.6362  -20.2561   20.4256 C.ar    1  UNL1        0.0227
      7 C          -2.5143  -19.6718   21.2317 C.ar    1  UNL1        0.0382
      8 C          -2.8063  -18.6618   22.3016 C.ar    1  UNL1        0.1343
      9 O          -1.6843  -18.0775   23.1078 O.3     1  UNL1       -0.5055
     10 C          -4.2202  -18.2361   22.5655 C.ar    1  UNL1        0.0446
     11 C          -5.3421  -18.8204   21.7594 C.ar    1  UNL1        0.0516
     12 S          -6.8248  -18.5954   21.7922 S.2     1  UNL1       -0.0633
     13 H          -0.8010  -18.3434   22.9430 H       1  UNL1        0.2922
     14 C          -9.9275  -19.1933   21.4727 C.ar    1  UNL1        0.0442
     15 C         -10.1139  -20.0692   22.6761 C.ar    1  UNL1        0.0058
     16 C         -11.1282  -19.7045   23.7192 C.ar    1  UNL1        0.0329
     17 C         -11.9561  -18.4640   23.5591 C.ar    1  UNL1        0.1735
     18 F         -12.9705  -18.0994   24.6023 F       1  UNL1       -0.2010
     19 C         -11.7698  -17.5882   22.3557 C.ar    1  UNL1        0.1611
     20 O         -12.5977  -16.3477   22.1955 O.3     1  UNL1       -0.5034
     21 C         -10.7555  -17.9528   21.3125 C.ar    1  UNL1        0.0422
     22 H         -13.2313  -16.1199   22.8472 H       1  UNL1        0.2923
@<TRIPOS>BOND
     1     1     2    2
     2     2    14    1
     3    14    15   ar
     4    15    16   ar
     5    16    17   ar
     6    17    18    1
     7    17    19   ar
     8    19    20    1
     9    19    21   ar
    10     2     3    1
    11     3     4   ar
    12     4     5   ar
    13     5     6   ar
    14     6     7   ar
    15     7     8   ar
    16     8     9    1
    17     8    10   ar
    18    10    11   ar
    19    11    12   ar
    20    21    14   ar
    21    12     3   ar
    22    11     5   ar
    23    20    22    1
    24     9    13    1
@<TRIPOS>MOLECULE
*****
 22 24 0 0 0
SMALL
GASTEIGER

@<TRIPOS>ATOM
      1 O          -5.6797  -16.3992   23.5518 O.2     1  UNL1       -0.2844
      2 C          -6.4609  -17.4099   22.7656 C.2     1  UNL1        0.2192
      3 C          -7.9601  -17.3604   22.7608 C.ar    1  UNL1        0.1496
      4 N          -8.8124  -16.5454   21.8339 N.ar    1  UNL1       -0.2351
      5 C         -10.2493  -16.7986   22.1823 C.ar    1  UNL1        0.0882
      6 C         -11.5297  -16.2700   21.6070 C.ar    1  UNL1        0.0227
      7 C         -12.8459  -16.7130   22.1740 C.ar    1  UNL1        0.0382
      8 C         -12.8815  -17.6845   23.3163 C.ar    1  UNL1        0.1343
      9 O         -14.1978  -18.1275   23.8833 O.3     1  UNL1       -0.5055
     10 C         -11.6011  -18.2131   23.8916 C.ar    1  UNL1        0.0446
     11 C         -10.2850  -17.7701   23.3246 C.ar    1  UNL1        0.0516
     12 S          -8.8702  -18.1173   23.6821 S.2     1  UNL1       -0.0633
     13 H         -14.9976  -17.7973   23.5239 H       1  UNL1        0.2922
     14 C          -5.7430  -18.4700   21.9842 C.ar    1  UNL1        0.0442
     15 C          -6.4881  -19.2913   20.9741 C.ar    1  UNL1        0.0058
     16 C          -5.7701  -20.3515   20.1927 C.ar    1  UNL1        0.0329
     17 C          -4.3071  -20.5904   20.4214 C.ar    1  UNL1        0.1735
     18 F          -3.5891  -21.6506   19.6400 F       1  UNL1       -0.2010
     19 C          -3.5619  -19.7692   21.4315 C.ar    1  UNL1        0.1611
     20 O          -2.0989  -20.0081   21.6603 O.3     1  UNL1       -0.5034
     21 C          -4.2799  -18.7090   22.2130 C.ar    1  UNL1        0.0422
     22 H          -1.6504  -20.6704   21.1722 H       1  UNL1        0.2923
@<TRIPOS>BOND
     1     1     2    2
     2     2    14    1
     3    14    15   ar
     4    15    16   ar
     5    16    17   ar
     6    17    18    1
     7    17    19   ar
     8    19    20    1
     9    19    21   ar
    10     2     3    1
    11     3     4   ar
    12     4     5   ar
    13     5     6   ar
    14     6     7   ar
    15     7     8   ar
    16     8     9    1
    17     8    10   ar
    18    10    11   ar
    19    11    12   ar
    20    21    14   ar
    21    12     3   ar
    22    11     5   ar
    23    20    22    1
    24     9    13    1
@<TRIPOS>MOLECULE
*****
 22 24 0 0 0
SMALL
GASTEIGER

@<TRIPOS>ATOM
      1 O          -8.4043  -19.7881   19.1150 O.2     1  UNL1       -0.2844
      2 C          -7.8682  -19.3129   20.4328 C.2     1  UNL1        0.2192
      3 C          -6.3924  -19.1161   20.6151 C.ar    1  UNL1        0.1496
      4 N          -5.7064  -18.7203   21.8890 N.ar    1  UNL1       -0.2351
      5 C          -4.2335  -18.6401   21.6167 C.ar    1  UNL1        0.0882
      6 C          -3.0676  -18.2965   22.4957 C.ar    1  UNL1        0.0227
      7 C          -1.6774  -18.2992   21.9325 C.ar    1  UNL1        0.0382
      8 C          -1.4530  -18.6455   20.4904 C.ar    1  UNL1        0.1343
      9 O          -0.0627  -18.6482   19.9272 O.3     1  UNL1       -0.5055
     10 C          -2.6189  -18.9891   19.6114 C.ar    1  UNL1        0.0446
     11 C          -4.0091  -18.9864   20.1746 C.ar    1  UNL1        0.0516
     12 S          -5.3434  -19.2805   19.5556 S.2     1  UNL1       -0.0633
     13 H           0.6656  -18.4336   20.4763 H       1  UNL1        0.2922
     14 C          -8.8079  -19.0344   21.5682 C.ar    1  UNL1        0.0442
     15 C          -9.1153  -20.1094   22.5683 C.ar    1  UNL1        0.0058
     16 C         -10.0550  -19.8309   23.7037 C.ar    1  UNL1        0.0329
     17 C         -10.6874  -18.4774   23.8393 C.ar    1  UNL1        0.1735
     18 F         -11.6271  -18.1990   24.9748 F       1  UNL1       -0.2010
     19 C         -10.3800  -17.4025   22.8393 C.ar    1  UNL1        0.1611
     20 O         -11.0123  -16.0490   22.9749 O.3     1  UNL1       -0.5034
     21 C          -9.4402  -17.6809   21.7038 C.ar    1  UNL1        0.0422
     22 H         -11.5993  -15.8751   23.6842 H       1  UNL1        0.2923
@<TRIPOS>BOND
     1     1     2    2
     2     2    14    1
     3    14    15   ar
     4    15    16   ar
     5    16    17   ar
     6    17    18    1
     7    17    19   ar
     8    19    20    1
     9    19    21   ar
    10     2     3    1
    11     3     4   ar
    12     4     5   ar
    13     5     6   ar
    14     6     7   ar
    15     7     8   ar
    16     8     9    1
    17     8    10   ar
    18    10    11   ar
    19    11    12   ar
    20    21    14   ar
    21    12     3   ar
    22    11     5   ar
    23    20    22    1
    24     9    13    1
@<TRIPOS>MOLECULE
*****
 22 24 0 0 0
SMALL
GASTEIGER

@<TRIPOS>ATOM
      1 O         -14.9399   -3.1536   18.9571 O.2     1  UNL1       -0.2844
      2 C         -14.2866   -4.4727   18.6689 C.2     1  UNL1        0.2192
      3 C         -15.0584   -5.7465   18.8465 C.ar    1  UNL1        0.1496
      4 N         -16.4316   -5.8704   19.4371 N.ar    1  UNL1       -0.2351
      5 C         -16.8145   -7.3206   19.4202 C.ar    1  UNL1        0.0882
      6 C         -18.0512   -8.0376   19.8745 C.ar    1  UNL1        0.0227
      7 C         -18.1513   -9.5270   19.7277 C.ar    1  UNL1        0.0382
      8 C         -17.0146  -10.2995   19.1267 C.ar    1  UNL1        0.1343
      9 O         -17.1147  -11.7890   18.9799 O.3     1  UNL1       -0.5055
     10 C         -15.7779   -9.5825   18.6724 C.ar    1  UNL1        0.0446
     11 C         -15.6778   -8.0931   18.8192 C.ar    1  UNL1        0.0516
     12 S         -14.5925   -7.1203   18.4646 S.2     1  UNL1       -0.0633
     13 H         -17.8873  -12.2368   19.2637 H       1  UNL1        0.2922
     14 C         -12.8614   -4.5179   18.2032 C.ar    1  UNL1        0.0442
     15 C         -12.5467   -4.4122   16.7404 C.ar    1  UNL1        0.0058
     16 C         -11.1216   -4.4575   16.2746 C.ar    1  UNL1        0.0329
     17 C         -10.0111   -4.6084   17.2717 C.ar    1  UNL1        0.1735
     18 F          -8.5860   -4.6536   16.8059 F       1  UNL1       -0.2010
     19 C         -10.3258   -4.7140   18.7345 C.ar    1  UNL1        0.1611
     20 O          -9.2154   -4.8650   19.7315 O.3     1  UNL1       -0.5034
     21 C         -11.7510   -4.6688   19.2003 C.ar    1  UNL1        0.0422
     22 H          -8.3251   -4.8932   19.4406 H       1  UNL1        0.2923
@<TRIPOS>BOND
     1     1     2    2
     2     2    14    1
     3    14    15   ar
     4    15    16   ar
     5    16    17   ar
     6    17    18    1
     7    17    19   ar
     8    19    20    1
     9    19    21   ar
    10     2     3    1
    11     3     4   ar
    12     4     5   ar
    13     5     6   ar
    14     6     7   ar
    15     7     8   ar
    16     8     9    1
    17     8    10   ar
    18    10    11   ar
    19    11    12   ar
    20    21    14   ar
    21    12     3   ar
    22    11     5   ar
    23    20    22    1
    24     9    13    1
