@<TRIPOS>MOLECULE
*****
 24 27 0 0 0
SMALL
GASTEIGER

@<TRIPOS>ATOM
      1 C          -6.2048  -18.9317   20.5432 C.ar    1  UNL1        0.1350
      2 N          -7.0319  -19.6266   19.5025 N.ar    1  UNL1       -0.2160
      3 C          -8.5258  -19.6606   19.6315 C.ar    1  UNL1        0.1415
      4 C          -9.3529  -20.3555   18.5907 C.3     1  UNL1        0.0737
      5 N          -9.1929  -18.9996   20.8012 N.ar    1  UNL1       -0.2241
      6 C          -8.3659  -18.3046   21.8419 C.ar    1  UNL1        0.1147
      7 S          -8.7398  -17.5706   23.0954 S.2     1  UNL1       -0.0679
      8 C          -7.4768  -17.0830   23.7412 C.ar    1  UNL1        0.0310
      9 C          -6.3223  -17.5157   22.8868 C.ar    1  UNL1        0.0113
     10 C          -6.8718  -18.2707   21.7129 C.ar    1  UNL1        0.0560
     11 N          -1.7226  -18.8298   20.1562 N.3     1  UNL1       -0.2698
     12 C          -2.3583  -19.4985   21.3389 C.3     1  UNL1        0.0939
     13 C          -3.8524  -19.5325   21.4679 C.3     1  UNL1        0.1095
     14 N          -4.7108  -18.8977   20.4143 N.pl3   1  UNL1       -0.2903
     15 C          -4.0750  -18.2290   19.2315 C.3     1  UNL1        0.1095
     16 C          -2.5811  -18.1951   19.1025 C.3     1  UNL1        0.0939
     17 C           0.4929  -17.4809   20.0076 C.3     1  UNL1        0.0188
     18 C          -0.2286  -18.7959   20.0272 C.3     1  UNL1        0.0722
     19 C          -7.3844  -16.3002   25.0174 C.ar    1  UNL1        0.0060
     20 C          -6.0953  -15.6336   25.3967 C.ar    1  UNL1        0.0005
     21 C          -6.0030  -14.8507   26.6729 C.ar    1  UNL1        0.0000
     22 C          -7.1997  -14.7345   27.5698 C.ar    1  UNL1        0.0000
     23 C          -8.4888  -15.4011   27.1905 C.ar    1  UNL1        0.0000
     24 C          -8.5811  -16.1840   25.9143 C.ar    1  UNL1        0.0005
@<TRIPOS>BOND
     1    17    18    1
     2    18    11    1
     3    11    12    1
     4    12    13    1
     5    13    14    1
     6    14     1    1
     7     1     2   ar
     8     2     3   ar
     9     3     4    1
    10     3     5   ar
    11     5     6   ar
    12     6     7   ar
    13     7     8   ar
    14     8    19    1
    15    19    20   ar
    16    20    21   ar
    17    21    22   ar
    18    22    23   ar
    19    23    24   ar
    20     8     9   ar
    21     9    10   ar
    22    14    15    1
    23    15    16    1
    24    16    11    1
    25    10     1   ar
    26    10     6   ar
    27    24    19   ar
@<TRIPOS>MOLECULE
*****
 24 27 0 0 0
SMALL
GASTEIGER

@<TRIPOS>ATOM
      1 C         -13.3476   -6.3690   18.4464 C.ar    1  UNL1        0.1350
      2 N         -12.1075   -7.2086   18.5314 N.ar    1  UNL1       -0.2160
      3 C         -10.7894   -6.5692   18.8531 C.ar    1  UNL1        0.1415
      4 C          -9.5493   -7.4089   18.9381 C.3     1  UNL1        0.0737
      5 N         -10.7113   -5.0900   19.0900 N.ar    1  UNL1       -0.2241
      6 C         -11.9514   -4.2504   19.0050 C.ar    1  UNL1        0.1147
      7 S         -12.1821   -2.7796   19.1879 S.2     1  UNL1       -0.0679
      8 C         -13.6428   -2.5101   18.9791 C.ar    1  UNL1        0.0310
      9 C         -14.3149   -3.8143   18.6672 C.ar    1  UNL1        0.0113
     10 C         -13.2695   -4.8899   18.6833 C.ar    1  UNL1        0.0560
     11 N         -17.3020   -8.2876   17.4810 N.3     1  UNL1       -0.2698
     12 C         -16.9423   -7.9867   18.9058 C.3     1  UNL1        0.0939
     13 C         -15.6242   -7.3472   19.2277 C.3     1  UNL1        0.1095
     14 N         -14.6657   -7.0085   18.1247 N.pl3   1  UNL1       -0.2903
     15 C         -15.0255   -7.3094   16.6997 C.3     1  UNL1        0.1095
     16 C         -16.3435   -7.9489   16.3780 C.3     1  UNL1        0.0939
     17 C         -18.8689  -10.3594   17.5287 C.3     1  UNL1        0.0188
     18 C         -18.6201   -8.9270   17.1592 C.3     1  UNL1        0.0722
     19 C         -14.3137   -1.1713   19.0668 C.ar    1  UNL1        0.0060
     20 C         -13.7071    0.0178   18.3828 C.ar    1  UNL1        0.0005
     21 C         -14.3781    1.3566   18.4705 C.ar    1  UNL1        0.0000
     22 C         -15.6556    1.5061   19.2422 C.ar    1  UNL1        0.0000
     23 C         -16.2622    0.3170   19.9262 C.ar    1  UNL1        0.0000
     24 C         -15.5912   -1.0218   19.8385 C.ar    1  UNL1        0.0005
@<TRIPOS>BOND
     1    17    18    1
     2    18    11    1
     3    11    12    1
     4    12    13    1
     5    13    14    1
     6    14     1    1
     7     1     2   ar
     8     2     3   ar
     9     3     4    1
    10     3     5   ar
    11     5     6   ar
    12     6     7   ar
    13     7     8   ar
    14     8    19    1
    15    19    20   ar
    16    20    21   ar
    17    21    22   ar
    18    22    23   ar
    19    23    24   ar
    20     8     9   ar
    21     9    10   ar
    22    14    15    1
    23    15    16    1
    24    16    11    1
    25    10     1   ar
    26    10     6   ar
    27    24    19   ar
@<TRIPOS>MOLECULE
*****
 24 27 0 0 0
SMALL
GASTEIGER

@<TRIPOS>ATOM
      1 C         -13.5522   -6.2756   18.9947 C.ar    1  UNL1        0.1350
      2 N         -12.0841   -6.5634   18.8865 N.ar    1  UNL1       -0.2160
      3 C         -11.0888   -5.4514   19.0369 C.ar    1  UNL1        0.1415
      4 C          -9.6206   -5.7392   18.9286 C.3     1  UNL1        0.0737
      5 N         -11.5615   -4.0515   19.2956 N.ar    1  UNL1       -0.2241
      6 C         -13.0297   -3.7637   19.4038 C.ar    1  UNL1        0.1147
      7 S         -13.7878   -2.4934   19.6518 S.2     1  UNL1       -0.0679
      8 C         -15.2517   -2.8203   19.6546 C.ar    1  UNL1        0.0310
      9 C         -15.3983   -4.2927   19.4084 C.ar    1  UNL1        0.0113
     10 C         -14.0250   -4.8758   19.2534 C.ar    1  UNL1        0.0560
     11 N         -16.5384   -9.6117   18.5435 N.3     1  UNL1       -0.2698
     12 C         -15.1934   -9.7152   17.8876 C.3     1  UNL1        0.0939
     13 C         -14.1979   -8.6032   18.0380 C.3     1  UNL1        0.1095
     14 N         -14.5476   -7.3876   18.8443 N.pl3   1  UNL1       -0.2903
     15 C         -15.8927   -7.2841   19.5003 C.3     1  UNL1        0.1095
     16 C         -16.8880   -8.3961   19.3499 C.3     1  UNL1        0.0939
     17 C         -18.9229  -10.4268   17.9114 C.3     1  UNL1        0.0188
     18 C         -17.5337  -10.7237   18.3931 C.3     1  UNL1        0.0722
     19 C         -16.3723   -1.8460   19.8665 C.ar    1  UNL1        0.0060
     20 C         -16.0694   -0.4032   20.1435 C.ar    1  UNL1        0.0005
     21 C         -17.1901    0.5711   20.3554 C.ar    1  UNL1        0.0000
     22 C         -18.6136    0.1027   20.2902 C.ar    1  UNL1        0.0000
     23 C         -18.9165   -1.3400   20.0131 C.ar    1  UNL1        0.0000
     24 C         -17.7958   -2.3144   19.8013 C.ar    1  UNL1        0.0005
@<TRIPOS>BOND
     1    17    18    1
     2    18    11    1
     3    11    12    1
     4    12    13    1
     5    13    14    1
     6    14     1    1
     7     1     2   ar
     8     2     3   ar
     9     3     4    1
    10     3     5   ar
    11     5     6   ar
    12     6     7   ar
    13     7     8   ar
    14     8    19    1
    15    19    20   ar
    16    20    21   ar
    17    21    22   ar
    18    22    23   ar
    19    23    24   ar
    20     8     9   ar
    21     9    10   ar
    22    14    15    1
    23    15    16    1
    24    16    11    1
    25    10     1   ar
    26    10     6   ar
    27    24    19   ar
@<TRIPOS>MOLECULE
*****
 24 27 0 0 0
SMALL
GASTEIGER

@<TRIPOS>ATOM
      1 C          -7.7613  -15.9939   24.4863 C.ar    1  UNL1        0.1350
      2 N          -8.0739  -15.3991   25.8273 N.ar    1  UNL1       -0.2160
      3 C          -6.9807  -15.2084   26.8365 C.ar    1  UNL1        0.1415
      4 C          -7.2934  -14.6135   28.1776 C.3     1  UNL1        0.0737
      5 N          -5.5748  -15.6125   26.5046 N.ar    1  UNL1       -0.2241
      6 C          -5.2622  -16.2073   25.1636 C.ar    1  UNL1        0.1147
      7 S          -3.9807  -16.6969   24.5569 S.2     1  UNL1       -0.0679
      8 C          -4.2820  -17.1902   23.1727 C.ar    1  UNL1        0.0310
      9 C          -5.7496  -17.0055   22.9240 C.ar    1  UNL1        0.0113
     10 C          -6.3554  -16.3980   24.1544 C.ar    1  UNL1        0.0560
     11 N         -11.0412  -16.5660   21.4588 N.3     1  UNL1       -0.2698
     12 C          -9.8336  -15.7473   21.1106 C.3     1  UNL1        0.0939
     13 C          -8.7402  -15.5565   22.1198 C.3     1  UNL1        0.1095
     14 N          -8.8546  -16.1846   23.4771 N.pl3   1  UNL1       -0.2903
     15 C         -10.0623  -17.0034   23.8254 C.3     1  UNL1        0.1095
     16 C         -11.1555  -17.1941   22.8163 C.3     1  UNL1        0.0939
     17 C         -12.2463  -15.8245   19.2799 C.3     1  UNL1        0.0188
     18 C         -12.1344  -16.7567   20.4498 C.3     1  UNL1        0.0722
     19 C          -3.2898  -17.7670   22.2068 C.ar    1  UNL1        0.0060
     20 C          -2.2495  -16.8842   21.5836 C.ar    1  UNL1        0.0005
     21 C          -1.2573  -17.4611   20.6177 C.ar    1  UNL1        0.0000
     22 C          -1.3055  -18.9206   20.2750 C.ar    1  UNL1        0.0000
     23 C          -2.3458  -19.8034   20.8982 C.ar    1  UNL1        0.0000
     24 C          -3.3380  -19.2265   21.8641 C.ar    1  UNL1        0.0005
@<TRIPOS>BOND
     1    17    18    1
     2    18    11    1
     3    11    12    1
     4    12    13    1
     5    13    14    1
     6    14     1    1
     7     1     2   ar
     8     2     3   ar
     9     3     4    1
    10     3     5   ar
    11     5     6   ar
    12     6     7   ar
    13     7     8   ar
    14     8    19    1
    15    19    20   ar
    16    20    21   ar
    17    21    22   ar
    18    22    23   ar
    19    23    24   ar
    20     8     9   ar
    21     9    10   ar
    22    14    15    1
    23    15    16    1
    24    16    11    1
    25    10     1   ar
    26    10     6   ar
    27    24    19   ar
@<TRIPOS>MOLECULE
*****
 24 27 0 0 0
SMALL
GASTEIGER

@<TRIPOS>ATOM
      1 C          -1.9598    3.5570   20.0340 C.ar    1  UNL1        0.1350
      2 N          -2.3787    4.4388   18.8952 N.ar    1  UNL1       -0.2160
      3 C          -1.6108    4.4157   17.6070 C.ar    1  UNL1        0.1415
      4 C          -2.0297    5.2976   16.4681 C.3     1  UNL1        0.0737
      5 N          -0.4238    3.5108   17.4575 N.ar    1  UNL1       -0.2241
      6 C          -0.0048    2.6290   18.5963 C.ar    1  UNL1        0.1147
      7 S           1.1143    1.6408   18.7414 S.2     1  UNL1       -0.0679
      8 C           1.0379    1.0532   20.1194 C.ar    1  UNL1        0.0310
      9 C          -0.1284    1.6782   20.8259 C.ar    1  UNL1        0.0113
     10 C          -0.7729    2.6521   19.8846 C.ar    1  UNL1        0.0560
     11 N          -4.2639    3.6264   23.8988 N.3     1  UNL1       -0.2698
     12 C          -2.8369    4.0876   23.8680 C.3     1  UNL1        0.0939
     13 C          -2.0688    4.0645   22.5797 C.3     1  UNL1        0.1095
     14 N          -2.7278    3.5802   21.3223 N.pl3   1  UNL1       -0.2903
     15 C          -4.1549    3.1189   21.3531 C.3     1  UNL1        0.1095
     16 C          -4.9229    3.1420   22.6413 C.3     1  UNL1        0.0939
     17 C          -4.3627    4.1013   26.4512 C.3     1  UNL1        0.0188
     18 C          -5.0319    3.6495   25.1870 C.3     1  UNL1        0.0722
     19 C           1.9650    0.0217   20.6906 C.ar    1  UNL1        0.0060
     20 C           2.2928    0.0362   22.1543 C.ar    1  UNL1        0.0005
     21 C           3.2200   -0.9954   22.7255 C.ar    1  UNL1        0.0000
     22 C           3.8194   -2.0415   21.8330 C.ar    1  UNL1        0.0000
     23 C           3.4916   -2.0560   20.3694 C.ar    1  UNL1        0.0000
     24 C           2.5644   -1.0244   19.7982 C.ar    1  UNL1        0.0005
@<TRIPOS>BOND
     1    17    18    1
     2    18    11    1
     3    11    12    1
     4    12    13    1
     5    13    14    1
     6    14     1    1
     7     1     2   ar
     8     2     3   ar
     9     3     4    1
    10     3     5   ar
    11     5     6   ar
    12     6     7   ar
    13     7     8   ar
    14     8    19    1
    15    19    20   ar
    16    20    21   ar
    17    21    22   ar
    18    22    23   ar
    19    23    24   ar
    20     8     9   ar
    21     9    10   ar
    22    14    15    1
    23    15    16    1
    24    16    11    1
    25    10     1   ar
    26    10     6   ar
    27    24    19   ar
@<TRIPOS>MOLECULE
*****
 24 27 0 0 0
SMALL
GASTEIGER

@<TRIPOS>ATOM
      1 C          -8.9353  -18.0697   22.5012 C.ar    1  UNL1        0.1350
      2 N         -10.3097  -18.4185   22.0119 N.ar    1  UNL1       -0.2160
      3 C         -10.4799  -19.1605   20.7195 C.ar    1  UNL1        0.1415
      4 C         -11.8544  -19.5092   20.2302 C.3     1  UNL1        0.0737
      5 N          -9.2757  -19.5538   19.9163 N.ar    1  UNL1       -0.2241
      6 C          -7.9013  -19.2051   20.4055 C.ar    1  UNL1        0.1147
      7 S          -6.5380  -19.4590   19.8338 S.2     1  UNL1       -0.0679
      8 C          -5.5252  -18.8738   20.7728 C.ar    1  UNL1        0.0310
      9 C          -6.2626  -18.2583   21.9250 C.ar    1  UNL1        0.0113
     10 C          -7.7311  -18.4631   21.6980 C.ar    1  UNL1        0.0560
     11 N          -8.4249  -15.8437   26.3786 N.3     1  UNL1       -0.2698
     12 C          -7.9583  -15.2276   25.0930 C.3     1  UNL1        0.0939
     13 C          -8.1284  -15.9696   23.8005 C.3     1  UNL1        0.1095
     14 N          -8.7652  -17.3277   23.7936 N.pl3   1  UNL1       -0.2903
     15 C          -9.2318  -17.9438   25.0793 C.3     1  UNL1        0.1095
     16 C          -9.0616  -17.2019   26.3717 C.3     1  UNL1        0.0939
     17 C          -6.9160  -14.5341   28.0394 C.3     1  UNL1        0.0188
     18 C          -8.2547  -15.1017   27.6710 C.3     1  UNL1        0.0722
     19 C          -4.0364  -18.8995   20.5916 C.ar    1  UNL1        0.0060
     20 C          -3.1594  -19.4647   21.6693 C.ar    1  UNL1        0.0005
     21 C          -1.6706  -19.4904   21.4880 C.ar    1  UNL1        0.0000
     22 C          -1.0588  -18.9510   20.2291 C.ar    1  UNL1        0.0000
     23 C          -1.9359  -18.3859   19.1514 C.ar    1  UNL1        0.0000
     24 C          -3.4247  -18.3602   19.3327 C.ar    1  UNL1        0.0005
@<TRIPOS>BOND
     1    17    18    1
     2    18    11    1
     3    11    12    1
     4    12    13    1
     5    13    14    1
     6    14     1    1
     7     1     2   ar
     8     2     3   ar
     9     3     4    1
    10     3     5   ar
    11     5     6   ar
    12     6     7   ar
    13     7     8   ar
    14     8    19    1
    15    19    20   ar
    16    20    21   ar
    17    21    22   ar
    18    22    23   ar
    19    23    24   ar
    20     8     9   ar
    21     9    10   ar
    22    14    15    1
    23    15    16    1
    24    16    11    1
    25    10     1   ar
    26    10     6   ar
    27    24    19   ar
@<TRIPOS>MOLECULE
*****
 24 27 0 0 0
SMALL
GASTEIGER

@<TRIPOS>ATOM
      1 C           3.2552   -1.8602   20.2948 C.ar    1  UNL1        0.1350
      2 N           3.5540   -2.9216   19.2779 N.ar    1  UNL1       -0.2160
      3 C           4.3647   -4.1231   19.6639 C.ar    1  UNL1        0.1415
      4 C           4.6635   -5.1846   18.6470 C.3     1  UNL1        0.0737
      5 N           4.8766   -4.2633   21.0670 N.ar    1  UNL1       -0.2241
      6 C           4.5778   -3.2019   22.0838 C.ar    1  UNL1        0.1147
      7 S           4.9453   -3.0674   23.5319 S.2     1  UNL1       -0.0679
      8 C           4.3617   -1.7826   24.0407 C.ar    1  UNL1        0.0310
      9 C           3.6336   -1.1232   22.9072 C.ar    1  UNL1        0.0113
     10 C           3.7671   -2.0003   21.6977 C.ar    1  UNL1        0.0560
     11 N           0.8232    1.7446   19.1365 N.3     1  UNL1       -0.2698
     12 C           0.2141    0.6713   19.9891 C.3     1  UNL1        0.0939
     13 C           1.0247   -0.5303   20.3753 C.3     1  UNL1        0.1095
     14 N           2.4445   -0.6586   19.9087 N.pl3   1  UNL1       -0.2903
     15 C           3.0537    0.4147   19.0560 C.3     1  UNL1        0.1095
     16 C           2.2431    1.6162   18.6699 C.3     1  UNL1        0.0939
     17 C           0.6408    4.0496   17.9519 C.3     1  UNL1        0.0188
     18 C           0.0126    2.9460   18.7504 C.3     1  UNL1        0.0722
     19 C           4.4847   -1.2507   25.4378 C.ar    1  UNL1        0.0060
     20 C           5.5706   -1.7571   26.3403 C.ar    1  UNL1        0.0005
     21 C           5.6935   -1.2252   27.7374 C.ar    1  UNL1        0.0000
     22 C           4.7306   -0.1868   28.2321 C.ar    1  UNL1        0.0000
     23 C           3.6448    0.3196   27.3297 C.ar    1  UNL1        0.0000
     24 C           3.5218   -0.2124   25.9325 C.ar    1  UNL1        0.0005
@<TRIPOS>BOND
     1    17    18    1
     2    18    11    1
     3    11    12    1
     4    12    13    1
     5    13    14    1
     6    14     1    1
     7     1     2   ar
     8     2     3   ar
     9     3     4    1
    10     3     5   ar
    11     5     6   ar
    12     6     7   ar
    13     7     8   ar
    14     8    19    1
    15    19    20   ar
    16    20    21   ar
    17    21    22   ar
    18    22    23   ar
    19    23    24   ar
    20     8     9   ar
    21     9    10   ar
    22    14    15    1
    23    15    16    1
    24    16    11    1
    25    10     1   ar
    26    10     6   ar
    27    24    19   ar
@<TRIPOS>MOLECULE
*****
 24 27 0 0 0
SMALL
GASTEIGER

@<TRIPOS>ATOM
      1 C           3.9200    0.5158   33.6662 C.ar    1  UNL1        0.1350
      2 N           4.0483    0.9903   35.0833 N.ar    1  UNL1       -0.2160
      3 C           3.1231    2.0486   35.6065 C.ar    1  UNL1        0.1415
      4 C           3.2513    2.5231   37.0238 C.3     1  UNL1        0.0737
      5 N           2.0695    2.6325   34.7126 N.ar    1  UNL1       -0.2241
      6 C           1.9412    2.1580   33.2954 C.ar    1  UNL1        0.1147
      7 S           1.0063    2.5451   32.1881 S.2     1  UNL1       -0.0679
      8 C           1.3539    1.7260   30.9805 C.ar    1  UNL1        0.0310
      9 C           2.5035    0.8327   31.3415 C.ar    1  UNL1        0.0113
     10 C           2.8665    1.0997   32.7722 C.ar    1  UNL1        0.0560
     11 N           6.6959   -2.6592   32.0965 N.3     1  UNL1       -0.2698
     12 C           5.4375   -3.0506   32.8128 C.3     1  UNL1        0.0939
     13 C           4.5121   -1.9923   33.3361 C.3     1  UNL1        0.1095
     14 N           4.8453   -0.5426   33.1430 N.pl3   1  UNL1       -0.2903
     15 C           6.1038   -0.1512   32.4266 C.3     1  UNL1        0.1095
     16 C           7.0291   -1.2094   31.9034 C.3     1  UNL1        0.0939
     17 C           7.1031   -5.0985   31.3000 C.3     1  UNL1        0.0188
     18 C           7.6212   -3.7175   31.5733 C.3     1  UNL1        0.0722
     19 C           0.6716    1.7891   29.6462 C.ar    1  UNL1        0.0060
     20 C          -0.1097    0.6101   29.1467 C.ar    1  UNL1        0.0005
     21 C          -0.7920    0.6733   27.8124 C.ar    1  UNL1        0.0000
     22 C          -0.6930    1.9155   26.9774 C.ar    1  UNL1        0.0000
     23 C           0.0882    3.0945   27.4768 C.ar    1  UNL1        0.0000
     24 C           0.7705    3.0313   28.8112 C.ar    1  UNL1        0.0005
@<TRIPOS>BOND
     1    17    18    1
     2    18    11    1
     3    11    12    1
     4    12    13    1
     5    13    14    1
     6    14     1    1
     7     1     2   ar
     8     2     3   ar
     9     3     4    1
    10     3     5   ar
    11     5     6   ar
    12     6     7   ar
    13     7     8   ar
    14     8    19    1
    15    19    20   ar
    16    20    21   ar
    17    21    22   ar
    18    22    23   ar
    19    23    24   ar
    20     8     9   ar
    21     9    10   ar
    22    14    15    1
    23    15    16    1
    24    16    11    1
    25    10     1   ar
    26    10     6   ar
    27    24    19   ar
@<TRIPOS>MOLECULE
*****
 24 27 0 0 0
SMALL
GASTEIGER

@<TRIPOS>ATOM
      1 C           0.7793    1.7408   19.2948 C.ar    1  UNL1        0.1350
      2 N           0.3445    2.4131   18.0264 N.ar    1  UNL1       -0.2160
      3 C          -0.6768    3.5108   18.0714 C.ar    1  UNL1        0.1415
      4 C          -1.1116    4.1831   16.8029 C.3     1  UNL1        0.0737
      5 N          -1.2633    3.9362   19.3848 N.ar    1  UNL1       -0.2241
      6 C          -0.8285    3.2638   20.6532 C.ar    1  UNL1        0.1147
      7 S          -1.2273    3.4675   22.0848 S.2     1  UNL1       -0.0679
      8 C          -0.4526    2.4956   22.9245 C.ar    1  UNL1        0.0310
      9 C           0.4252    1.6913   22.0120 C.ar    1  UNL1        0.0113
     10 C           0.1928    2.1661   20.6082 C.ar    1  UNL1        0.0560
     11 N           3.8431   -1.5524   19.1597 N.3     1  UNL1       -0.2698
     12 C           4.0931   -0.2651   18.4314 C.3     1  UNL1        0.0939
     13 C           3.0718    0.8326   18.4764 C.3     1  UNL1        0.1095
     14 N           1.8006    0.6431   19.2497 N.pl3   1  UNL1       -0.2903
     15 C           1.5507   -0.6443   19.9781 C.3     1  UNL1        0.1095
     16 C           2.5719   -1.7419   19.9331 C.3     1  UNL1        0.0939
     17 C           4.4257   -4.0771   18.9684 C.3     1  UNL1        0.0188
     18 C           4.8644   -2.6501   19.1147 C.3     1  UNL1        0.0722
     19 C          -0.5401    2.3530   24.4152 C.ar    1  UNL1        0.0060
     20 C          -1.5597    3.1388   25.1852 C.ar    1  UNL1        0.0005
     21 C          -1.6472    2.9961   26.6759 C.ar    1  UNL1        0.0000
     22 C          -0.7151    2.0678   27.3965 C.ar    1  UNL1        0.0000
     23 C           0.3045    1.2820   26.6265 C.ar    1  UNL1        0.0000
     24 C           0.3920    1.4247   25.1358 C.ar    1  UNL1        0.0005
@<TRIPOS>BOND
     1    17    18    1
     2    18    11    1
     3    11    12    1
     4    12    13    1
     5    13    14    1
     6    14     1    1
     7     1     2   ar
     8     2     3   ar
     9     3     4    1
    10     3     5   ar
    11     5     6   ar
    12     6     7   ar
    13     7     8   ar
    14     8    19    1
    15    19    20   ar
    16    20    21   ar
    17    21    22   ar
    18    22    23   ar
    19    23    24   ar
    20     8     9   ar
    21     9    10   ar
    22    14    15    1
    23    15    16    1
    24    16    11    1
    25    10     1   ar
    26    10     6   ar
    27    24    19   ar
