@<TRIPOS>MOLECULE
*****
 37 42 0 0 0
SMALL
GASTEIGER

@<TRIPOS>ATOM
      1 N           0.2288    3.2152   22.4172 N.pl3   1  UNL1       -0.2824
      2 H           0.3832    4.1127   22.0431 H       1  UNL1        0.1551
      3 C           2.7292    0.4288   21.1005 C.ar    1  UNL1        0.1397
      4 C           1.8036   -0.4161   20.2764 C.ar    1  UNL1        0.0554
      5 C           0.3531   -0.0507   20.1658 C.ar    1  UNL1        0.1047
      6 N          -0.1719    1.1598   20.8794 N.ar    1  UNL1       -0.2119
      7 C           0.7537    2.0048   21.7036 C.ar    1  UNL1        0.2218
      8 N           2.2044    1.6393   21.8142 N.ar    1  UNL1       -0.1983
      9 C           5.1436    1.0081   21.8657 C.3     1  UNL1        0.1184
     10 N           4.1799    0.0633   21.2111 N.pl3   1  UNL1       -0.2734
     11 C           4.6667   -1.2471   20.6671 C.2     1  UNL1        0.0411
     12 C           4.4105   -2.5157   21.4254 C.2     1  UNL1        0.0112
     13 C           4.8973   -3.8259   20.8814 C.2     1  UNL1        0.0023
     14 C           5.6405   -3.8678   19.5790 C.2     1  UNL1        0.0173
     15 C           5.8967   -2.5992   18.8207 C.2     1  UNL1        0.0912
     16 N           6.5959   -2.3305   17.5212 N.2     1  UNL1       -0.1519
     17 N           6.5412   -0.8541   17.2620 N.2     1  UNL1       -0.1507
     18 C           5.8082   -0.2103   18.4014 C.2     1  UNL1        0.1070
     19 C           5.4099   -1.2888   19.3648 C.3     1  UNL1        0.1210
     20 C          -0.5315    3.0583   23.7006 C.ar    1  UNL1        0.0529
     21 C           0.0419    2.2357   24.8162 C.ar    1  UNL1        0.0293
     22 C          -0.7184    2.0787   26.0996 C.ar    1  UNL1        0.0505
     23 C          -2.0521    2.7444   26.2675 C.ar    1  UNL1        0.0291
     24 C          -2.6255    3.5670   25.1520 C.ar    1  UNL1        0.0505
     25 C          -1.8652    3.7240   23.8685 C.ar    1  UNL1        0.0293
     26 N          -0.1450    1.2561   27.2153 N.pl3   1  UNL1       -0.3027
     27 C           1.3370    1.0423   27.3043 C.3     1  UNL1        0.1231
     28 C           1.9104    0.2197   28.4199 C.3     1  UNL1        0.1636
     29 O           1.0018   -0.3891   29.4465 O.3     1  UNL1       -0.3501
     30 C          -0.4803   -0.1753   29.3574 C.3     1  UNL1        0.1636
     31 C          -1.0536    0.6473   28.2418 C.3     1  UNL1        0.1231
     32 N          -3.9592    4.2326   25.3199 N.pl3   1  UNL1       -0.3027
     33 C          -4.9375    4.2492   24.1830 C.3     1  UNL1        0.1231
     34 C          -6.2713    4.9149   24.3510 C.3     1  UNL1        0.1636
     35 O          -6.6265    5.5639   25.6557 O.3     1  UNL1       -0.3501
     36 C          -5.6481    5.5474   26.7926 C.3     1  UNL1        0.1636
     37 C          -4.3145    4.8818   26.6247 C.3     1  UNL1        0.1231
@<TRIPOS>BOND
     1     9    10    1
     2    10     3    1
     3     3     4   ar
     4     4     5   ar
     5     5     6   ar
     6     6     7   ar
     7     7     1    1
     8     1    20    1
     9    20    21   ar
    10    21    22   ar
    11    22    26    1
    12    26    27    1
    13    27    28    1
    14    28    29    1
    15    29    30    1
    16    30    31    1
    17    22    23   ar
    18    23    24   ar
    19    24    32    1
    20    32    33    1
    21    33    34    1
    22    34    35    1
    23    35    36    1
    24    36    37    1
    25    24    25   ar
    26     7     8   ar
    27    10    11    1
    28    11    12    2
    29    12    13    1
    30    13    14    2
    31    14    15    1
    32    15    16    2
    33    16    17    1
    34    17    18    2
    35    18    19    1
    36     8     3   ar
    37    19    11    1
    38    25    20   ar
    39    19    15    1
    40    31    26    1
    41    37    32    1
    42     1     2    1
@<TRIPOS>MOLECULE
*****
 37 42 0 0 0
SMALL
GASTEIGER

@<TRIPOS>ATOM
      1 N           0.2376    3.2473   22.4347 N.pl3   1  UNL1       -0.2824
      2 H           0.3929    4.1475   22.0675 H       1  UNL1        0.1551
      3 C           2.7414    0.4808   21.0830 C.ar    1  UNL1        0.1397
      4 C           1.8120   -0.3689   20.2682 C.ar    1  UNL1        0.0554
      5 C           0.3577   -0.0133   20.1756 C.ar    1  UNL1        0.1047
      6 N          -0.1671    1.1921   20.8978 N.ar    1  UNL1       -0.2119
      7 C           0.7624    2.0419   21.7126 C.ar    1  UNL1        0.2218
      8 N           2.2168    1.6863   21.8052 N.ar    1  UNL1       -0.1983
      9 C           5.1647    1.0860   21.7985 C.3     1  UNL1        0.1184
     10 N           4.1958    0.1252   21.1756 N.pl3   1  UNL1       -0.2734
     11 C           4.6812   -1.1914   20.6454 C.2     1  UNL1        0.0411
     12 C           4.4203   -2.4521   21.4151 C.2     1  UNL1        0.0112
     13 C           4.9056   -3.7686   20.8849 C.2     1  UNL1        0.0023
     14 C           5.6520   -3.8244   19.5849 C.2     1  UNL1        0.0173
     15 C           5.9129   -2.5637   18.8152 C.2     1  UNL1        0.0912
     16 N           6.6159   -2.3090   17.5149 N.2     1  UNL1       -0.1519
     17 N           6.5651   -0.8350   17.2415 N.2     1  UNL1       -0.1507
     18 C           5.8306   -0.1787   18.3728 C.2     1  UNL1        0.1070
     19 C           5.4275   -1.2472   19.3454 C.3     1  UNL1        0.1210
     20 C          -0.5238    3.0813   23.7164 C.ar    1  UNL1        0.0529
     21 C          -1.8633    3.7352   23.8831 C.ar    1  UNL1        0.0293
     22 C          -2.6247    3.5691   25.1648 C.ar    1  UNL1        0.0505
     23 C          -2.0465    2.7490   26.2797 C.ar    1  UNL1        0.0291
     24 C          -0.7069    2.0950   26.1130 C.ar    1  UNL1        0.0505
     25 C           0.0545    2.2611   24.8314 C.ar    1  UNL1        0.0293
     26 N          -3.9643    4.2231   25.3316 N.pl3   1  UNL1       -0.3027
     27 C          -4.2897    4.9530   26.6010 C.3     1  UNL1        0.1231
     28 C          -5.6292    5.6070   26.7679 C.3     1  UNL1        0.1636
     29 O          -6.6435    5.5311   25.6654 O.3     1  UNL1       -0.3501
     30 C          -6.3180    4.8012   24.3959 C.3     1  UNL1        0.1636
     31 C          -4.9786    4.1472   24.2291 C.3     1  UNL1        0.1231
     32 N          -0.1287    1.2749   27.2280 N.pl3   1  UNL1       -0.3027
     33 C          -1.0382    0.5835   28.2000 C.3     1  UNL1        0.1231
     34 C          -0.4599   -0.2366   29.3150 C.3     1  UNL1        0.1636
     35 O           1.0277   -0.3653   29.4579 O.3     1  UNL1       -0.3501
     36 C           1.9371    0.3261   28.4858 C.3     1  UNL1        0.1636
     37 C           1.3589    1.1462   27.3709 C.3     1  UNL1        0.1231
@<TRIPOS>BOND
     1     9    10    1
     2    10     3    1
     3     3     4   ar
     4     4     5   ar
     5     5     6   ar
     6     6     7   ar
     7     7     1    1
     8     1    20    1
     9    20    21   ar
    10    21    22   ar
    11    22    26    1
    12    26    27    1
    13    27    28    1
    14    28    29    1
    15    29    30    1
    16    30    31    1
    17    22    23   ar
    18    23    24   ar
    19    24    32    1
    20    32    33    1
    21    33    34    1
    22    34    35    1
    23    35    36    1
    24    36    37    1
    25    24    25   ar
    26     7     8   ar
    27    10    11    1
    28    11    12    2
    29    12    13    1
    30    13    14    2
    31    14    15    1
    32    15    16    2
    33    16    17    1
    34    17    18    2
    35    18    19    1
    36     8     3   ar
    37    19    11    1
    38    25    20   ar
    39    19    15    1
    40    31    26    1
    41    37    32    1
    42     1     2    1
@<TRIPOS>MOLECULE
*****
 37 42 0 0 0
SMALL
GASTEIGER

@<TRIPOS>ATOM
      1 N           1.5643    3.8061   22.9119 N.pl3   1  UNL1       -0.2824
      2 H           1.6219    4.7510   22.6414 H       1  UNL1        0.1551
      3 C           3.1775    0.9935   20.6235 C.ar    1  UNL1        0.1397
      4 C           4.5104    0.8172   21.2883 C.ar    1  UNL1        0.0554
      5 C           4.8614    1.6371   22.4944 C.ar    1  UNL1        0.1047
      6 N           3.8793    2.6334   23.0356 N.ar    1  UNL1       -0.2119
      7 C           2.5463    2.8098   22.3707 C.ar    1  UNL1        0.2218
      8 N           2.1954    1.9898   21.1646 N.ar    1  UNL1       -0.1983
      9 C           1.7743    0.6554   18.4632 C.3     1  UNL1        0.1184
     10 N           2.8266    0.1735   19.4174 N.pl3   1  UNL1       -0.2734
     11 C           3.5279   -1.1283   19.1656 C.2     1  UNL1        0.0411
     12 C           2.9392   -2.4089   19.6789 C.2     1  UNL1        0.0112
     13 C           3.6404   -3.7107   19.4272 C.2     1  UNL1        0.0023
     14 C           4.9305   -3.7320   18.6621 C.2     1  UNL1        0.0173
     15 C           5.5192   -2.4514   18.1488 C.2     1  UNL1        0.0912
     16 N           6.7675   -2.1622   17.3690 N.2     1  UNL1       -0.1519
     17 N           6.8377   -0.6817   17.1389 N.2     1  UNL1       -0.1507
     18 C           5.6328   -0.0558   17.7764 C.2     1  UNL1        0.1070
     19 C           4.8179   -1.1495   18.4005 C.3     1  UNL1        0.1210
     20 C           0.4945    3.3629   23.8654 C.ar    1  UNL1        0.0529
     21 C          -0.9411    3.7000   23.5913 C.ar    1  UNL1        0.0293
     22 C          -2.0109    3.2568   24.5447 C.ar    1  UNL1        0.0505
     23 C          -1.6449    2.4763   25.7723 C.ar    1  UNL1        0.0291
     24 C          -0.2093    2.1391   26.0465 C.ar    1  UNL1        0.0505
     25 C           0.8605    2.5824   25.0930 C.ar    1  UNL1        0.0293
     26 N          -3.4466    3.5939   24.2707 N.pl3   1  UNL1       -0.3027
     27 C          -4.3581    3.9681   25.4017 C.3     1  UNL1        0.1231
     28 C          -5.7938    4.3052   25.1277 C.3     1  UNL1        0.1636
     29 O          -6.3180    4.2683   23.7228 O.3     1  UNL1       -0.3501
     30 C          -5.4064    3.8941   22.5918 C.3     1  UNL1        0.1636
     31 C          -3.9708    3.5570   22.8658 C.3     1  UNL1        0.1231
     32 N           0.1566    1.3587   27.2741 N.pl3   1  UNL1       -0.3027
     33 C           1.5779    1.3374   27.7533 C.3     1  UNL1        0.1231
     34 C           1.9437    0.5569   28.9809 C.3     1  UNL1        0.1636
     35 O           0.8884   -0.2022   29.7292 O.3     1  UNL1       -0.3501
     36 C          -0.5328   -0.1809   29.2500 C.3     1  UNL1        0.1636
     37 C          -0.8987    0.5995   28.0224 C.3     1  UNL1        0.1231
@<TRIPOS>BOND
     1     9    10    1
     2    10     3    1
     3     3     4   ar
     4     4     5   ar
     5     5     6   ar
     6     6     7   ar
     7     7     1    1
     8     1    20    1
     9    20    21   ar
    10    21    22   ar
    11    22    26    1
    12    26    27    1
    13    27    28    1
    14    28    29    1
    15    29    30    1
    16    30    31    1
    17    22    23   ar
    18    23    24   ar
    19    24    32    1
    20    32    33    1
    21    33    34    1
    22    34    35    1
    23    35    36    1
    24    36    37    1
    25    24    25   ar
    26     7     8   ar
    27    10    11    1
    28    11    12    2
    29    12    13    1
    30    13    14    2
    31    14    15    1
    32    15    16    2
    33    16    17    1
    34    17    18    2
    35    18    19    1
    36     8     3   ar
    37    19    11    1
    38    25    20   ar
    39    19    15    1
    40    31    26    1
    41    37    32    1
    42     1     2    1
@<TRIPOS>MOLECULE
*****
 37 42 0 0 0
SMALL
GASTEIGER

@<TRIPOS>ATOM
      1 N           5.1732    0.8996   35.9527 N.pl3   1  UNL1       -0.2824
      2 H           5.9942    0.7732   36.4812 H       1  UNL1        0.1551
      3 C           2.6614    3.9384   36.4077 C.ar    1  UNL1        0.1397
      4 C           1.8334    3.4517   37.5597 C.ar    1  UNL1        0.0554
      5 C           2.1185    2.1143   38.1762 C.ar    1  UNL1        0.1047
      6 N           3.2318    1.2636   37.6405 N.ar    1  UNL1       -0.2119
      7 C           4.0599    1.7503   36.4884 C.ar    1  UNL1        0.2218
      8 N           3.7747    3.0878   35.8719 N.ar    1  UNL1       -0.1983
      9 C           3.3332    6.4135   35.9916 C.3     1  UNL1        0.1184
     10 N           2.3763    5.2759   35.7912 N.pl3   1  UNL1       -0.2734
     11 C           1.1342    5.4757   34.9743 C.2     1  UNL1        0.0411
     12 C           1.0618    4.9382   33.5758 C.2     1  UNL1        0.0112
     13 C          -0.1802    5.1380   32.7589 C.2     1  UNL1        0.0023
     14 C          -1.3500    5.8753   33.3405 C.2     1  UNL1        0.0173
     15 C          -1.2776    6.4127   34.7390 C.2     1  UNL1        0.0912
     16 N          -2.2639    7.1744   35.5738 N.2     1  UNL1       -0.1519
     17 N          -1.6314    7.4454   36.9067 N.2     1  UNL1       -0.1507
     18 C          -0.2542    6.8511   36.8956 C.2     1  UNL1        0.1070
     19 C          -0.0355    6.2129   35.5559 C.3     1  UNL1        0.1210
     20 C           5.0356    0.2415   34.6119 C.ar    1  UNL1        0.0529
     21 C           3.9043    0.6206   33.7029 C.ar    1  UNL1        0.0293
     22 C           3.7667   -0.0376   32.3620 C.ar    1  UNL1        0.0505
     23 C           4.7605   -1.0749   31.9302 C.ar    1  UNL1        0.0291
     24 C           5.8918   -1.4540   32.8393 C.ar    1  UNL1        0.0505
     25 C           6.0294   -0.7959   34.1801 C.ar    1  UNL1        0.0293
     26 N           2.6354    0.3415   31.4529 N.pl3   1  UNL1       -0.3027
     27 C           1.8229    1.5695   31.7387 C.3     1  UNL1        0.1231
     28 C           0.6916    1.9487   30.8297 C.3     1  UNL1        0.1636
     29 O           0.3728    1.0998   29.6348 O.3     1  UNL1       -0.3501
     30 C           1.1853   -0.1283   29.3491 C.3     1  UNL1        0.1636
     31 C           2.3166   -0.5074   30.2581 C.3     1  UNL1        0.1231
     32 N           6.8856   -2.4913   32.4074 N.pl3   1  UNL1       -0.3027
     33 C           6.4111   -3.7737   31.7909 C.3     1  UNL1        0.1231
     34 C           7.4049   -4.8110   31.3591 C.3     1  UNL1        0.1636
     35 O           8.8731   -4.5659   31.5438 O.3     1  UNL1       -0.3501
     36 C           9.3476   -3.2835   32.1604 C.3     1  UNL1        0.1636
     37 C           8.3539   -2.2462   32.5922 C.3     1  UNL1        0.1231
@<TRIPOS>BOND
     1     9    10    1
     2    10     3    1
     3     3     4   ar
     4     4     5   ar
     5     5     6   ar
     6     6     7   ar
     7     7     1    1
     8     1    20    1
     9    20    21   ar
    10    21    22   ar
    11    22    26    1
    12    26    27    1
    13    27    28    1
    14    28    29    1
    15    29    30    1
    16    30    31    1
    17    22    23   ar
    18    23    24   ar
    19    24    32    1
    20    32    33    1
    21    33    34    1
    22    34    35    1
    23    35    36    1
    24    36    37    1
    25    24    25   ar
    26     7     8   ar
    27    10    11    1
    28    11    12    2
    29    12    13    1
    30    13    14    2
    31    14    15    1
    32    15    16    2
    33    16    17    1
    34    17    18    2
    35    18    19    1
    36     8     3   ar
    37    19    11    1
    38    25    20   ar
    39    19    15    1
    40    31    26    1
    41    37    32    1
    42     1     2    1
@<TRIPOS>MOLECULE
*****
 37 42 0 0 0
SMALL
GASTEIGER

@<TRIPOS>ATOM
      1 N           1.4947    2.9502   23.2050 N.pl3   1  UNL1       -0.2824
      2 H           2.1156    3.7115   23.1411 H       1  UNL1        0.1551
      3 C           2.7241    0.4375   20.3899 C.ar    1  UNL1        0.1397
      4 C           1.4210   -0.1714   19.9647 C.ar    1  UNL1        0.0554
      5 C           0.1424    0.2601   20.6195 C.ar    1  UNL1        0.1047
      6 N           0.1669    1.3007   21.6996 N.ar    1  UNL1       -0.2119
      7 C           1.4701    1.9096   22.1249 C.ar    1  UNL1        0.2218
      8 N           2.7488    1.4780   21.4701 N.ar    1  UNL1       -0.1983
      9 C           4.9329    1.0311   19.1574 C.3     1  UNL1        0.1184
     10 N           4.0029    0.0058   19.7351 N.pl3   1  UNL1       -0.2734
     11 C           4.3514   -1.4511   19.6579 C.2     1  UNL1        0.0411
     12 C           4.6286   -2.0865   18.3277 C.2     1  UNL1        0.0112
     13 C           4.9771   -3.5433   18.2505 C.2     1  UNL1        0.0023
     14 C           5.0485   -4.3649   19.5036 C.2     1  UNL1        0.0173
     15 C           4.7713   -3.7295   20.8337 C.2     1  UNL1        0.0912
     16 N           4.7660   -4.2819   22.2283 N.2     1  UNL1       -0.1519
     17 N           4.4142   -3.1664   23.1674 N.2     1  UNL1       -0.1507
     18 C           4.2020   -1.9245   22.3532 C.2     1  UNL1        0.1070
     19 C           4.4228   -2.2726   20.9109 C.3     1  UNL1        0.1210
     20 C           0.5732    2.8307   24.3826 C.ar    1  UNL1        0.0529
     21 C          -0.8511    3.2870   24.2697 C.ar    1  UNL1        0.0293
     22 C          -1.7726    3.1675   25.4472 C.ar    1  UNL1        0.0505
     23 C          -1.2696    2.5917   26.7377 C.ar    1  UNL1        0.0291
     24 C           0.1549    2.1354   26.8507 C.ar    1  UNL1        0.0505
     25 C           1.0763    2.2549   25.6731 C.ar    1  UNL1        0.0293
     26 N          -3.1971    3.6238   25.3343 N.pl3   1  UNL1       -0.3027
     27 C          -3.9453    3.4351   24.0480 C.3     1  UNL1        0.1231
     28 C          -5.3697    3.8914   23.9350 C.3     1  UNL1        0.1636
     29 O          -6.0460    4.5363   25.1084 O.3     1  UNL1       -0.3501
     30 C          -5.2977    4.7249   26.3947 C.3     1  UNL1        0.1636
     31 C          -3.8733    4.2687   26.5077 C.3     1  UNL1        0.1231
     32 N           0.6579    1.5596   28.1412 N.pl3   1  UNL1       -0.3027
     33 C           1.3154    0.2115   28.1552 C.3     1  UNL1        0.1231
     34 C           1.8184   -0.3642   29.4458 C.3     1  UNL1        0.1636
     35 O           1.6639    0.4081   30.7222 O.3     1  UNL1       -0.3501
     36 C           1.0063    1.7562   30.7083 C.3     1  UNL1        0.1636
     37 C           0.5033    2.3320   29.4178 C.3     1  UNL1        0.1231
@<TRIPOS>BOND
     1     9    10    1
     2    10     3    1
     3     3     4   ar
     4     4     5   ar
     5     5     6   ar
     6     6     7   ar
     7     7     1    1
     8     1    20    1
     9    20    21   ar
    10    21    22   ar
    11    22    26    1
    12    26    27    1
    13    27    28    1
    14    28    29    1
    15    29    30    1
    16    30    31    1
    17    22    23   ar
    18    23    24   ar
    19    24    32    1
    20    32    33    1
    21    33    34    1
    22    34    35    1
    23    35    36    1
    24    36    37    1
    25    24    25   ar
    26     7     8   ar
    27    10    11    1
    28    11    12    2
    29    12    13    1
    30    13    14    2
    31    14    15    1
    32    15    16    2
    33    16    17    1
    34    17    18    2
    35    18    19    1
    36     8     3   ar
    37    19    11    1
    38    25    20   ar
    39    19    15    1
    40    31    26    1
    41    37    32    1
    42     1     2    1
@<TRIPOS>MOLECULE
*****
 37 42 0 0 0
SMALL
GASTEIGER

@<TRIPOS>ATOM
      1 N           0.9541    3.2739   22.6854 N.pl3   1  UNL1       -0.2824
      2 H           1.4936    4.0909   22.5818 H       1  UNL1        0.1551
      3 C           2.7486    0.5855   20.3829 C.ar    1  UNL1        0.1397
      4 C           1.5686   -0.1980   19.8895 C.ar    1  UNL1        0.0554
      5 C           0.1837    0.1757   20.3280 C.ar    1  UNL1        0.1047
      6 N          -0.0211    1.3330   21.2600 N.ar    1  UNL1       -0.2119
      7 C           1.1589    2.1166   21.7535 C.ar    1  UNL1        0.2218
      8 N           2.5439    1.7428   21.3149 N.ar    1  UNL1       -0.1983
      9 C           5.1508    1.2817   19.6794 C.3     1  UNL1        0.1184
     10 N           4.1336    0.2117   19.9443 N.pl3   1  UNL1       -0.2734
     11 C           4.5012   -1.2322   19.7706 C.2     1  UNL1        0.0411
     12 C           4.8435   -1.7604   18.4091 C.2     1  UNL1        0.0112
     13 C           5.2111   -3.2042   18.2354 C.2     1  UNL1        0.0023
     14 C           5.2365   -4.1199   19.4233 C.2     1  UNL1        0.0173
     15 C           4.8943   -3.5916   20.7848 C.2     1  UNL1        0.0912
     16 N           4.8339   -4.2505   22.1310 N.2     1  UNL1       -0.1519
     17 N           4.4289   -3.2139   23.1367 N.2     1  UNL1       -0.1507
     18 C           4.2390   -1.9143   22.4120 C.2     1  UNL1        0.1070
     19 C           4.5266   -2.1478   20.9585 C.3     1  UNL1        0.1210
     20 C          -0.0728    3.1865   23.7754 C.ar    1  UNL1        0.0529
     21 C           0.2987    2.6157   25.1117 C.ar    1  UNL1        0.0293
     22 C          -0.7282    2.5283   26.2016 C.ar    1  UNL1        0.0505
     23 C          -2.1265    3.0117   25.9551 C.ar    1  UNL1        0.0291
     24 C          -2.4981    3.5825   24.6186 C.ar    1  UNL1        0.0505
     25 C          -1.4712    3.6700   23.5287 C.ar    1  UNL1        0.0293
     26 N          -0.3567    1.9575   27.5382 N.pl3   1  UNL1       -0.3027
     27 C          -0.6192    0.5108   27.8349 C.3     1  UNL1        0.1231
     28 C          -0.2477   -0.0601   29.1714 C.3     1  UNL1        0.1636
     29 O           0.3861    0.8157   30.2111 O.3     1  UNL1       -0.3501
     30 C           0.6486    2.2625   29.9143 C.3     1  UNL1        0.1636
     31 C           0.2772    2.8333   28.5779 C.3     1  UNL1        0.1231
     32 N          -3.8965    4.0660   24.3721 N.pl3   1  UNL1       -0.3027
     33 C          -4.7405    3.4136   23.3175 C.3     1  UNL1        0.1231
     34 C          -6.1390    3.8971   23.0710 C.3     1  UNL1        0.1636
     35 O          -6.6932    5.0328   23.8789 O.3     1  UNL1       -0.3501
     36 C          -5.8492    5.6851   24.9335 C.3     1  UNL1        0.1636
     37 C          -4.4508    5.2017   25.1800 C.3     1  UNL1        0.1231
@<TRIPOS>BOND
     1     9    10    1
     2    10     3    1
     3     3     4   ar
     4     4     5   ar
     5     5     6   ar
     6     6     7   ar
     7     7     1    1
     8     1    20    1
     9    20    21   ar
    10    21    22   ar
    11    22    26    1
    12    26    27    1
    13    27    28    1
    14    28    29    1
    15    29    30    1
    16    30    31    1
    17    22    23   ar
    18    23    24   ar
    19    24    32    1
    20    32    33    1
    21    33    34    1
    22    34    35    1
    23    35    36    1
    24    36    37    1
    25    24    25   ar
    26     7     8   ar
    27    10    11    1
    28    11    12    2
    29    12    13    1
    30    13    14    2
    31    14    15    1
    32    15    16    2
    33    16    17    1
    34    17    18    2
    35    18    19    1
    36     8     3   ar
    37    19    11    1
    38    25    20   ar
    39    19    15    1
    40    31    26    1
    41    37    32    1
    42     1     2    1
@<TRIPOS>MOLECULE
*****
 37 42 0 0 0
SMALL
GASTEIGER

@<TRIPOS>ATOM
      1 N           1.2873    3.0313   23.2009 N.pl3   1  UNL1       -0.2824
      2 H           1.8211    3.6901   23.7013 H       1  UNL1        0.1551
      3 C           2.5805   -0.0546   21.0666 C.ar    1  UNL1        0.1397
      4 C           3.0585   -0.9707   22.1538 C.ar    1  UNL1        0.0554
      5 C           2.9462   -0.5529   23.5900 C.ar    1  UNL1        0.1047
      6 N           2.3558    0.7811   23.9391 N.ar    1  UNL1       -0.2119
      7 C           1.8777    1.6973   22.8519 C.ar    1  UNL1        0.2218
      8 N           1.9901    1.2795   21.4155 N.ar    1  UNL1       -0.1983
      9 C           1.9926    0.3155   18.5630 C.3     1  UNL1        0.1184
     10 N           2.6929   -0.4724   19.6303 N.pl3   1  UNL1       -0.2734
     11 C           3.5054   -1.6780   19.2613 C.2     1  UNL1        0.0411
     12 C           3.0359   -3.0476   19.6534 C.2     1  UNL1        0.0112
     13 C           3.8484   -4.2532   19.2845 C.2     1  UNL1        0.0023
     14 C           5.1306   -4.0893   18.5232 C.2     1  UNL1        0.0173
     15 C           5.6001   -2.7197   18.1311 C.2     1  UNL1        0.0912
     16 N           6.8129   -2.2503   17.3837 N.2     1  UNL1       -0.1519
     17 N           6.7500   -0.7545   17.2908 N.2     1  UNL1       -0.1507
     18 C           5.4982   -0.2995   17.9808 C.2     1  UNL1        0.1070
     19 C           4.7875   -1.5141   18.5001 C.3     1  UNL1        0.1210
     20 C          -0.1163    3.3615   22.7876 C.ar    1  UNL1        0.0529
     21 C          -1.1587    3.6412   23.8292 C.ar    1  UNL1        0.0293
     22 C          -2.5623    3.9714   23.4158 C.ar    1  UNL1        0.0505
     23 C          -2.9234    4.0220   21.9609 C.ar    1  UNL1        0.0291
     24 C          -1.8809    3.7424   20.9192 C.ar    1  UNL1        0.0505
     25 C          -0.4773    3.4121   21.3325 C.ar    1  UNL1        0.0293
     26 N          -3.6048    4.2511   24.4575 N.pl3   1  UNL1       -0.3027
     27 C          -3.2405    4.2140   25.9121 C.3     1  UNL1        0.1231
     28 C          -4.2830    4.4936   26.9537 C.3     1  UNL1        0.1636
     29 O          -5.6898    4.8103   26.5408 O.3     1  UNL1       -0.3501
     30 C          -6.0541    4.8474   25.0861 C.3     1  UNL1        0.1636
     31 C          -5.0116    4.5678   24.0445 C.3     1  UNL1        0.1231
     32 N          -2.2420    3.7930   19.4642 N.pl3   1  UNL1       -0.3027
     33 C          -1.1618    3.8328   18.4243 C.3     1  UNL1        0.1231
     34 C          -1.5230    3.8834   16.9692 C.3     1  UNL1        0.1636
     35 O          -2.9643    3.8942   16.5542 O.3     1  UNL1       -0.3501
     36 C          -4.0445    3.8543   17.5941 C.3     1  UNL1        0.1636
     37 C          -3.6834    3.8037   19.0491 C.3     1  UNL1        0.1231
@<TRIPOS>BOND
     1     9    10    1
     2    10     3    1
     3     3     4   ar
     4     4     5   ar
     5     5     6   ar
     6     6     7   ar
     7     7     1    1
     8     1    20    1
     9    20    21   ar
    10    21    22   ar
    11    22    26    1
    12    26    27    1
    13    27    28    1
    14    28    29    1
    15    29    30    1
    16    30    31    1
    17    22    23   ar
    18    23    24   ar
    19    24    32    1
    20    32    33    1
    21    33    34    1
    22    34    35    1
    23    35    36    1
    24    36    37    1
    25    24    25   ar
    26     7     8   ar
    27    10    11    1
    28    11    12    2
    29    12    13    1
    30    13    14    2
    31    14    15    1
    32    15    16    2
    33    16    17    1
    34    17    18    2
    35    18    19    1
    36     8     3   ar
    37    19    11    1
    38    25    20   ar
    39    19    15    1
    40    31    26    1
    41    37    32    1
    42     1     2    1
@<TRIPOS>MOLECULE
*****
 37 42 0 0 0
SMALL
GASTEIGER

@<TRIPOS>ATOM
      1 N           0.0801    3.7342   32.6532 N.pl3   1  UNL1       -0.2824
      2 H          -0.9027    3.7088   32.7050 H       1  UNL1        0.1551
      3 C           2.2570    5.4886   35.4698 C.ar    1  UNL1        0.1397
      4 C           2.3721    6.8774   34.9151 C.ar    1  UNL1        0.0554
      5 C           1.7233    7.2186   33.6065 C.ar    1  UNL1        0.1047
      6 N           0.9593    6.1708   32.8525 N.ar    1  UNL1       -0.2119
      7 C           0.8441    4.7819   33.4072 C.ar    1  UNL1        0.2218
      8 N           1.4930    4.4407   34.7159 N.ar    1  UNL1       -0.1983
      9 C           3.2453    6.2355   37.7536 C.3     1  UNL1        0.1184
     10 N           2.9058    5.1474   36.7785 N.pl3   1  UNL1       -0.2734
     11 C           3.2153    3.7180   37.1121 C.2     1  UNL1        0.0411
     12 C           4.5360    3.1253   36.7196 C.2     1  UNL1        0.0112
     13 C           4.8455    1.6960   37.0531 C.2     1  UNL1        0.0023
     14 C           3.8341    0.8594   37.7793 C.2     1  UNL1        0.0173
     15 C           2.5133    1.4522   38.1719 C.2     1  UNL1        0.0912
     16 N           1.3284    0.8766   38.8893 N.2     1  UNL1       -0.1519
     17 N           0.2867    1.9502   38.9991 N.2     1  UNL1       -0.1507
     18 C           0.8277    3.1893   38.3495 C.2     1  UNL1        0.1070
     19 C           2.2039    2.8815   37.8383 C.3     1  UNL1        0.1210
     20 C           0.8135    2.7251   31.8202 C.ar    1  UNL1        0.0529
     21 C           0.5601    2.6447   30.3440 C.ar    1  UNL1        0.0293
     22 C           1.2936    1.6356   29.5111 C.ar    1  UNL1        0.0505
     23 C           2.2804    0.7069   30.1544 C.ar    1  UNL1        0.0291
     24 C           2.5338    0.7874   31.6306 C.ar    1  UNL1        0.0505
     25 C           1.8003    1.7965   32.4636 C.ar    1  UNL1        0.0293
     26 N           1.0402    1.5551   28.0348 N.pl3   1  UNL1       -0.3027
     27 C          -0.3159    1.8885   27.4873 C.3     1  UNL1        0.1231
     28 C          -0.5693    1.8080   26.0111 C.3     1  UNL1        0.1636
     29 O           0.5334    1.3941   25.0823 O.3     1  UNL1       -0.3501
     30 C           1.8896    1.0606   25.6298 C.3     1  UNL1        0.1636
     31 C           2.1429    1.1411   27.1060 C.3     1  UNL1        0.1231
     32 N           3.5206   -0.1412   32.2739 N.pl3   1  UNL1       -0.3027
     33 C           3.9087    0.0543   33.7096 C.3     1  UNL1        0.1231
     34 C           4.8956   -0.8744   34.3528 C.3     1  UNL1        0.1636
     35 O           5.4942   -1.9985   33.5605 O.3     1  UNL1       -0.3501
     36 C           5.1060   -2.1941   32.1249 C.3     1  UNL1        0.1636
     37 C           4.1192   -1.2654   31.4816 C.3     1  UNL1        0.1231
@<TRIPOS>BOND
     1     9    10    1
     2    10     3    1
     3     3     4   ar
     4     4     5   ar
     5     5     6   ar
     6     6     7   ar
     7     7     1    1
     8     1    20    1
     9    20    21   ar
    10    21    22   ar
    11    22    26    1
    12    26    27    1
    13    27    28    1
    14    28    29    1
    15    29    30    1
    16    30    31    1
    17    22    23   ar
    18    23    24   ar
    19    24    32    1
    20    32    33    1
    21    33    34    1
    22    34    35    1
    23    35    36    1
    24    36    37    1
    25    24    25   ar
    26     7     8   ar
    27    10    11    1
    28    11    12    2
    29    12    13    1
    30    13    14    2
    31    14    15    1
    32    15    16    2
    33    16    17    1
    34    17    18    2
    35    18    19    1
    36     8     3   ar
    37    19    11    1
    38    25    20   ar
    39    19    15    1
    40    31    26    1
    41    37    32    1
    42     1     2    1
@<TRIPOS>MOLECULE
*****
 37 42 0 0 0
SMALL
GASTEIGER

@<TRIPOS>ATOM
      1 N           0.1147    3.6002   32.5938 N.pl3   1  UNL1       -0.2824
      2 H          -0.8676    3.5628   32.6468 H       1  UNL1        0.1551
      3 C           2.2463    5.3450   35.4507 C.ar    1  UNL1        0.1397
      4 C           2.3747    6.7343   34.9002 C.ar    1  UNL1        0.0554
      5 C           1.7498    7.0790   33.5809 C.ar    1  UNL1        0.1047
      6 N           0.9964    6.0343   32.8121 N.ar    1  UNL1       -0.2119
      7 C           0.8681    4.6449   33.3626 C.ar    1  UNL1        0.2218
      8 N           1.4930    4.3002   34.6820 N.ar    1  UNL1       -0.1983
      9 C           3.1616    6.0820   37.7679 C.3     1  UNL1        0.1184
     10 N           2.8713    5.0003   36.7701 N.pl3   1  UNL1       -0.2734
     11 C           3.2060    3.5739   37.0916 C.2     1  UNL1        0.0411
     12 C           4.5012    2.9827   36.6196 C.2     1  UNL1        0.0112
     13 C           4.8359    1.5564   36.9410 C.2     1  UNL1        0.0023
     14 C           3.8754    0.7210   37.7346 C.2     1  UNL1        0.0173
     15 C           2.5801    1.3122   38.2066 C.2     1  UNL1        0.0912
     16 N           1.4449    0.7374   39.0009 N.2     1  UNL1       -0.1519
     17 N           0.4086    1.8086   39.1703 N.2     1  UNL1       -0.1507
     18 C           0.9034    3.0454   38.4807 C.2     1  UNL1        0.1070
     19 C           2.2454    2.7386   37.8851 C.3     1  UNL1        0.1210
     20 C           0.8581    2.6125   31.7442 C.ar    1  UNL1        0.0529
     21 C           1.8761    1.7039   32.3671 C.ar    1  UNL1        0.0293
     22 C           2.6195    0.7162   31.5176 C.ar    1  UNL1        0.0505
     23 C           2.3449    0.6371   30.0450 C.ar    1  UNL1        0.0291
     24 C           1.3268    1.5458   29.4221 C.ar    1  UNL1        0.0505
     25 C           0.5834    2.5334   30.2717 C.ar    1  UNL1        0.0293
     26 N           3.6376   -0.1924   32.1404 N.pl3   1  UNL1       -0.3027
     27 C           3.9100   -0.1155   33.6135 C.3     1  UNL1        0.1231
     28 C           4.9280   -1.0241   34.2364 C.3     1  UNL1        0.1636
     29 O           5.6737   -2.0096   33.3863 O.3     1  UNL1       -0.3501
     30 C           5.4012   -2.0865   31.9132 C.3     1  UNL1        0.1636
     31 C           4.3833   -1.1779   31.2903 C.3     1  UNL1        0.1231
     32 N           1.0522    1.4667   27.9496 N.pl3   1  UNL1       -0.3027
     33 C          -0.3141    1.7919   27.4230 C.3     1  UNL1        0.1231
     34 C          -0.5887    1.7128   25.9504 C.3     1  UNL1        0.1636
     35 O           0.5030    1.3085   25.0046 O.3     1  UNL1       -0.3501
     36 C           1.8693    0.9832   25.5312 C.3     1  UNL1        0.1636
     37 C           2.1439    1.0623   27.0037 C.3     1  UNL1        0.1231
@<TRIPOS>BOND
     1     9    10    1
     2    10     3    1
     3     3     4   ar
     4     4     5   ar
     5     5     6   ar
     6     6     7   ar
     7     7     1    1
     8     1    20    1
     9    20    21   ar
    10    21    22   ar
    11    22    26    1
    12    26    27    1
    13    27    28    1
    14    28    29    1
    15    29    30    1
    16    30    31    1
    17    22    23   ar
    18    23    24   ar
    19    24    32    1
    20    32    33    1
    21    33    34    1
    22    34    35    1
    23    35    36    1
    24    36    37    1
    25    24    25   ar
    26     7     8   ar
    27    10    11    1
    28    11    12    2
    29    12    13    1
    30    13    14    2
    31    14    15    1
    32    15    16    2
    33    16    17    1
    34    17    18    2
    35    18    19    1
    36     8     3   ar
    37    19    11    1
    38    25    20   ar
    39    19    15    1
    40    31    26    1
    41    37    32    1
    42     1     2    1
