@<TRIPOS>MOLECULE
*****
 35 39 0 0 0
SMALL
GASTEIGER

@<TRIPOS>ATOM
      1 C          -5.4765  -15.8842   25.1615 C.ar    1  UNL1        0.1979
      2 N          -4.9320  -15.6814   26.5444 N.ar    1  UNL1       -0.1213
      3 N          -6.0899  -15.4471   27.4687 N.ar    1  UNL1       -0.1208
      4 C          -7.3500  -15.5052   26.6570 C.ar    1  UNL1        0.2054
      5 BR         -8.7444  -15.3248   27.1796 Br      1  UNL1       -0.0059
      6 N          -6.9709  -15.7753   25.2311 N.ar    1  UNL1       -0.2638
      7 C          -7.9196  -15.9124   24.0774 C.ar    1  UNL1        0.0676
      8 C          -7.8283  -14.9688   22.9150 C.ar    1  UNL1        0.0173
      9 C          -8.7770  -15.1060   21.7613 C.ar    1  UNL1       -0.0028
     10 C          -9.8171  -16.1867   21.7699 C.ar    1  UNL1       -0.0224
     11 C          -9.9085  -17.1304   22.9323 C.ar    1  UNL1       -0.0026
     12 C         -10.9486  -18.2112   22.9410 C.ar    1  UNL1       -0.0003
     13 C         -11.0399  -19.1548   24.1034 C.ar    1  UNL1       -0.0000
     14 C         -10.0912  -19.0177   25.2571 C.ar    1  UNL1        0.0000
     15 C          -9.0511  -17.9369   25.2484 C.ar    1  UNL1        0.0014
     16 C          -8.9597  -16.9933   24.0861 C.ar    1  UNL1        0.0159
     17 C         -10.7658  -16.3239   20.6162 C.3     1  UNL1        0.0224
     18 C         -11.4488  -15.7327   19.4187 C.3     1  UNL1        0.0047
     19 C         -11.7260  -17.1525   19.8154 C.3     1  UNL1        0.0047
     20 S          -4.6684  -16.1493   23.9259 S.3     1  UNL1       -0.0654
     21 C          -4.2864  -17.5546   23.5667 C.3     1  UNL1        0.1514
     22 O          -4.0994  -18.4877   21.1492 O.2     1  UNL1       -0.2726
     23 C          -4.9150  -18.2227   22.3799 C.2     1  UNL1        0.2523
     24 N          -6.3591  -18.6258   22.4238 N.am    1  UNL1       -0.1842
     25 H          -6.8944  -18.4518   23.2315 H       1  UNL1        0.1766
     26 S          -6.9877  -19.2939   21.2369 S.O2    1  UNL1        0.0756
     27 O          -7.2946  -17.9509   20.6434 O.2     1  UNL1       -0.1499
     28 O          -6.6808  -20.6369   21.8305 O.2     1  UNL1       -0.1499
     29 C          -7.6163  -19.9620   20.0501 C.ar    1  UNL1        0.1253
     30 C          -8.8762  -19.4054   19.4561 C.ar    1  UNL1        0.0207
     31 C          -9.5047  -20.0736   18.2693 C.ar    1  UNL1        0.0081
     32 C          -8.8733  -21.2983   17.6766 C.ar    1  UNL1        0.0346
     33 BR         -9.5019  -21.9665   16.4898 Br      1  UNL1       -0.0490
     34 C          -7.6134  -21.8549   18.2706 C.ar    1  UNL1        0.0081
     35 C          -6.9849  -21.1868   19.4574 C.ar    1  UNL1        0.0207
@<TRIPOS>BOND
     1    22    23    2
     2    23    21    1
     3    21    20    1
     4    20     1    1
     5     1     2   ar
     6     2     3   ar
     7     3     4   ar
     8     4     5    1
     9     4     6   ar
    10     6     7    1
    11     7     8   ar
    12     8     9   ar
    13     9    10   ar
    14    10    17    1
    15    17    18    1
    16    18    19    1
    17    10    11   ar
    18    11    12   ar
    19    12    13   ar
    20    13    14   ar
    21    14    15   ar
    22    15    16   ar
    23    23    24   am
    24    24    26    1
    25    26    27    2
    26    26    28    2
    27    26    29    1
    28    29    30   ar
    29    30    31   ar
    30    31    32   ar
    31    32    33    1
    32    32    34   ar
    33    34    35   ar
    34     6     1   ar
    35    16     7   ar
    36    35    29   ar
    37    19    17    1
    38    16    11   ar
    39    24    25    1
@<TRIPOS>MOLECULE
*****
 35 39 0 0 0
SMALL
GASTEIGER

@<TRIPOS>ATOM
      1 C           1.6741    1.7515   27.1331 C.ar    1  UNL1        0.1979
      2 N           0.6074    1.8787   26.0862 N.ar    1  UNL1       -0.1213
      3 N          -0.6379    1.2285   26.6119 N.ar    1  UNL1       -0.1208
      4 C          -0.3409    0.6994   27.9837 C.ar    1  UNL1        0.2054
      5 BR         -1.3037   -0.0256   28.8766 Br      1  UNL1       -0.0059
      6 N           1.0880    1.0226   28.3059 N.ar    1  UNL1       -0.2638
      7 C           1.8050    0.6776   29.5774 C.ar    1  UNL1        0.0676
      8 C           2.6722   -0.5446   29.6416 C.ar    1  UNL1        0.0173
      9 C           3.3892   -0.8896   30.9131 C.ar    1  UNL1       -0.0028
     10 C           3.2389   -0.0125   32.1206 C.ar    1  UNL1       -0.0224
     11 C           2.3717    1.2098   32.0565 C.ar    1  UNL1       -0.0026
     12 C           2.2215    2.0870   33.2639 C.ar    1  UNL1       -0.0003
     13 C           1.3543    3.3092   33.1998 C.ar    1  UNL1       -0.0000
     14 C           0.6374    3.6542   31.9282 C.ar    1  UNL1        0.0000
     15 C           0.7876    2.7770   30.7208 C.ar    1  UNL1        0.0014
     16 C           1.6548    1.5548   30.7849 C.ar    1  UNL1        0.0159
     17 C           3.9559   -0.3575   33.3921 C.3     1  UNL1        0.0224
     18 C           4.7011    0.0722   34.6209 C.3     1  UNL1        0.0047
     19 C           4.4525   -1.3849   34.3657 C.3     1  UNL1        0.0047
     20 S           3.0800    2.2633   27.0260 S.3     1  UNL1       -0.0654
     21 C           3.6544    2.6027   25.6826 C.3     1  UNL1        0.1514
     22 O           5.3881    1.1567   24.3968 O.2     1  UNL1       -0.2726
     23 C           3.9627    1.5110   24.7012 C.2     1  UNL1        0.2523
     24 N           2.8456    0.7736   24.0243 N.am    1  UNL1       -0.1842
     25 H           1.9100    1.0061   24.2241 H       1  UNL1        0.1766
     26 S           3.1539   -0.3181   23.0428 S.O2    1  UNL1        0.0756
     27 O           2.9677    0.6475   21.9102 O.2     1  UNL1       -0.1499
     28 O           3.3401   -1.2838   24.1755 O.2     1  UNL1       -0.1499
     29 C           3.4622   -1.4098   22.0614 C.ar    1  UNL1        0.1253
     30 C           2.9702   -1.3087   20.6480 C.ar    1  UNL1        0.0207
     31 C           3.2785   -2.4004   19.6667 C.ar    1  UNL1        0.0081
     32 C           4.0789   -3.5932   20.0987 C.ar    1  UNL1        0.0346
     33 BR          4.3872   -4.6849   19.1173 Br      1  UNL1       -0.0490
     34 C           4.5709   -3.6943   21.5121 C.ar    1  UNL1        0.0081
     35 C           4.2626   -2.6026   22.4935 C.ar    1  UNL1        0.0207
@<TRIPOS>BOND
     1    22    23    2
     2    23    21    1
     3    21    20    1
     4    20     1    1
     5     1     2   ar
     6     2     3   ar
     7     3     4   ar
     8     4     5    1
     9     4     6   ar
    10     6     7    1
    11     7     8   ar
    12     8     9   ar
    13     9    10   ar
    14    10    17    1
    15    17    18    1
    16    18    19    1
    17    10    11   ar
    18    11    12   ar
    19    12    13   ar
    20    13    14   ar
    21    14    15   ar
    22    15    16   ar
    23    23    24   am
    24    24    26    1
    25    26    27    2
    26    26    28    2
    27    26    29    1
    28    29    30   ar
    29    30    31   ar
    30    31    32   ar
    31    32    33    1
    32    32    34   ar
    33    34    35   ar
    34     6     1   ar
    35    16     7   ar
    36    35    29   ar
    37    19    17    1
    38    16    11   ar
    39    24    25    1
@<TRIPOS>MOLECULE
*****
 35 39 0 0 0
SMALL
GASTEIGER

@<TRIPOS>ATOM
      1 C           2.2435    3.0424   18.4914 C.ar    1  UNL1        0.1979
      2 N           2.5942    4.4992   18.4217 N.ar    1  UNL1       -0.1213
      3 N           4.0853    4.6225   18.5275 N.ar    1  UNL1       -0.1208
      4 C           4.6562    3.2420   18.6626 C.ar    1  UNL1        0.2054
      5 BR          6.1102    2.8984   18.7965 Br      1  UNL1       -0.0059
      6 N           3.5179    2.2654   18.6403 N.ar    1  UNL1       -0.2638
      7 C           3.6337    0.7738   18.7480 C.ar    1  UNL1        0.0676
      8 C           3.8514   -0.0525   17.5152 C.ar    1  UNL1        0.0173
      9 C           3.9672   -1.5442   17.6229 C.ar    1  UNL1       -0.0028
     10 C           3.8653   -2.2095   18.9633 C.ar    1  UNL1       -0.0224
     11 C           3.6476   -1.3832   20.1962 C.ar    1  UNL1       -0.0026
     12 C           3.5457   -2.0486   21.5367 C.ar    1  UNL1       -0.0003
     13 C           3.3280   -1.2223   22.7694 C.ar    1  UNL1       -0.0000
     14 C           3.2122    0.2694   22.6618 C.ar    1  UNL1        0.0000
     15 C           3.3141    0.9347   21.3213 C.ar    1  UNL1        0.0014
     16 C           3.5318    0.1084   20.0885 C.ar    1  UNL1        0.0159
     17 C           3.9811   -3.7012   19.0710 C.3     1  UNL1        0.0224
     18 C           3.4749   -5.0082   19.6053 C.3     1  UNL1        0.0047
     19 C           4.6878   -4.9777   18.7233 C.3     1  UNL1        0.0047
     20 S           0.8611    2.4641   18.4241 S.3     1  UNL1       -0.0654
     21 C          -0.2019    2.9503   19.3639 C.3     1  UNL1        0.1514
     22 O          -0.1973    1.0052   21.0862 O.2     1  UNL1       -0.2726
     23 C          -0.2201    2.4747   20.7864 C.2     1  UNL1        0.2523
     24 N          -0.2611    3.4686   21.9091 N.am    1  UNL1       -0.1842
     25 H          -0.2761    4.4332   21.7123 H       1  UNL1        0.1766
     26 S          -0.2793    2.9930   23.3316 S.O2    1  UNL1        0.0756
     27 O           1.2189    2.9207   23.3266 O.2     1  UNL1       -0.1499
     28 O          -1.7776    3.0654   23.3366 O.2     1  UNL1       -0.1499
     29 C          -0.2975    2.5174   24.7541 C.ar    1  UNL1        0.1253
     30 C          -1.3617    3.0023   25.6935 C.ar    1  UNL1        0.0207
     31 C          -1.3798    2.5266   27.1160 C.ar    1  UNL1        0.0081
     32 C          -0.3338    1.5661   27.5990 C.ar    1  UNL1        0.0346
     33 BR         -0.3520    1.0905   29.0215 Br      1  UNL1       -0.0490
     34 C           0.7304    1.0813   26.6596 C.ar    1  UNL1        0.0081
     35 C           0.7486    1.5569   25.2371 C.ar    1  UNL1        0.0207
@<TRIPOS>BOND
     1    22    23    2
     2    23    21    1
     3    21    20    1
     4    20     1    1
     5     1     2   ar
     6     2     3   ar
     7     3     4   ar
     8     4     5    1
     9     4     6   ar
    10     6     7    1
    11     7     8   ar
    12     8     9   ar
    13     9    10   ar
    14    10    17    1
    15    17    18    1
    16    18    19    1
    17    10    11   ar
    18    11    12   ar
    19    12    13   ar
    20    13    14   ar
    21    14    15   ar
    22    15    16   ar
    23    23    24   am
    24    24    26    1
    25    26    27    2
    26    26    28    2
    27    26    29    1
    28    29    30   ar
    29    30    31   ar
    30    31    32   ar
    31    32    33    1
    32    32    34   ar
    33    34    35   ar
    34     6     1   ar
    35    16     7   ar
    36    35    29   ar
    37    19    17    1
    38    16    11   ar
    39    24    25    1
@<TRIPOS>MOLECULE
*****
 35 39 0 0 0
SMALL
GASTEIGER

@<TRIPOS>ATOM
      1 C           7.1153   -1.8784   19.0229 C.ar    1  UNL1        0.1979
      2 N           6.6444   -1.8498   17.5990 N.ar    1  UNL1       -0.1213
      3 N           5.5123   -2.8248   17.4656 N.ar    1  UNL1       -0.1208
      4 C           5.2836   -3.4559   18.8070 C.ar    1  UNL1        0.2054
      5 BR          4.2463   -4.4903   19.1293 Br      1  UNL1       -0.0059
      6 N           6.2743   -2.8710   19.7695 N.ar    1  UNL1       -0.2638
      7 C           6.4017   -3.2178   21.2233 C.ar    1  UNL1        0.0676
      8 C           7.4278   -4.2170   21.6689 C.ar    1  UNL1        0.0173
      9 C           7.5551   -4.5637   23.1227 C.ar    1  UNL1       -0.0028
     10 C           6.6563   -3.9113   24.1309 C.ar    1  UNL1       -0.0224
     11 C           5.6301   -2.9120   23.6853 C.ar    1  UNL1       -0.0026
     12 C           4.7314   -2.2596   24.6935 C.ar    1  UNL1       -0.0003
     13 C           3.7053   -1.2604   24.2479 C.ar    1  UNL1       -0.0000
     14 C           3.5779   -0.9136   22.7941 C.ar    1  UNL1        0.0000
     15 C           4.4767   -1.5660   21.7859 C.ar    1  UNL1        0.0014
     16 C           5.5028   -2.5653   22.2315 C.ar    1  UNL1        0.0159
     17 C           6.7837   -4.2581   25.5847 C.3     1  UNL1        0.0224
     18 C           6.6853   -5.2630   26.6939 C.3     1  UNL1        0.0047
     19 C           7.1026   -3.8538   26.9934 C.3     1  UNL1        0.0047
     20 S           8.2314   -1.0583   19.5990 S.3     1  UNL1       -0.0654
     21 C           8.0097    0.3902   19.9193 C.3     1  UNL1        0.1514
     22 O           5.9594    1.4739   21.0905 O.2     1  UNL1       -0.2726
     23 C           6.6290    0.9719   19.8457 C.2     1  UNL1        0.2523
     24 N           5.9180    1.0516   18.5274 N.am    1  UNL1       -0.1842
     25 H           6.3575    0.7221   17.7103 H       1  UNL1        0.1766
     26 S           4.5373    1.6333   18.4538 S.O2    1  UNL1        0.0756
     27 O           3.9513    0.2700   18.6723 O.2     1  UNL1       -0.1499
     28 O           5.1234    2.9967   18.2353 O.2     1  UNL1       -0.1499
     29 C           3.1567    2.2150   18.3803 C.ar    1  UNL1        0.1253
     30 C           1.9586    1.3196   18.4925 C.ar    1  UNL1        0.0207
     31 C           0.5779    1.9014   18.4189 C.ar    1  UNL1        0.0081
     32 C           0.3955    3.3786   18.2332 C.ar    1  UNL1        0.0346
     33 BR         -0.9852    3.9603   18.1596 Br      1  UNL1       -0.0490
     34 C           1.5936    4.2741   18.1210 C.ar    1  UNL1        0.0081
     35 C           2.9743    3.6923   18.1945 C.ar    1  UNL1        0.0207
@<TRIPOS>BOND
     1    22    23    2
     2    23    21    1
     3    21    20    1
     4    20     1    1
     5     1     2   ar
     6     2     3   ar
     7     3     4   ar
     8     4     5    1
     9     4     6   ar
    10     6     7    1
    11     7     8   ar
    12     8     9   ar
    13     9    10   ar
    14    10    17    1
    15    17    18    1
    16    18    19    1
    17    10    11   ar
    18    11    12   ar
    19    12    13   ar
    20    13    14   ar
    21    14    15   ar
    22    15    16   ar
    23    23    24   am
    24    24    26    1
    25    26    27    2
    26    26    28    2
    27    26    29    1
    28    29    30   ar
    29    30    31   ar
    30    31    32   ar
    31    32    33    1
    32    32    34   ar
    33    34    35   ar
    34     6     1   ar
    35    16     7   ar
    36    35    29   ar
    37    19    17    1
    38    16    11   ar
    39    24    25    1
@<TRIPOS>MOLECULE
*****
 35 39 0 0 0
SMALL
GASTEIGER

@<TRIPOS>ATOM
      1 C           2.0633    3.2537   18.4488 C.ar    1  UNL1        0.1979
      2 N           2.3944    4.7151   18.3810 N.ar    1  UNL1       -0.1213
      3 N           3.8825    4.8593   18.5024 N.ar    1  UNL1       -0.1208
      4 C           4.4710    3.4870   18.6453 C.ar    1  UNL1        0.2054
      5 BR          5.9281    3.1639   18.7950 Br      1  UNL1       -0.0059
      6 N           3.3467    2.4947   18.6122 N.ar    1  UNL1       -0.2638
      7 C           3.4820    1.0049   18.7230 C.ar    1  UNL1        0.0676
      8 C           3.6990    0.1778   17.4906 C.ar    1  UNL1        0.0173
      9 C           3.8343   -1.3119   17.6014 C.ar    1  UNL1       -0.0028
     10 C           3.7527   -1.9746   18.9445 C.ar    1  UNL1       -0.0224
     11 C           3.5357   -1.1475   20.1770 C.ar    1  UNL1       -0.0026
     12 C           3.4541   -1.8102   21.5202 C.ar    1  UNL1       -0.0003
     13 C           3.2371   -0.9831   22.7526 C.ar    1  UNL1       -0.0000
     14 C           3.1018    0.5066   22.6418 C.ar    1  UNL1        0.0000
     15 C           3.1834    1.1693   21.2986 C.ar    1  UNL1        0.0014
     16 C           3.4004    0.3422   20.0662 C.ar    1  UNL1        0.0159
     17 C           3.8881   -3.4644   19.0553 C.3     1  UNL1        0.0224
     18 C           3.2901   -4.8031   19.3720 C.3     1  UNL1        0.0047
     19 C           4.7204   -4.7060   18.9305 C.3     1  UNL1        0.0047
     20 S           0.6898    2.6562   18.3676 S.3     1  UNL1       -0.0654
     21 C          -0.4452    3.4589   17.8043 C.3     1  UNL1        0.1514
     22 O          -2.7758    4.5684   18.0998 O.2     1  UNL1       -0.2726
     23 C          -1.5921    3.8571   18.6853 C.2     1  UNL1        0.2523
     24 N          -1.5552    3.5439   20.1518 N.am    1  UNL1       -0.1842
     25 H          -0.7783    3.0771   20.5361 H       1  UNL1        0.1766
     26 S          -2.7021    3.9422   21.0328 S.O2    1  UNL1        0.0756
     27 O          -2.0452    5.2660   21.2895 O.2     1  UNL1       -0.1499
     28 O          -3.3590    2.6183   20.7760 O.2     1  UNL1       -0.1499
     29 C          -3.8489    4.3404   21.9138 C.ar    1  UNL1        0.1253
     30 C          -5.1909    3.6942   21.7359 C.ar    1  UNL1        0.0207
     31 C          -6.3377    4.0925   22.6170 C.ar    1  UNL1        0.0081
     32 C          -6.1425    5.1369   23.6758 C.ar    1  UNL1        0.0346
     33 BR         -7.2894    5.5351   24.5568 Br      1  UNL1       -0.0490
     34 C          -4.8006    5.7830   23.8537 C.ar    1  UNL1        0.0081
     35 C          -3.6537    5.3848   22.9727 C.ar    1  UNL1        0.0207
@<TRIPOS>BOND
     1    22    23    2
     2    23    21    1
     3    21    20    1
     4    20     1    1
     5     1     2   ar
     6     2     3   ar
     7     3     4   ar
     8     4     5    1
     9     4     6   ar
    10     6     7    1
    11     7     8   ar
    12     8     9   ar
    13     9    10   ar
    14    10    17    1
    15    17    18    1
    16    18    19    1
    17    10    11   ar
    18    11    12   ar
    19    12    13   ar
    20    13    14   ar
    21    14    15   ar
    22    15    16   ar
    23    23    24   am
    24    24    26    1
    25    26    27    2
    26    26    28    2
    27    26    29    1
    28    29    30   ar
    29    30    31   ar
    30    31    32   ar
    31    32    33    1
    32    32    34   ar
    33    34    35   ar
    34     6     1   ar
    35    16     7   ar
    36    35    29   ar
    37    19    17    1
    38    16    11   ar
    39    24    25    1
@<TRIPOS>MOLECULE
*****
 35 39 0 0 0
SMALL
GASTEIGER

@<TRIPOS>ATOM
      1 C           4.7554   -2.0647   18.5650 C.ar    1  UNL1        0.1979
      2 N           4.8111   -1.7280   17.1043 N.ar    1  UNL1       -0.1213
      3 N           4.4717   -0.2750   16.9503 N.ar    1  UNL1       -0.1208
      4 C           4.2063    0.2862   18.3158 C.ar    1  UNL1        0.2054
      5 BR          3.8314    1.7045   18.6285 Br      1  UNL1       -0.0059
      6 N           4.3817   -0.8199   19.3137 N.ar    1  UNL1       -0.2638
      7 C           4.2129   -0.7018   20.7995 C.ar    1  UNL1        0.0676
      8 C           2.8926   -1.0276   21.4326 C.ar    1  UNL1        0.0173
      9 C           2.7238   -0.9096   22.9184 C.ar    1  UNL1       -0.0028
     10 C           3.8753   -0.4657   23.7711 C.ar    1  UNL1       -0.0224
     11 C           5.1956   -0.1400   23.1380 C.ar    1  UNL1       -0.0026
     12 C           6.3470    0.3038   23.9908 C.ar    1  UNL1       -0.0003
     13 C           7.6672    0.6296   23.3577 C.ar    1  UNL1       -0.0000
     14 C           7.8360    0.5116   21.8719 C.ar    1  UNL1        0.0000
     15 C           6.6846    0.0678   21.0192 C.ar    1  UNL1        0.0014
     16 C           5.3644   -0.2580   21.6523 C.ar    1  UNL1        0.0159
     17 C           3.7065   -0.3477   25.2569 C.3     1  UNL1        0.0224
     18 C           3.2153    0.4141   26.4520 C.3     1  UNL1        0.0047
     19 C           3.9053   -0.9051   26.6352 C.3     1  UNL1        0.0047
     20 S           5.0260   -3.4101   19.1705 S.3     1  UNL1       -0.0654
     21 C           6.2666   -3.6306   19.9842 C.3     1  UNL1        0.1514
     22 O           4.8099   -4.0494   22.0943 O.2     1  UNL1       -0.2726
     23 C           6.1593   -3.9198   21.4522 C.2     1  UNL1        0.2523
     24 N           7.4013   -4.0793   22.2779 N.am    1  UNL1       -0.1842
     25 H           8.2869   -3.9942   21.8564 H       1  UNL1        0.1766
     26 S           7.2940   -4.3685   23.7459 S.O2    1  UNL1        0.0756
     27 O           7.5021   -5.8288   23.4734 O.2     1  UNL1       -0.1499
     28 O           7.0858   -2.9082   24.0183 O.2     1  UNL1       -0.1499
     29 C           7.1866   -4.6576   25.2138 C.ar    1  UNL1        0.1253
     30 C           7.4700   -6.0375   25.7291 C.ar    1  UNL1        0.0207
     31 C           7.3626   -6.3266   27.1971 C.ar    1  UNL1        0.0081
     32 C           6.9720   -5.2358   28.1497 C.ar    1  UNL1        0.0346
     33 BR          6.8646   -5.5250   29.6176 Br      1  UNL1       -0.0490
     34 C           6.6886   -3.8559   27.6344 C.ar    1  UNL1        0.0081
     35 C           6.7959   -3.5667   26.1665 C.ar    1  UNL1        0.0207
@<TRIPOS>BOND
     1    22    23    2
     2    23    21    1
     3    21    20    1
     4    20     1    1
     5     1     2   ar
     6     2     3   ar
     7     3     4   ar
     8     4     5    1
     9     4     6   ar
    10     6     7    1
    11     7     8   ar
    12     8     9   ar
    13     9    10   ar
    14    10    17    1
    15    17    18    1
    16    18    19    1
    17    10    11   ar
    18    11    12   ar
    19    12    13   ar
    20    13    14   ar
    21    14    15   ar
    22    15    16   ar
    23    23    24   am
    24    24    26    1
    25    26    27    2
    26    26    28    2
    27    26    29    1
    28    29    30   ar
    29    30    31   ar
    30    31    32   ar
    31    32    33    1
    32    32    34   ar
    33    34    35   ar
    34     6     1   ar
    35    16     7   ar
    36    35    29   ar
    37    19    17    1
    38    16    11   ar
    39    24    25    1
@<TRIPOS>MOLECULE
*****
 35 39 0 0 0
SMALL
GASTEIGER

@<TRIPOS>ATOM
      1 C         -10.9809  -18.9601   21.6451 C.ar    1  UNL1        0.1979
      2 N         -12.1197  -18.9475   20.6689 N.ar    1  UNL1       -0.1213
      3 N         -12.9582  -17.7360   20.9505 N.ar    1  UNL1       -0.1208
      4 C         -12.3377  -17.0000   22.1008 C.ar    1  UNL1        0.2054
      5 BR        -12.8493  -15.7303   22.7140 Br      1  UNL1       -0.0059
      6 N         -11.1156  -17.7565   22.5301 N.ar    1  UNL1       -0.2638
      7 C         -10.1907  -17.3762   23.6481 C.ar    1  UNL1        0.0676
      8 C         -10.4137  -17.9257   25.0258 C.ar    1  UNL1        0.0173
      9 C          -9.4888  -17.5454   26.1438 C.ar    1  UNL1       -0.0028
     10 C          -8.3408  -16.6155   25.8840 C.ar    1  UNL1       -0.0224
     11 C          -8.1178  -16.0659   24.5062 C.ar    1  UNL1       -0.0026
     12 C          -6.9698  -15.1360   24.2464 C.ar    1  UNL1       -0.0003
     13 C          -6.7468  -14.5865   22.8687 C.ar    1  UNL1       -0.0000
     14 C          -7.6718  -14.9668   21.7507 C.ar    1  UNL1        0.0000
     15 C          -8.8197  -15.8967   22.0105 C.ar    1  UNL1        0.0014
     16 C          -9.0427  -16.4462   23.3882 C.ar    1  UNL1        0.0159
     17 C          -7.4159  -16.2352   27.0020 C.3     1  UNL1        0.0224
     18 C          -6.8937  -15.2096   27.9639 C.3     1  UNL1        0.0047
     19 C          -6.3361  -16.6021   27.9763 C.3     1  UNL1        0.0047
     20 S          -9.8976  -19.9947   21.7227 S.3     1  UNL1       -0.0654
     21 C          -9.1445  -20.3863   20.4862 C.3     1  UNL1        0.1514
     22 O          -7.4815  -19.0097   19.0406 O.2     1  UNL1       -0.2726
     23 C          -7.7627  -19.8528   20.2490 C.2     1  UNL1        0.2523
     24 N          -6.6623  -20.1623   21.2201 N.am    1  UNL1       -0.1842
     25 H          -6.8469  -20.7157   22.0132 H       1  UNL1        0.1766
     26 S          -5.2806  -19.6288   20.9830 S.O2    1  UNL1        0.0756
     27 O          -4.9337  -20.8691   20.2140 O.2     1  UNL1       -0.1499
     28 O          -5.6275  -18.3885   21.7520 O.2     1  UNL1       -0.1499
     29 C          -3.8989  -19.0953   20.7458 C.ar    1  UNL1        0.1253
     30 C          -3.4412  -18.7924   19.3498 C.ar    1  UNL1        0.0207
     31 C          -2.0595  -18.2589   19.1127 C.ar    1  UNL1        0.0081
     32 C          -1.1355  -18.0283   20.2716 C.ar    1  UNL1        0.0346
     33 BR          0.2462  -17.4948   20.0344 Br      1  UNL1       -0.0490
     34 C          -1.5931  -18.3312   21.6676 C.ar    1  UNL1        0.0081
     35 C          -2.9748  -18.8647   21.9047 C.ar    1  UNL1        0.0207
@<TRIPOS>BOND
     1    22    23    2
     2    23    21    1
     3    21    20    1
     4    20     1    1
     5     1     2   ar
     6     2     3   ar
     7     3     4   ar
     8     4     5    1
     9     4     6   ar
    10     6     7    1
    11     7     8   ar
    12     8     9   ar
    13     9    10   ar
    14    10    17    1
    15    17    18    1
    16    18    19    1
    17    10    11   ar
    18    11    12   ar
    19    12    13   ar
    20    13    14   ar
    21    14    15   ar
    22    15    16   ar
    23    23    24   am
    24    24    26    1
    25    26    27    2
    26    26    28    2
    27    26    29    1
    28    29    30   ar
    29    30    31   ar
    30    31    32   ar
    31    32    33    1
    32    32    34   ar
    33    34    35   ar
    34     6     1   ar
    35    16     7   ar
    36    35    29   ar
    37    19    17    1
    38    16    11   ar
    39    24    25    1
@<TRIPOS>MOLECULE
*****
 35 39 0 0 0
SMALL
GASTEIGER

@<TRIPOS>ATOM
      1 C           1.1956    2.8697   20.8707 C.ar    1  UNL1        0.1979
      2 N           1.3474    4.3362   21.1470 N.ar    1  UNL1       -0.1213
      3 N           2.8078    4.6718   21.0791 N.ar    1  UNL1       -0.1208
      4 C           3.5585    3.4127   20.7608 C.ar    1  UNL1        0.2054
      5 BR          5.0447    3.2892   20.5997 Br      1  UNL1       -0.0059
      6 N           2.5620    2.2989   20.6320 N.ar    1  UNL1       -0.2638
      7 C           2.8768    0.8660   20.3194 C.ar    1  UNL1        0.0676
      8 C           2.7893    0.3699   18.9066 C.ar    1  UNL1        0.0173
      9 C           3.1040   -1.0630   18.5940 C.ar    1  UNL1       -0.0028
     10 C           3.5064   -1.9997   19.6942 C.ar    1  UNL1       -0.0224
     11 C           3.5939   -1.5036   21.1071 C.ar    1  UNL1       -0.0026
     12 C           3.9963   -2.4404   22.2073 C.ar    1  UNL1       -0.0003
     13 C           4.0838   -1.9443   23.6202 C.ar    1  UNL1       -0.0000
     14 C           3.7691   -0.5114   23.9328 C.ar    1  UNL1        0.0000
     15 C           3.3667    0.4254   22.8325 C.ar    1  UNL1        0.0014
     16 C           3.2792   -0.0707   21.4197 C.ar    1  UNL1        0.0159
     17 C           3.8212   -3.4326   19.3816 C.3     1  UNL1        0.0224
     18 C           3.4640   -4.8875   19.4574 C.3     1  UNL1        0.0047
     19 C           4.7235   -4.4596   18.7643 C.3     1  UNL1        0.0047
     20 S          -0.0961    2.1077   20.8386 S.3     1  UNL1       -0.0654
     21 C          -1.2471    2.6166   20.0225 C.3     1  UNL1        0.1514
     22 O          -2.0858    4.8617   21.0255 O.2     1  UNL1       -0.2726
     23 C          -2.3301    3.4239   20.6747 C.2     1  UNL1        0.2523
     24 N          -3.6573    2.7935   20.9762 N.am    1  UNL1       -0.1842
     25 H          -3.8176    1.8498   20.7460 H       1  UNL1        0.1766
     26 S          -4.7403    3.6008   21.6284 S.O2    1  UNL1        0.0756
     27 O          -4.2334    3.1898   22.9790 O.2     1  UNL1       -0.1499
     28 O          -5.2472    4.0118   20.2778 O.2     1  UNL1       -0.1499
     29 C          -5.8233    4.4081   22.2806 C.ar    1  UNL1        0.1253
     30 C          -6.5302    5.4799   21.5050 C.ar    1  UNL1        0.0207
     31 C          -7.6132    6.2872   22.1573 C.ar    1  UNL1        0.0081
     32 C          -7.9892    6.0227   23.5851 C.ar    1  UNL1        0.0346
     33 BR         -9.0722    6.8300   24.2373 Br      1  UNL1       -0.0490
     34 C          -7.2823    4.9510   24.3607 C.ar    1  UNL1        0.0081
     35 C          -6.1993    4.1436   23.7085 C.ar    1  UNL1        0.0207
@<TRIPOS>BOND
     1    22    23    2
     2    23    21    1
     3    21    20    1
     4    20     1    1
     5     1     2   ar
     6     2     3   ar
     7     3     4   ar
     8     4     5    1
     9     4     6   ar
    10     6     7    1
    11     7     8   ar
    12     8     9   ar
    13     9    10   ar
    14    10    17    1
    15    17    18    1
    16    18    19    1
    17    10    11   ar
    18    11    12   ar
    19    12    13   ar
    20    13    14   ar
    21    14    15   ar
    22    15    16   ar
    23    23    24   am
    24    24    26    1
    25    26    27    2
    26    26    28    2
    27    26    29    1
    28    29    30   ar
    29    30    31   ar
    30    31    32   ar
    31    32    33    1
    32    32    34   ar
    33    34    35   ar
    34     6     1   ar
    35    16     7   ar
    36    35    29   ar
    37    19    17    1
    38    16    11   ar
    39    24    25    1
@<TRIPOS>MOLECULE
*****
 35 39 0 0 0
SMALL
GASTEIGER

@<TRIPOS>ATOM
      1 C          -0.2734    3.5471   21.4932 C.ar    1  UNL1        0.1979
      2 N          -1.1359    4.7428   21.2168 N.ar    1  UNL1       -0.1213
      3 N          -1.3201    4.8482   19.7319 N.ar    1  UNL1       -0.1208
      4 C          -0.5714    3.7176   19.0906 C.ar    1  UNL1        0.2054
      5 BR         -0.4848    3.4399   17.6191 Br      1  UNL1       -0.0059
      6 N           0.0755    2.9135   20.1791 N.ar    1  UNL1       -0.2638
      7 C           0.9225    1.6905   19.9873 C.ar    1  UNL1        0.0676
      8 C           0.3583    0.3330   20.2853 C.ar    1  UNL1        0.0173
      9 C           1.2053   -0.8900   20.0935 C.ar    1  UNL1       -0.0028
     10 C           2.6166   -0.7555   19.6035 C.ar    1  UNL1       -0.0224
     11 C           3.1810    0.6020   19.3055 C.ar    1  UNL1       -0.0026
     12 C           4.5923    0.7364   18.8155 C.ar    1  UNL1       -0.0003
     13 C           5.1566    2.0939   18.5175 C.ar    1  UNL1       -0.0000
     14 C           4.3095    3.3169   18.7093 C.ar    1  UNL1        0.0000
     15 C           2.8982    3.1824   19.1993 C.ar    1  UNL1        0.0014
     16 C           2.3339    1.8250   19.4973 C.ar    1  UNL1        0.0159
     17 C           3.4637   -1.9785   19.4117 C.3     1  UNL1        0.0224
     18 C           4.8089   -2.6418   19.4234 C.3     1  UNL1        0.0047
     19 C           3.5854   -3.4334   19.0677 C.3     1  UNL1        0.0047
     20 S           0.1635    3.0690   22.8462 S.3     1  UNL1       -0.0654
     21 C           1.5705    3.3078   23.3078 C.3     1  UNL1        0.1514
     22 O           3.8051    2.2315   22.5343 O.2     1  UNL1       -0.2726
     23 C           2.5487    2.1714   23.3515 C.2     1  UNL1        0.2523
     24 N           2.2704    0.9750   24.2124 N.am    1  UNL1       -0.1842
     25 H           1.4458    0.9356   24.7487 H       1  UNL1        0.1766
     26 S           3.2486   -0.1613   24.2561 S.O2    1  UNL1        0.0756
     27 O           2.5886   -0.7756   23.0573 O.2     1  UNL1       -0.1499
     28 O           3.9086    0.4529   25.4548 O.2     1  UNL1       -0.1499
     29 C           4.2268   -1.2977   24.2998 C.ar    1  UNL1        0.1253
     30 C           4.3046   -2.2648   23.1558 C.ar    1  UNL1        0.0207
     31 C           5.2828   -3.4011   23.1996 C.ar    1  UNL1        0.0081
     32 C           6.1831   -3.5703   24.3873 C.ar    1  UNL1        0.0346
     33 BR          7.1612   -4.7067   24.4311 Br      1  UNL1       -0.0490
     34 C           6.1053   -2.6033   25.5313 C.ar    1  UNL1        0.0081
     35 C           5.1271   -1.4669   25.4876 C.ar    1  UNL1        0.0207
@<TRIPOS>BOND
     1    22    23    2
     2    23    21    1
     3    21    20    1
     4    20     1    1
     5     1     2   ar
     6     2     3   ar
     7     3     4   ar
     8     4     5    1
     9     4     6   ar
    10     6     7    1
    11     7     8   ar
    12     8     9   ar
    13     9    10   ar
    14    10    17    1
    15    17    18    1
    16    18    19    1
    17    10    11   ar
    18    11    12   ar
    19    12    13   ar
    20    13    14   ar
    21    14    15   ar
    22    15    16   ar
    23    23    24   am
    24    24    26    1
    25    26    27    2
    26    26    28    2
    27    26    29    1
    28    29    30   ar
    29    30    31   ar
    30    31    32   ar
    31    32    33    1
    32    32    34   ar
    33    34    35   ar
    34     6     1   ar
    35    16     7   ar
    36    35    29   ar
    37    19    17    1
    38    16    11   ar
    39    24    25    1
