@<TRIPOS>MOLECULE
*****
 44 49 0 0 0
SMALL
GASTEIGER

@<TRIPOS>ATOM
      1 N           2.9225    0.8714   31.4970 N.am    1  UNL1       -0.2222
      2 C           2.3778    0.8404   30.0997 C.2     1  UNL1        0.3219
      3 O           2.7671   -0.1286   29.0229 O.2     1  UNL1       -0.2512
      4 N           1.3755    1.9487   29.9682 N.am    1  UNL1       -0.1907
      5 C           1.3007    2.6646   31.2842 C.2     1  UNL1        0.2529
      6 O           0.4239    3.8399   31.6000 O.2     1  UNL1       -0.2724
      7 C           2.2568    1.9988   32.2291 C.3     1  UNL1        0.1391
      8 C           3.2483    1.2354   33.0562 C.3     1  UNL1        0.0449
      9 C           3.4954    1.6281   34.4826 C.3     1  UNL1        0.0746
     10 N           2.7509    2.7841   35.0820 N.3     1  UNL1       -0.2676
     11 C           1.7594    3.5476   34.2549 C.3     1  UNL1        0.0746
     12 C           1.5124    3.1549   32.8285 C.3     1  UNL1        0.0449
     13 C           6.4369   -0.6376   32.5562 C.ar    1  UNL1        0.2293
     14 C           5.4073    0.2951   31.9903 C.ar    1  UNL1        0.0924
     15 C           3.9521   -0.0612   32.0629 C.ar    1  UNL1        0.1453
     16 N           3.5264   -1.3501   32.7012 N.ar    1  UNL1       -0.2084
     17 C           4.5558   -2.2828   33.2671 C.ar    1  UNL1        0.2027
     18 N           6.0112   -1.9265   33.1945 N.ar    1  UNL1       -0.1892
     19 C           8.9247   -1.2354   33.0068 C.3     1  UNL1        0.2542
     20 O           7.8921   -0.2814   32.4837 O.3     1  UNL1       -0.4560
     21 C           0.5866    2.2824   28.7370 C.ar    1  UNL1        0.0622
     22 C          -0.1725    1.2067   28.0182 C.ar    1  UNL1        0.0154
     23 C          -0.9615    1.5405   26.7868 C.ar    1  UNL1        0.0013
     24 C          -0.9914    2.9499   26.2743 C.ar    1  UNL1        0.0009
     25 C          -0.2323    4.0256   26.9932 C.ar    1  UNL1        0.0013
     26 C           0.5566    3.6918   28.2245 C.ar    1  UNL1        0.0154
     27 C          -1.7804    3.2836   25.0430 C.ar    1  UNL1        0.0106
     28 C          -1.1290    3.2158   23.6936 C.ar    1  UNL1        0.0009
     29 C          -1.9180    3.5495   22.4622 C.ar    1  UNL1        0.0012
     30 C          -3.3584    3.9511   22.5805 C.ar    1  UNL1        0.0148
     31 C          -4.0098    4.0190   23.9300 C.ar    1  UNL1        0.0125
     32 C          -3.2209    3.6853   25.1612 C.ar    1  UNL1        0.0577
     33 CL         -3.8723    3.7531   26.5107 Cl      1  UNL1       -0.0822
     34 C          -4.1474    4.2849   21.3492 C.2     1  UNL1        0.0729
     35 O          -5.0707    5.4671   21.3475 O.co2   1  UNL1       -0.5446
     36 O          -4.0131    3.4364   20.1195 O.co2   1  UNL1       -0.5446
     37 C           2.9979    3.1768   36.5085 C.3     1  UNL1        0.1183
     38 C           2.2437    2.4997   37.6142 C.ar    1  UNL1        0.0712
     39 N           0.9529    3.0828   38.1082 N.ar    1  UNL1       -0.2471
     40 C           0.1986    2.4056   39.2139 C.ar    1  UNL1        0.0985
     41 C           0.7351    1.1455   39.8256 C.ar    1  UNL1        0.0203
     42 C           2.0258    0.5624   39.3316 C.ar    1  UNL1       -0.0015
     43 C           2.7801    1.2395   38.2259 C.ar    1  UNL1       -0.0069
     44 C           4.0708    0.6564   37.7319 C.3     1  UNL1        0.0323
@<TRIPOS>UNITY_ATOM_ATTR
35 1
charge -1
@<TRIPOS>BOND
     1    19    20    1
     2    20    13    1
     3    13    14   ar
     4    14    15   ar
     5    15     1    1
     6     1     2   am
     7     2     3    2
     8     2     4   am
     9     4    21    1
    10    21    22   ar
    11    22    23   ar
    12    23    24   ar
    13    24    27    1
    14    27    28   ar
    15    28    29   ar
    16    29    30   ar
    17    30    34    1
    18    34    35   ar
    19    34    36   ar
    20    30    31   ar
    21    31    32   ar
    22    32    33    1
    23    24    25   ar
    24    25    26   ar
    25     4     5   am
    26     5     6    2
    27     5     7    1
    28     7     8    1
    29     8     9    1
    30     9    10    1
    31    10    37    1
    32    37    38    1
    33    38    39   ar
    34    39    40   ar
    35    40    41   ar
    36    41    42   ar
    37    42    43   ar
    38    43    44    1
    39    10    11    1
    40    11    12    1
    41    15    16   ar
    42    16    17   ar
    43    17    18   ar
    44    18    13   ar
    45     7     1    1
    46    43    38   ar
    47    26    21   ar
    48    12     7    1
    49    32    27   ar
@<TRIPOS>MOLECULE
*****
 44 49 0 0 0
SMALL
GASTEIGER

@<TRIPOS>ATOM
      1 N           2.9023    0.8455   31.4955 N.am    1  UNL1       -0.2222
      2 C           2.3497    0.8106   30.1014 C.2     1  UNL1        0.3219
      3 O           2.7436   -0.1521   29.0206 O.2     1  UNL1       -0.2512
      4 N           1.3340    1.9076   29.9778 N.am    1  UNL1       -0.1907
      5 C           1.2589    2.6203   31.2955 C.2     1  UNL1        0.2529
      6 O           0.3706    3.7850   31.6186 O.2     1  UNL1       -0.2724
      7 C           2.2282    1.9639   32.2335 C.3     1  UNL1        0.1391
      8 C           3.2333    1.2105   33.0533 C.3     1  UNL1        0.0449
      9 C           3.4843    1.6036   34.4790 C.3     1  UNL1        0.0746
     10 N           2.7302    2.7500   35.0848 N.3     1  UNL1       -0.2676
     11 C           1.7251    3.5035   34.2650 C.3     1  UNL1        0.0746
     12 C           1.4741    3.1104   32.8393 C.3     1  UNL1        0.0449
     13 C           6.4414   -0.6359   32.5104 C.ar    1  UNL1        0.2293
     14 C           5.3979    0.2859   31.9523 C.ar    1  UNL1        0.0924
     15 C           3.9458   -0.0763   32.0536 C.ar    1  UNL1        0.1453
     16 N           3.5372   -1.3602   32.7129 N.ar    1  UNL1       -0.2084
     17 C           4.5806   -2.2819   33.2709 C.ar    1  UNL1        0.2027
     18 N           6.0328   -1.9198   33.1697 N.ar    1  UNL1       -0.1892
     19 C           8.3184    0.8945   31.5698 C.3     1  UNL1        0.2542
     20 O           7.8935   -0.2738   32.4092 O.3     1  UNL1       -0.4560
     21 C           0.5340    2.2343   28.7519 C.ar    1  UNL1        0.0622
     22 C           0.4312    3.6544   28.2798 C.ar    1  UNL1        0.0154
     23 C          -0.3689    3.9812   27.0538 C.ar    1  UNL1        0.0013
     24 C          -1.0662    2.8879   26.2998 C.ar    1  UNL1        0.0009
     25 C          -0.9634    1.4677   26.7719 C.ar    1  UNL1        0.0013
     26 C          -0.1633    1.1411   27.9979 C.ar    1  UNL1        0.0154
     27 C          -1.8663    3.2146   25.0738 C.ar    1  UNL1        0.0106
     28 C          -3.3326    3.5079   25.1913 C.ar    1  UNL1        0.0009
     29 C          -4.1327    3.8347   23.9652 C.ar    1  UNL1        0.0012
     30 C          -3.4663    3.8681   22.6218 C.ar    1  UNL1        0.0148
     31 C          -2.0000    3.5749   22.5043 C.ar    1  UNL1        0.0125
     32 C          -1.1999    3.2481   23.7303 C.ar    1  UNL1        0.0577
     33 CL          0.2664    2.9548   23.6128 Cl      1  UNL1       -0.0822
     34 C          -4.2664    4.1949   21.3958 C.2     1  UNL1        0.0729
     35 O          -4.0846    3.3880   20.1444 O.co2   1  UNL1       -0.5446
     36 O          -5.2483    5.3287   21.4211 O.co2   1  UNL1       -0.5446
     37 C           2.9813    3.1431   36.5105 C.3     1  UNL1        0.1183
     38 C           2.2060    2.4901   37.6161 C.ar    1  UNL1        0.0712
     39 N           0.9351    3.1143   38.1112 N.ar    1  UNL1       -0.2471
     40 C           0.1598    2.4612   39.2169 C.ar    1  UNL1        0.0985
     41 C           0.6555    1.1839   39.8275 C.ar    1  UNL1        0.0203
     42 C           1.9264    0.5597   39.3324 C.ar    1  UNL1       -0.0015
     43 C           2.7017    1.2127   38.2268 C.ar    1  UNL1       -0.0069
     44 C           3.9726    0.5885   37.7317 C.3     1  UNL1        0.0323
@<TRIPOS>UNITY_ATOM_ATTR
35 1
charge -1
@<TRIPOS>BOND
     1    19    20    1
     2    20    13    1
     3    13    14   ar
     4    14    15   ar
     5    15     1    1
     6     1     2   am
     7     2     3    2
     8     2     4   am
     9     4    21    1
    10    21    22   ar
    11    22    23   ar
    12    23    24   ar
    13    24    27    1
    14    27    28   ar
    15    28    29   ar
    16    29    30   ar
    17    30    34    1
    18    34    35   ar
    19    34    36   ar
    20    30    31   ar
    21    31    32   ar
    22    32    33    1
    23    24    25   ar
    24    25    26   ar
    25     4     5   am
    26     5     6    2
    27     5     7    1
    28     7     8    1
    29     8     9    1
    30     9    10    1
    31    10    37    1
    32    37    38    1
    33    38    39   ar
    34    39    40   ar
    35    40    41   ar
    36    41    42   ar
    37    42    43   ar
    38    43    44    1
    39    10    11    1
    40    11    12    1
    41    15    16   ar
    42    16    17   ar
    43    17    18   ar
    44    18    13   ar
    45     7     1    1
    46    43    38   ar
    47    26    21   ar
    48    12     7    1
    49    32    27   ar
@<TRIPOS>MOLECULE
*****
 44 49 0 0 0
SMALL
GASTEIGER

@<TRIPOS>ATOM
      1 N           3.7903    0.5180   31.5081 N.am    1  UNL1       -0.2222
      2 C           3.1057    0.6780   30.1829 C.2     1  UNL1        0.3219
      3 O           3.5540    0.0824   28.8813 O.2     1  UNL1       -0.2512
      4 N           1.8941    1.5383   30.3881 N.am    1  UNL1       -0.1907
      5 C           1.8299    1.9100   31.8399 C.2     1  UNL1        0.2529
      6 O           0.7785    2.7625   32.4861 O.2     1  UNL1       -0.2724
      7 C           3.0018    1.2794   32.5321 C.3     1  UNL1        0.1391
      8 C           4.2141    0.5900   33.0844 C.3     1  UNL1        0.0449
      9 C           4.5402    0.7012   34.5442 C.3     1  UNL1        0.0746
     10 N           3.6541    1.5019   35.4518 N.3     1  UNL1       -0.2676
     11 C           2.4418    2.1912   34.8995 C.3     1  UNL1        0.0746
     12 C           2.1156    2.0800   33.4397 C.3     1  UNL1        0.0449
     13 C           6.2211   -2.5297   32.2512 C.ar    1  UNL1        0.2293
     14 C           4.9681   -1.7459   31.9951 C.ar    1  UNL1        0.0924
     15 C           5.0433   -0.2658   31.7641 C.ar    1  UNL1        0.1453
     16 N           6.3716    0.4306   31.7891 N.ar    1  UNL1       -0.2084
     17 C           7.6247   -0.3530   32.0451 C.ar    1  UNL1        0.2027
     18 N           7.5494   -1.8333   32.2761 N.ar    1  UNL1       -0.1892
     19 C           6.9105   -4.9471   31.5951 C.3     1  UNL1        0.2542
     20 O           6.1459   -4.0099   32.4822 O.3     1  UNL1       -0.4560
     21 C           0.9181    1.9540   29.3277 C.ar    1  UNL1        0.0622
     22 C           0.8469    3.3883   28.8945 C.ar    1  UNL1        0.0154
     23 C          -0.1291    3.8039   27.8340 C.ar    1  UNL1        0.0013
     24 C          -1.0339    2.7853   27.2066 C.ar    1  UNL1        0.0009
     25 C          -0.9627    1.3509   27.6398 C.ar    1  UNL1        0.0013
     26 C           0.0133    0.9353   28.7003 C.ar    1  UNL1        0.0154
     27 C          -2.0099    3.2009   26.1461 C.ar    1  UNL1        0.0106
     28 C          -3.3907    3.6440   26.5297 C.ar    1  UNL1        0.0009
     29 C          -4.3667    4.0597   25.4692 C.ar    1  UNL1        0.0012
     30 C          -3.9618    4.0322   24.0252 C.ar    1  UNL1        0.0148
     31 C          -2.5811    3.5891   23.6416 C.ar    1  UNL1        0.0125
     32 C          -1.6051    3.1734   24.7020 C.ar    1  UNL1        0.0577
     33 CL         -0.2244    2.7303   24.3184 Cl      1  UNL1       -0.0822
     34 C          -4.9379    4.4478   22.9646 C.2     1  UNL1        0.0729
     35 O          -6.1272    3.5858   22.6605 O.co2   1  UNL1       -0.5446
     36 O          -4.7245    5.7256   22.2083 O.co2   1  UNL1       -0.5446
     37 C           3.9803    1.6131   36.9117 C.3     1  UNL1        0.1183
     38 C           2.8808    1.5708   37.9312 C.ar    1  UNL1        0.0712
     39 N           2.3880    0.2520   38.4486 N.ar    1  UNL1       -0.2471
     40 C           1.2885    0.2098   39.4681 C.ar    1  UNL1        0.0985
     41 C           0.6818    1.4864   39.9702 C.ar    1  UNL1        0.0203
     42 C           1.1746    2.8053   39.4528 C.ar    1  UNL1       -0.0015
     43 C           2.2741    2.8475   38.4334 C.ar    1  UNL1       -0.0069
     44 C           2.7669    4.1664   37.9160 C.3     1  UNL1        0.0323
@<TRIPOS>UNITY_ATOM_ATTR
35 1
charge -1
@<TRIPOS>BOND
     1    19    20    1
     2    20    13    1
     3    13    14   ar
     4    14    15   ar
     5    15     1    1
     6     1     2   am
     7     2     3    2
     8     2     4   am
     9     4    21    1
    10    21    22   ar
    11    22    23   ar
    12    23    24   ar
    13    24    27    1
    14    27    28   ar
    15    28    29   ar
    16    29    30   ar
    17    30    34    1
    18    34    35   ar
    19    34    36   ar
    20    30    31   ar
    21    31    32   ar
    22    32    33    1
    23    24    25   ar
    24    25    26   ar
    25     4     5   am
    26     5     6    2
    27     5     7    1
    28     7     8    1
    29     8     9    1
    30     9    10    1
    31    10    37    1
    32    37    38    1
    33    38    39   ar
    34    39    40   ar
    35    40    41   ar
    36    41    42   ar
    37    42    43   ar
    38    43    44    1
    39    10    11    1
    40    11    12    1
    41    15    16   ar
    42    16    17   ar
    43    17    18   ar
    44    18    13   ar
    45     7     1    1
    46    43    38   ar
    47    26    21   ar
    48    12     7    1
    49    32    27   ar
@<TRIPOS>MOLECULE
*****
 44 49 0 0 0
SMALL
GASTEIGER

@<TRIPOS>ATOM
      1 N           3.5011   -1.0143   21.7809 N.am    1  UNL1       -0.2222
      2 C           2.2793   -0.1516   21.8963 C.2     1  UNL1        0.3219
      3 O           1.3875    0.2696   20.7661 O.2     1  UNL1       -0.2512
      4 N           2.1059    0.2157   23.3403 N.am    1  UNL1       -0.1907
      5 C           3.2204   -0.4198   24.1173 C.2     1  UNL1        0.2529
      6 O           3.4351   -0.3139   25.5980 O.2     1  UNL1       -0.2724
      7 C           4.0827   -1.1801   23.1536 C.3     1  UNL1        0.1391
      8 C           4.8470   -1.8920   22.0770 C.3     1  UNL1        0.0449
      9 C           6.0752   -2.6796   22.4249 C.3     1  UNL1        0.0746
     10 N           6.5392   -2.7553   23.8494 N.3     1  UNL1       -0.2676
     11 C           5.7749   -2.0434   24.9259 C.3     1  UNL1        0.0746
     12 C           4.5467   -1.2557   24.5780 C.3     1  UNL1        0.0449
     13 C           5.5682   -1.4240   18.4181 C.ar    1  UNL1        0.2293
     14 C           5.0237   -0.8312   19.6838 C.ar    1  UNL1        0.0924
     15 C           4.0455   -1.6071   20.5151 C.ar    1  UNL1        0.1453
     16 N           3.6117   -2.9757   20.0807 N.ar    1  UNL1       -0.2084
     17 C           4.1561   -3.5685   18.8150 C.ar    1  UNL1        0.2027
     18 N           5.1344   -2.7926   17.9836 N.ar    1  UNL1       -0.1892
     19 C           6.0979    0.5806   16.8527 C.3     1  UNL1        0.2542
     20 O           6.5464   -0.6483   17.5867 O.3     1  UNL1       -0.4560
     21 C           1.0104    1.0688   23.9075 C.ar    1  UNL1        0.0622
     22 C           0.4547    2.2076   23.1048 C.ar    1  UNL1        0.0154
     23 C          -0.6409    3.0608   23.6721 C.ar    1  UNL1        0.0013
     24 C          -1.1808    2.7752   25.0421 C.ar    1  UNL1        0.0009
     25 C          -0.6251    1.6363   25.8449 C.ar    1  UNL1        0.0013
     26 C           0.4705    0.7832   25.2775 C.ar    1  UNL1        0.0154
     27 C          -2.2764    3.6283   25.6095 C.ar    1  UNL1        0.0106
     28 C          -3.6929    3.4277   25.1586 C.ar    1  UNL1        0.0009
     29 C          -4.7885    4.2809   25.7260 C.ar    1  UNL1        0.0012
     30 C          -4.4675    5.3346   26.7441 C.ar    1  UNL1        0.0148
     31 C          -3.0510    5.5352   27.1949 C.ar    1  UNL1        0.0125
     32 C          -1.9554    4.6821   26.6276 C.ar    1  UNL1        0.0577
     33 CL         -0.5389    4.8827   27.0785 Cl      1  UNL1       -0.0822
     34 C          -5.5631    6.1878   27.3114 C.2     1  UNL1        0.0729
     35 O          -6.8571    6.3389   26.5681 O.co2   1  UNL1       -0.5446
     36 O          -5.3645    6.8898   28.6221 O.co2   1  UNL1       -0.5446
     37 C           7.7675   -3.5430   24.1972 C.3     1  UNL1        0.1183
     38 C           7.6363   -4.9251   24.7650 C.ar    1  UNL1        0.0712
     39 N           6.9658   -5.1308   26.0910 N.ar    1  UNL1       -0.2471
     40 C           6.8346   -6.5130   26.6587 C.ar    1  UNL1        0.0985
     41 C           7.3738   -7.6896   25.9005 C.ar    1  UNL1        0.0203
     42 C           8.0443   -7.4839   24.5745 C.ar    1  UNL1       -0.0015
     43 C           8.1755   -6.1018   24.0067 C.ar    1  UNL1       -0.0069
     44 C           8.8459   -5.8961   22.6808 C.3     1  UNL1        0.0323
@<TRIPOS>UNITY_ATOM_ATTR
35 1
charge -1
@<TRIPOS>BOND
     1    19    20    1
     2    20    13    1
     3    13    14   ar
     4    14    15   ar
     5    15     1    1
     6     1     2   am
     7     2     3    2
     8     2     4   am
     9     4    21    1
    10    21    22   ar
    11    22    23   ar
    12    23    24   ar
    13    24    27    1
    14    27    28   ar
    15    28    29   ar
    16    29    30   ar
    17    30    34    1
    18    34    35   ar
    19    34    36   ar
    20    30    31   ar
    21    31    32   ar
    22    32    33    1
    23    24    25   ar
    24    25    26   ar
    25     4     5   am
    26     5     6    2
    27     5     7    1
    28     7     8    1
    29     8     9    1
    30     9    10    1
    31    10    37    1
    32    37    38    1
    33    38    39   ar
    34    39    40   ar
    35    40    41   ar
    36    41    42   ar
    37    42    43   ar
    38    43    44    1
    39    10    11    1
    40    11    12    1
    41    15    16   ar
    42    16    17   ar
    43    17    18   ar
    44    18    13   ar
    45     7     1    1
    46    43    38   ar
    47    26    21   ar
    48    12     7    1
    49    32    27   ar
@<TRIPOS>MOLECULE
*****
 44 49 0 0 0
SMALL
GASTEIGER

@<TRIPOS>ATOM
      1 N           3.3599   -0.5851   22.0367 N.am    1  UNL1       -0.2222
      2 C           2.1134    0.2452   22.1222 C.2     1  UNL1        0.3219
      3 O           1.2550    0.6684   20.9672 O.2     1  UNL1       -0.2512
      4 N           1.8761    0.5778   23.5655 N.am    1  UNL1       -0.1907
      5 C           2.9759   -0.0469   24.3720 C.2     1  UNL1        0.2529
      6 O           3.1314    0.0331   25.8617 O.2     1  UNL1       -0.2724
      7 C           3.8929   -0.7656   23.4271 C.3     1  UNL1        0.1391
      8 C           4.7151   -1.4360   22.3667 C.3     1  UNL1        0.0449
      9 C           5.9485   -2.2008   22.7458 C.3     1  UNL1        0.0746
     10 N           6.3597   -2.2952   24.1852 N.3     1  UNL1       -0.2676
     11 C           5.5375   -1.6248   25.2456 C.3     1  UNL1        0.0746
     12 C           4.3041   -0.8599   24.8666 C.3     1  UNL1        0.0449
     13 C           4.1727   -3.0498   19.0343 C.ar    1  UNL1        0.2293
     14 C           3.5659   -2.4971   20.2898 C.ar    1  UNL1        0.0924
     15 C           3.9667   -1.1377   20.7812 C.ar    1  UNL1        0.1453
     16 N           4.9743   -0.3310   20.0170 N.ar    1  UNL1       -0.2084
     17 C           5.5811   -0.8836   18.7615 C.ar    1  UNL1        0.2027
     18 N           5.1803   -2.2431   18.2701 N.ar    1  UNL1       -0.1892
     19 C           4.6251   -5.6020   18.8578 C.3     1  UNL1        0.2542
     20 O           3.7719   -4.4091   18.5429 O.3     1  UNL1       -0.4560
     21 C           0.7389    1.3920   24.1072 C.ar    1  UNL1        0.0622
     22 C           0.1617    1.0714   25.4540 C.ar    1  UNL1        0.0154
     23 C          -0.9757    1.8857   25.9957 C.ar    1  UNL1        0.0013
     24 C          -1.5358    3.0206   25.1906 C.ar    1  UNL1        0.0009
     25 C          -0.9586    3.3412   23.8436 C.ar    1  UNL1        0.0013
     26 C           0.1787    2.5269   23.3020 C.ar    1  UNL1        0.0154
     27 C          -2.6732    3.8349   25.7323 C.ar    1  UNL1        0.0106
     28 C          -4.0683    3.5992   25.2341 C.ar    1  UNL1        0.0009
     29 C          -5.2056    4.4135   25.7758 C.ar    1  UNL1        0.0012
     30 C          -4.9477    5.4634   26.8157 C.ar    1  UNL1        0.0148
     31 C          -3.5526    5.6991   27.3138 C.ar    1  UNL1        0.0125
     32 C          -2.4153    4.8848   26.7721 C.ar    1  UNL1        0.0577
     33 CL         -1.0202    5.1205   27.2702 Cl      1  UNL1       -0.0822
     34 C          -6.0851    6.2777   27.3574 C.2     1  UNL1        0.0729
     35 O          -6.8166    5.8211   28.5847 O.co2   1  UNL1       -0.5446
     36 O          -6.4909    7.5487   26.6717 O.co2   1  UNL1       -0.5446
     37 C           7.5931   -3.0601   24.5643 C.3     1  UNL1        0.1183
     38 C           7.4819   -4.4853   25.0186 C.ar    1  UNL1        0.0712
     39 N           6.8246   -4.8058   26.3283 N.ar    1  UNL1       -0.2471
     40 C           6.7134   -6.2310   26.7827 C.ar    1  UNL1        0.0985
     41 C           7.2593   -7.3357   25.9274 C.ar    1  UNL1        0.0203
     42 C           7.9165   -7.0152   24.6177 C.ar    1  UNL1       -0.0015
     43 C           8.0278   -5.5900   24.1633 C.ar    1  UNL1       -0.0069
     44 C           8.6851   -5.2695   22.8536 C.3     1  UNL1        0.0323
@<TRIPOS>UNITY_ATOM_ATTR
35 1
charge -1
@<TRIPOS>BOND
     1    19    20    1
     2    20    13    1
     3    13    14   ar
     4    14    15   ar
     5    15     1    1
     6     1     2   am
     7     2     3    2
     8     2     4   am
     9     4    21    1
    10    21    22   ar
    11    22    23   ar
    12    23    24   ar
    13    24    27    1
    14    27    28   ar
    15    28    29   ar
    16    29    30   ar
    17    30    34    1
    18    34    35   ar
    19    34    36   ar
    20    30    31   ar
    21    31    32   ar
    22    32    33    1
    23    24    25   ar
    24    25    26   ar
    25     4     5   am
    26     5     6    2
    27     5     7    1
    28     7     8    1
    29     8     9    1
    30     9    10    1
    31    10    37    1
    32    37    38    1
    33    38    39   ar
    34    39    40   ar
    35    40    41   ar
    36    41    42   ar
    37    42    43   ar
    38    43    44    1
    39    10    11    1
    40    11    12    1
    41    15    16   ar
    42    16    17   ar
    43    17    18   ar
    44    18    13   ar
    45     7     1    1
    46    43    38   ar
    47    26    21   ar
    48    12     7    1
    49    32    27   ar
@<TRIPOS>MOLECULE
*****
 44 49 0 0 0
SMALL
GASTEIGER

@<TRIPOS>ATOM
      1 N           4.3176   -0.1568   31.4999 N.am    1  UNL1       -0.2222
      2 C           3.5716    0.0549   30.2158 C.2     1  UNL1        0.3219
      3 O           3.9255   -0.5352   28.8830 O.2     1  UNL1       -0.2512
      4 N           2.4096    0.9603   30.4988 N.am    1  UNL1       -0.1907
      5 C           2.4374    1.3082   31.9576 C.2     1  UNL1        0.2529
      6 O           1.4581    2.1913   32.6723 O.2     1  UNL1       -0.2724
      7 C           3.6167    0.6177   32.5764 C.3     1  UNL1        0.1391
      8 C           4.8264   -0.1305   33.0523 C.3     1  UNL1        0.0449
      9 C           5.2332   -0.0589   34.4943 C.3     1  UNL1        0.0746
     10 N           4.4303    0.7609   35.4603 N.3     1  UNL1       -0.2676
     11 C           3.2206    1.5092   34.9843 C.3     1  UNL1        0.0746
     12 C           2.8138    1.4376   33.5424 C.3     1  UNL1        0.0449
     13 C           6.6528   -3.3062   32.1152 C.ar    1  UNL1        0.2293
     14 C           5.4219   -2.4672   31.9386 C.ar    1  UNL1        0.0924
     15 C           5.5485   -0.9958   31.6764 C.ar    1  UNL1        0.1453
     16 N           6.9059   -0.3632   31.5908 N.ar    1  UNL1       -0.2084
     17 C           8.1368   -1.2021   31.7673 C.ar    1  UNL1        0.2027
     18 N           8.0102   -2.6736   32.0295 N.ar    1  UNL1       -0.1892
     19 C           6.9842   -5.7653   31.3455 C.3     1  UNL1        0.2542
     20 O           6.5263   -4.7776   32.3774 O.3     1  UNL1       -0.4560
     21 C           1.3975    1.4345   29.4985 C.ar    1  UNL1        0.0622
     22 C           1.4358    2.8510   29.0066 C.ar    1  UNL1        0.0154
     23 C           0.4237    3.3253   28.0063 C.ar    1  UNL1        0.0013
     24 C          -0.6269    2.3831   27.4979 C.ar    1  UNL1        0.0009
     25 C          -0.6653    0.9665   27.9898 C.ar    1  UNL1        0.0013
     26 C           0.3469    0.4923   28.9901 C.ar    1  UNL1        0.0154
     27 C          -1.6390    2.8573   26.4975 C.ar    1  UNL1        0.0106
     28 C          -2.9377    3.4443   26.9653 C.ar    1  UNL1        0.0009
     29 C          -3.9499    3.9186   25.9650 C.ar    1  UNL1        0.0012
     30 C          -3.6633    3.8058   24.4969 C.ar    1  UNL1        0.0148
     31 C          -2.3646    3.2188   24.0292 C.ar    1  UNL1        0.0125
     32 C          -1.3524    2.7446   25.0294 C.ar    1  UNL1        0.0577
     33 CL         -0.0537    2.1576   24.5617 Cl      1  UNL1       -0.0822
     34 C          -4.6754    4.2800   23.4966 C.2     1  UNL1        0.0729
     35 O          -4.9242    5.7487   23.3199 O.co2   1  UNL1       -0.5446
     36 O          -5.4389    3.2856   22.6729 O.co2   1  UNL1       -0.5446
     37 C           4.8372    0.8325   36.9024 C.3     1  UNL1        0.1183
     38 C           4.6079    2.0916   37.6847 C.ar    1  UNL1        0.0712
     39 N           5.5709    3.2353   37.5642 N.ar    1  UNL1       -0.2471
     40 C           5.3416    4.4944   38.3467 C.ar    1  UNL1        0.0985
     41 C           4.1494    4.6098   39.2495 C.ar    1  UNL1        0.0203
     42 C           3.1864    3.4660   39.3700 C.ar    1  UNL1       -0.0015
     43 C           3.4156    2.2070   38.5876 C.ar    1  UNL1       -0.0069
     44 C           2.4526    1.0632   38.7081 C.3     1  UNL1        0.0323
@<TRIPOS>UNITY_ATOM_ATTR
35 1
charge -1
@<TRIPOS>BOND
     1    19    20    1
     2    20    13    1
     3    13    14   ar
     4    14    15   ar
     5    15     1    1
     6     1     2   am
     7     2     3    2
     8     2     4   am
     9     4    21    1
    10    21    22   ar
    11    22    23   ar
    12    23    24   ar
    13    24    27    1
    14    27    28   ar
    15    28    29   ar
    16    29    30   ar
    17    30    34    1
    18    34    35   ar
    19    34    36   ar
    20    30    31   ar
    21    31    32   ar
    22    32    33    1
    23    24    25   ar
    24    25    26   ar
    25     4     5   am
    26     5     6    2
    27     5     7    1
    28     7     8    1
    29     8     9    1
    30     9    10    1
    31    10    37    1
    32    37    38    1
    33    38    39   ar
    34    39    40   ar
    35    40    41   ar
    36    41    42   ar
    37    42    43   ar
    38    43    44    1
    39    10    11    1
    40    11    12    1
    41    15    16   ar
    42    16    17   ar
    43    17    18   ar
    44    18    13   ar
    45     7     1    1
    46    43    38   ar
    47    26    21   ar
    48    12     7    1
    49    32    27   ar
@<TRIPOS>MOLECULE
*****
 44 49 0 0 0
SMALL
GASTEIGER

@<TRIPOS>ATOM
      1 N           1.5343    1.8895   24.2036 N.am    1  UNL1       -0.2222
      2 C           1.6527    2.1416   25.6776 C.2     1  UNL1        0.3219
      3 O           1.0779    3.3107   26.4211 O.2     1  UNL1       -0.2512
      4 N           2.4469    1.0193   26.2774 N.am    1  UNL1       -0.1907
      5 C           2.8193    0.0736   25.1742 C.2     1  UNL1        0.2529
      6 O           3.6159   -1.1883   25.3260 O.2     1  UNL1       -0.2724
      7 C           2.2553    0.6114   23.8925 C.3     1  UNL1        0.1391
      8 C           1.6342    1.2685   22.6956 C.3     1  UNL1        0.0449
      9 C           1.7677    0.6387   21.3408 C.3     1  UNL1        0.0746
     10 N           2.5223   -0.6480   21.1829 N.3     1  UNL1       -0.2676
     11 C           3.1433   -1.3051   22.3797 C.3     1  UNL1        0.0746
     12 C           3.0098   -0.6753   23.7346 C.3     1  UNL1        0.0449
     13 C          -1.3373    3.3811   21.9060 C.ar    1  UNL1        0.2293
     14 C          -0.6233    2.5084   22.8952 C.ar    1  UNL1        0.0924
     15 C           0.8202    2.7622   23.2144 C.ar    1  UNL1        0.1453
     16 N           1.5496    3.8888   22.5445 N.ar    1  UNL1       -0.2084
     17 C           0.8357    4.7615   21.5553 C.ar    1  UNL1        0.2027
     18 N          -0.6079    4.5077   21.2361 N.ar    1  UNL1       -0.1892
     19 C          -3.3185    3.4635   20.2274 C.3     1  UNL1        0.2542
     20 O          -2.7808    3.1274   21.5868 O.3     1  UNL1       -0.4560
     21 C           2.8057    0.8691   27.7260 C.ar    1  UNL1        0.0622
     22 C           2.1123   -0.1608   28.5676 C.ar    1  UNL1        0.0154
     23 C           2.4711   -0.3110   30.0163 C.ar    1  UNL1        0.0013
     24 C           3.5234    0.5687   30.6234 C.ar    1  UNL1        0.0009
     25 C           4.2169    1.5988   29.7819 C.ar    1  UNL1        0.0013
     26 C           3.8580    1.7489   28.3332 C.ar    1  UNL1        0.0154
     27 C           3.8822    0.4185   32.0721 C.ar    1  UNL1        0.0106
     28 C           3.3127    1.3641   33.0878 C.ar    1  UNL1        0.0009
     29 C           3.6715    1.2139   34.5365 C.ar    1  UNL1        0.0012
     30 C           4.5999    0.1181   34.9694 C.ar    1  UNL1        0.0148
     31 C           5.1694   -0.8275   33.9538 C.ar    1  UNL1        0.0125
     32 C           4.8106   -0.6773   32.5051 C.ar    1  UNL1        0.0577
     33 CL          5.3801   -1.6228   31.4895 Cl      1  UNL1       -0.0822
     34 C           4.9587   -0.0321   36.4181 C.2     1  UNL1        0.0729
     35 O           4.0111    0.4443   37.4788 O.co2   1  UNL1       -0.5446
     36 O           6.2653   -0.6587   36.8061 O.co2   1  UNL1       -0.5446
     37 C           2.6558   -1.2777   19.8279 C.3     1  UNL1        0.1183
     38 C           4.0163   -1.5547   19.2604 C.ar    1  UNL1        0.0712
     39 N           4.9793   -0.4267   19.0362 N.ar    1  UNL1       -0.2471
     40 C           6.3399   -0.7038   18.4686 C.ar    1  UNL1        0.0985
     41 C           6.7374   -2.1088   18.1252 C.ar    1  UNL1        0.0203
     42 C           5.7745   -3.2368   18.3495 C.ar    1  UNL1       -0.0015
     43 C           4.4139   -2.9598   18.9170 C.ar    1  UNL1       -0.0069
     44 C           3.4509   -4.0878   19.1412 C.3     1  UNL1        0.0323
@<TRIPOS>UNITY_ATOM_ATTR
35 1
charge -1
@<TRIPOS>BOND
     1    19    20    1
     2    20    13    1
     3    13    14   ar
     4    14    15   ar
     5    15     1    1
     6     1     2   am
     7     2     3    2
     8     2     4   am
     9     4    21    1
    10    21    22   ar
    11    22    23   ar
    12    23    24   ar
    13    24    27    1
    14    27    28   ar
    15    28    29   ar
    16    29    30   ar
    17    30    34    1
    18    34    35   ar
    19    34    36   ar
    20    30    31   ar
    21    31    32   ar
    22    32    33    1
    23    24    25   ar
    24    25    26   ar
    25     4     5   am
    26     5     6    2
    27     5     7    1
    28     7     8    1
    29     8     9    1
    30     9    10    1
    31    10    37    1
    32    37    38    1
    33    38    39   ar
    34    39    40   ar
    35    40    41   ar
    36    41    42   ar
    37    42    43   ar
    38    43    44    1
    39    10    11    1
    40    11    12    1
    41    15    16   ar
    42    16    17   ar
    43    17    18   ar
    44    18    13   ar
    45     7     1    1
    46    43    38   ar
    47    26    21   ar
    48    12     7    1
    49    32    27   ar
@<TRIPOS>MOLECULE
*****
 44 49 0 0 0
SMALL
GASTEIGER

@<TRIPOS>ATOM
      1 N           6.0620   -2.2771   26.1160 N.am    1  UNL1       -0.2222
      2 C           6.1312   -1.9789   27.5845 C.2     1  UNL1        0.3219
      3 O           7.1874   -2.4623   28.5336 O.2     1  UNL1       -0.2512
      4 N           4.9586   -1.1124   27.9372 N.am    1  UNL1       -0.1907
      5 C           4.1648   -0.8752   26.6868 C.2     1  UNL1        0.2529
      6 O           2.9095   -0.0611   26.5805 O.2     1  UNL1       -0.2724
      7 C           4.8467   -1.5950   25.5612 C.3     1  UNL1        0.1391
      8 C           5.6353   -2.3614   24.5411 C.3     1  UNL1        0.0449
      9 C           5.1816   -2.3934   23.1117 C.3     1  UNL1        0.0746
     10 N           3.9394   -1.6590   22.7025 N.3     1  UNL1       -0.2676
     11 C           3.1508   -0.8927   23.7226 C.3     1  UNL1        0.0746
     12 C           3.6044   -0.8606   25.1520 C.3     1  UNL1        0.0449
     13 C           7.8875   -5.4398   24.5621 C.ar    1  UNL1        0.2293
     14 C           6.9126   -4.6059   25.3393 C.ar    1  UNL1        0.0924
     15 C           7.0370   -3.1111   25.3388 C.ar    1  UNL1        0.1453
     16 N           8.1363   -2.4502   24.5612 N.ar    1  UNL1       -0.2084
     17 C           9.1113   -3.2841   23.7841 C.ar    1  UNL1        0.2027
     18 N           8.9869   -4.7790   23.7845 N.ar    1  UNL1       -0.1892
     19 C           7.5905   -7.6725   25.8571 C.3     1  UNL1        0.2542
     20 O           7.7632   -6.9347   24.5625 O.3     1  UNL1       -0.4560
     21 C           4.6364   -0.5773   29.3009 C.ar    1  UNL1        0.0622
     22 C           3.3261   -0.9142   29.9485 C.ar    1  UNL1        0.0154
     23 C           3.0039   -0.3789   31.3123 C.ar    1  UNL1        0.0013
     24 C           3.9921    0.4932   32.0284 C.ar    1  UNL1        0.0009
     25 C           5.3026    0.8301   31.3808 C.ar    1  UNL1        0.0013
     26 C           5.6246    0.2949   30.0170 C.ar    1  UNL1        0.0154
     27 C           3.6699    1.0284   33.3921 C.ar    1  UNL1        0.0106
     28 C           2.7330    2.1905   33.5397 C.ar    1  UNL1        0.0009
     29 C           2.4109    2.7257   34.9034 C.ar    1  UNL1        0.0012
     30 C           3.0257    2.0987   36.1196 C.ar    1  UNL1        0.0148
     31 C           3.9626    0.9367   35.9720 C.ar    1  UNL1        0.0125
     32 C           4.2848    0.4015   34.6084 C.ar    1  UNL1        0.0577
     33 CL          5.2217   -0.7606   34.4608 Cl      1  UNL1       -0.0822
     34 C           2.7035    2.6340   37.4833 C.2     1  UNL1        0.0729
     35 O           1.3401    3.1910   37.7676 O.co2   1  UNL1       -0.5446
     36 O           3.7449    2.6121   38.5628 O.co2   1  UNL1       -0.5446
     37 C           3.4857   -1.6911   21.2731 C.3     1  UNL1        0.1183
     38 C           4.4935   -1.8133   20.1689 C.ar    1  UNL1        0.0712
     39 N           5.4761   -0.7067   19.9244 N.ar    1  UNL1       -0.2471
     40 C           6.4840   -0.8290   18.8201 C.ar    1  UNL1        0.0985
     41 C           6.5093   -2.0579   17.9605 C.ar    1  UNL1        0.0203
     42 C           5.5267   -3.1645   18.2050 C.ar    1  UNL1       -0.0015
     43 C           4.5188   -3.0423   19.3091 C.ar    1  UNL1       -0.0069
     44 C           3.5362   -4.1490   19.5536 C.3     1  UNL1        0.0323
@<TRIPOS>UNITY_ATOM_ATTR
35 1
charge -1
@<TRIPOS>BOND
     1    19    20    1
     2    20    13    1
     3    13    14   ar
     4    14    15   ar
     5    15     1    1
     6     1     2   am
     7     2     3    2
     8     2     4   am
     9     4    21    1
    10    21    22   ar
    11    22    23   ar
    12    23    24   ar
    13    24    27    1
    14    27    28   ar
    15    28    29   ar
    16    29    30   ar
    17    30    34    1
    18    34    35   ar
    19    34    36   ar
    20    30    31   ar
    21    31    32   ar
    22    32    33    1
    23    24    25   ar
    24    25    26   ar
    25     4     5   am
    26     5     6    2
    27     5     7    1
    28     7     8    1
    29     8     9    1
    30     9    10    1
    31    10    37    1
    32    37    38    1
    33    38    39   ar
    34    39    40   ar
    35    40    41   ar
    36    41    42   ar
    37    42    43   ar
    38    43    44    1
    39    10    11    1
    40    11    12    1
    41    15    16   ar
    42    16    17   ar
    43    17    18   ar
    44    18    13   ar
    45     7     1    1
    46    43    38   ar
    47    26    21   ar
    48    12     7    1
    49    32    27   ar
@<TRIPOS>MOLECULE
*****
 44 49 0 0 0
SMALL
GASTEIGER

@<TRIPOS>ATOM
      1 N           5.5274   -0.4805   32.7191 N.am    1  UNL1       -0.2222
      2 C           5.9636   -0.0220   34.0791 C.2     1  UNL1        0.3219
      3 O           7.2352   -0.4090   34.7742 O.2     1  UNL1       -0.2512
      4 N           4.9049    0.8916   34.6219 N.am    1  UNL1       -0.1907
      5 C           3.8144    0.9977   33.5974 C.2     1  UNL1        0.2529
      6 O           2.5595    1.8093   33.7262 O.2     1  UNL1       -0.2724
      7 C           4.1991    0.1496   32.4213 C.3     1  UNL1        0.1391
      8 C           4.7146   -0.7342   31.3245 C.3     1  UNL1        0.0449
      9 C           3.9120   -0.9195   30.0710 C.3     1  UNL1        0.0746
     10 N           2.5938   -0.2209   29.9143 N.3     1  UNL1       -0.2676
     11 C           2.0783    0.6629   31.0111 C.3     1  UNL1        0.0746
     12 C           2.8809    0.8482   32.2646 C.3     1  UNL1        0.0449
     13 C           6.9095   -3.8177   31.0750 C.ar    1  UNL1        0.2293
     14 C           6.1506   -2.8916   31.9786 C.ar    1  UNL1        0.0924
     15 C           6.2862   -1.4066   31.8155 C.ar    1  UNL1        0.1453
     16 N           7.1806   -0.8479   30.7488 N.ar    1  UNL1       -0.2084
     17 C           7.9394   -1.7739   29.8452 C.ar    1  UNL1        0.2027
     18 N           7.8038   -3.2589   30.0083 N.ar    1  UNL1       -0.1892
     19 C           7.9916   -6.1770   31.1855 C.3     1  UNL1        0.2542
     20 O           6.7740   -5.3026   31.2381 O.3     1  UNL1       -0.4560
     21 C           4.9319    1.5785   35.9550 C.ar    1  UNL1        0.0622
     22 C           5.6081    2.9097   36.0992 C.ar    1  UNL1        0.0154
     23 C           5.6351    3.5966   37.4325 C.ar    1  UNL1        0.0013
     24 C           4.9860    2.9524   38.6214 C.ar    1  UNL1        0.0009
     25 C           4.3099    1.6211   38.4772 C.ar    1  UNL1        0.0013
     26 C           4.2829    0.9343   37.1439 C.ar    1  UNL1        0.0154
     27 C           5.0131    3.6393   39.9546 C.ar    1  UNL1        0.0106
     28 C           3.8221    4.4246   40.4180 C.ar    1  UNL1        0.0009
     29 C           3.8492    5.1116   41.7512 C.ar    1  UNL1        0.0012
     30 C           5.0673    5.0130   42.6210 C.ar    1  UNL1        0.0148
     31 C           6.2583    4.2276   42.1576 C.ar    1  UNL1        0.0125
     32 C           6.2312    3.5408   40.8245 C.ar    1  UNL1        0.0577
     33 CL          7.4222    2.7554   40.3612 Cl      1  UNL1       -0.0822
     34 C           5.0943    5.6999   43.9542 C.2     1  UNL1        0.0729
     35 O           5.2180    4.8919   45.2119 O.co2   1  UNL1       -0.5446
     36 O           4.9977    7.1950   44.0297 O.co2   1  UNL1       -0.5446
     37 C           1.7912   -0.4063   28.6606 C.3     1  UNL1        0.1183
     38 C           1.0304    0.7485   28.0796 C.ar    1  UNL1        0.0712
     39 N           1.7695    1.9160   27.4960 N.ar    1  UNL1       -0.2471
     40 C           1.0085    3.0708   26.9150 C.ar    1  UNL1        0.0985
     41 C          -0.4914    3.0580   26.9176 C.ar    1  UNL1        0.0203
     42 C          -1.2305    1.8905   27.5012 C.ar    1  UNL1       -0.0015
     43 C          -0.4696    0.7357   28.0822 C.ar    1  UNL1       -0.0069
     44 C          -1.2087   -0.4318   28.6658 C.3     1  UNL1        0.0323
@<TRIPOS>UNITY_ATOM_ATTR
35 1
charge -1
@<TRIPOS>BOND
     1    19    20    1
     2    20    13    1
     3    13    14   ar
     4    14    15   ar
     5    15     1    1
     6     1     2   am
     7     2     3    2
     8     2     4   am
     9     4    21    1
    10    21    22   ar
    11    22    23   ar
    12    23    24   ar
    13    24    27    1
    14    27    28   ar
    15    28    29   ar
    16    29    30   ar
    17    30    34    1
    18    34    35   ar
    19    34    36   ar
    20    30    31   ar
    21    31    32   ar
    22    32    33    1
    23    24    25   ar
    24    25    26   ar
    25     4     5   am
    26     5     6    2
    27     5     7    1
    28     7     8    1
    29     8     9    1
    30     9    10    1
    31    10    37    1
    32    37    38    1
    33    38    39   ar
    34    39    40   ar
    35    40    41   ar
    36    41    42   ar
    37    42    43   ar
    38    43    44    1
    39    10    11    1
    40    11    12    1
    41    15    16   ar
    42    16    17   ar
    43    17    18   ar
    44    18    13   ar
    45     7     1    1
    46    43    38   ar
    47    26    21   ar
    48    12     7    1
    49    32    27   ar
