@<TRIPOS>MOLECULE
*****
 30 33 0 0 0
SMALL
GASTEIGER

@<TRIPOS>ATOM
      1 C           6.0476   -2.8503   22.9295 C.3     1  UNL1        0.2026
      2 C           5.5721   -3.1387   21.5364 C.ar    1  UNL1        0.0146
      3 C           6.1920   -3.8988   20.4015 C.ar    1  UNL1       -0.0011
      4 C           5.4644   -4.0222   19.0957 C.ar    1  UNL1       -0.0002
      5 C           4.1170   -3.3856   18.9247 C.ar    1  UNL1       -0.0003
      6 C           3.4972   -2.6256   20.0596 C.ar    1  UNL1       -0.0044
      7 C           4.2247   -2.5021   21.3655 C.ar    1  UNL1       -0.0213
      8 C           3.8675   -1.8203   22.6529 C.3     1  UNL1        0.0461
      9 C           4.9941   -2.0354   23.6196 C.3     1  UNL1        0.1066
     10 N           5.0563   -1.5253   25.0288 N.3     1  UNL1       -0.2692
     11 C           6.3495   -1.0029   25.5809 C.3     1  UNL1        0.0723
     12 C           6.4116   -0.4928   26.9902 C.3     1  UNL1        0.0187
     13 C           5.1807   -0.5051   27.8472 C.3     1  UNL1        0.0183
     14 C           3.8876   -1.0275   27.2951 C.3     1  UNL1        0.0670
     15 N           2.6566   -1.0397   28.1522 N.3     1  UNL1       -0.3211
     16 C           3.8254   -1.5376   25.8859 C.3     1  UNL1        0.0878
     17 H           1.8759   -1.4247   27.6204 H       1  UNL1        0.1189
     18 H           2.4341   -0.0872   28.4414 H       1  UNL1        0.1189
     19 O           7.3483   -3.2981   23.5276 O.3     1  UNL1       -0.4733
     20 C           6.9819   -5.9402   26.4661 C.ar    1  UNL1        0.0533
     21 C           7.5582   -7.1649   25.8196 C.ar    1  UNL1        0.0149
     22 C           8.0645   -7.1007   24.4091 C.ar    1  UNL1        0.0044
     23 C           7.9945   -5.8118   23.6451 C.ar    1  UNL1        0.0370
     24 C           7.4183   -4.5870   24.2915 C.ar    1  UNL1        0.1402
     25 C           6.9120   -4.6513   25.7021 C.ar    1  UNL1        0.0516
     26 C           6.8795   -5.7194   30.4272 C.3     1  UNL1        0.0949
     27 C           7.3857   -5.6553   29.0167 C.2     1  UNL1        0.2266
     28 O           8.8021   -5.2420   28.7463 O.2     1  UNL1       -0.2748
     29 N           6.4756   -6.0044   27.8766 N.am    1  UNL1       -0.2838
     30 H           5.5460   -6.2756   28.0541 H       1  UNL1        0.1549
@<TRIPOS>BOND
     1    26    27    1
     2    27    28    2
     3    27    29   am
     4    29    20    1
     5    20    21   ar
     6    21    22   ar
     7    22    23   ar
     8    23    24   ar
     9    24    19    1
    10     1    19    1
    11     1     2    1
    12     2     3   ar
    13     3     4   ar
    14     4     5   ar
    15     5     6   ar
    16     6     7   ar
    17     7     8    1
    18     8     9    1
    19     9    10    1
    20    10    11    1
    21    11    12    1
    22    12    13    1
    23    13    14    1
    24    14    15    1
    25    14    16    1
    26    24    25   ar
    27    25    20   ar
    28     9     1    1
    29    16    10    1
    30     7     2   ar
    31    29    30    1
    32    15    17    1
    33    15    18    1
@<TRIPOS>MOLECULE
*****
 30 33 0 0 0
SMALL
GASTEIGER

@<TRIPOS>ATOM
      1 C           4.6594   -1.6992   32.1442 C.3     1  UNL1        0.2026
      2 C           5.8053   -2.4943   31.5921 C.ar    1  UNL1        0.0146
      3 C           6.6977   -3.5301   32.2091 C.ar    1  UNL1       -0.0011
      4 C           7.7833   -4.1668   31.3931 C.ar    1  UNL1       -0.0002
      5 C           7.9767   -3.7677   29.9602 C.ar    1  UNL1       -0.0003
      6 C           7.0843   -2.7319   29.3432 C.ar    1  UNL1       -0.0044
      7 C           5.9986   -2.0952   30.1592 C.ar    1  UNL1       -0.0213
      8 C           4.9722   -1.0534   29.8257 C.3     1  UNL1        0.0461
      9 C           4.1445   -0.8087   31.0524 C.3     1  UNL1        0.1066
     10 N           3.0024    0.1570   31.1673 N.3     1  UNL1       -0.2692
     11 C           2.0499    0.3317   30.0219 C.3     1  UNL1        0.0723
     12 C           0.9078    1.2974   30.1368 C.3     1  UNL1        0.0187
     13 C           0.7183    2.0883   31.3971 C.3     1  UNL1        0.0183
     14 C           1.6709    1.9135   32.5426 C.3     1  UNL1        0.0670
     15 N           1.4814    2.7045   33.8030 N.3     1  UNL1       -0.3211
     16 C           2.8129    0.9479   32.4277 C.3     1  UNL1        0.0878
     17 H           2.2137    2.4616   34.4701 H       1  UNL1        0.1189
     18 H           0.5694    2.4889   34.2058 H       1  UNL1        0.1189
     19 O           4.1226   -1.7804   33.5425 O.3     1  UNL1       -0.4733
     20 C           4.5479    0.2672   36.9154 C.ar    1  UNL1        0.0533
     21 C           5.9853    0.6842   36.8145 C.ar    1  UNL1        0.0149
     22 C           6.8017    0.2796   35.6230 C.ar    1  UNL1        0.0044
     23 C           6.1809   -0.5419   34.5323 C.ar    1  UNL1        0.0370
     24 C           4.7435   -0.9589   34.6331 C.ar    1  UNL1        0.1402
     25 C           3.9271   -0.5543   35.8247 C.ar    1  UNL1        0.0516
     26 C           1.7861    2.0511   39.1380 C.3     1  UNL1        0.0949
     27 C           2.6027    1.6465   37.9466 C.2     1  UNL1        0.2266
     28 O           2.2904    2.2168   36.5948 O.2     1  UNL1       -0.2748
     29 N           3.7314    0.6717   38.1069 N.am    1  UNL1       -0.2838
     30 H           3.9364    0.2975   38.9941 H       1  UNL1        0.1549
@<TRIPOS>BOND
     1    26    27    1
     2    27    28    2
     3    27    29   am
     4    29    20    1
     5    20    21   ar
     6    21    22   ar
     7    22    23   ar
     8    23    24   ar
     9    24    19    1
    10     1    19    1
    11     1     2    1
    12     2     3   ar
    13     3     4   ar
    14     4     5   ar
    15     5     6   ar
    16     6     7   ar
    17     7     8    1
    18     8     9    1
    19     9    10    1
    20    10    11    1
    21    11    12    1
    22    12    13    1
    23    13    14    1
    24    14    15    1
    25    14    16    1
    26    24    25   ar
    27    25    20   ar
    28     9     1    1
    29    16    10    1
    30     7     2   ar
    31    29    30    1
    32    15    17    1
    33    15    18    1
@<TRIPOS>MOLECULE
*****
 30 33 0 0 0
SMALL
GASTEIGER

@<TRIPOS>ATOM
      1 C           4.7268    0.6822   33.0624 C.3     1  UNL1        0.2026
      2 C           3.4875    1.5137   32.9114 C.ar    1  UNL1        0.0146
      3 C           2.9754    2.6996   33.6739 C.ar    1  UNL1       -0.0011
      4 C           1.6744    3.3367   33.2845 C.ar    1  UNL1       -0.0002
      5 C           0.8857    2.7880   32.1327 C.ar    1  UNL1       -0.0003
      6 C           1.3978    1.6021   31.3702 C.ar    1  UNL1       -0.0044
      7 C           2.6987    0.9650   31.7595 C.ar    1  UNL1       -0.0213
      8 C           3.4505   -0.2056   31.1987 C.3     1  UNL1        0.0461
      9 C           4.7039   -0.3804   32.0039 C.3     1  UNL1        0.1066
     10 N           5.7507   -1.4329   31.7885 N.3     1  UNL1       -0.2692
     11 C           7.0187   -1.0922   31.0631 C.3     1  UNL1        0.0723
     12 C           8.0655   -2.1447   30.8477 C.3     1  UNL1        0.0187
     13 C           7.8443   -3.5379   31.3576 C.3     1  UNL1        0.0183
     14 C           6.5763   -3.8786   32.0829 C.3     1  UNL1        0.0670
     15 N           6.3551   -5.2719   32.5928 N.3     1  UNL1       -0.3211
     16 C           5.5296   -2.8261   32.2983 C.3     1  UNL1        0.0878
     17 H           5.4482   -5.3242   33.0566 H       1  UNL1        0.1189
     18 H           7.0910   -5.5117   33.2571 H       1  UNL1        0.1189
     19 O           5.8004    0.8789   34.0913 O.3     1  UNL1       -0.4733
     20 C           4.2486    1.2791   37.7220 C.ar    1  UNL1        0.0533
     21 C           4.7745    2.6299   38.1076 C.ar    1  UNL1        0.0149
     22 C           5.6424    3.3970   37.1546 C.ar    1  UNL1        0.0044
     23 C           5.9844    2.8133   35.8158 C.ar    1  UNL1        0.0370
     24 C           5.4585    1.4625   35.4300 C.ar    1  UNL1        0.1402
     25 C           4.5906    0.6954   36.3832 C.ar    1  UNL1        0.0516
     26 C           1.0636    0.1023   39.7764 C.3     1  UNL1        0.0949
     27 C           1.9316    0.8694   38.8235 C.2     1  UNL1        0.2266
     28 O           1.3503    1.9940   38.0189 O.2     1  UNL1       -0.2748
     29 N           3.3808    0.5119   38.6750 N.am    1  UNL1       -0.2838
     30 H           3.7623   -0.2262   39.2030 H       1  UNL1        0.1549
@<TRIPOS>BOND
     1    26    27    1
     2    27    28    2
     3    27    29   am
     4    29    20    1
     5    20    21   ar
     6    21    22   ar
     7    22    23   ar
     8    23    24   ar
     9    24    19    1
    10     1    19    1
    11     1     2    1
    12     2     3   ar
    13     3     4   ar
    14     4     5   ar
    15     5     6   ar
    16     6     7   ar
    17     7     8    1
    18     8     9    1
    19     9    10    1
    20    10    11    1
    21    11    12    1
    22    12    13    1
    23    13    14    1
    24    14    15    1
    25    14    16    1
    26    24    25   ar
    27    25    20   ar
    28     9     1    1
    29    16    10    1
    30     7     2   ar
    31    29    30    1
    32    15    17    1
    33    15    18    1
@<TRIPOS>MOLECULE
*****
 30 33 0 0 0
SMALL
GASTEIGER

@<TRIPOS>ATOM
      1 C           7.8634   -4.2446   26.0368 C.3     1  UNL1        0.2026
      2 C           8.2260   -5.1347   24.8851 C.ar    1  UNL1        0.0146
      3 C           8.4196   -4.8566   23.4239 C.ar    1  UNL1       -0.0011
      4 C           8.7879   -5.9717   22.4907 C.ar    1  UNL1       -0.0002
      5 C           8.9626   -7.3648   23.0187 C.ar    1  UNL1       -0.0003
      6 C           8.7690   -7.6428   24.4799 C.ar    1  UNL1       -0.0044
      7 C           8.4007   -6.5278   25.4131 C.ar    1  UNL1       -0.0213
      8 C           8.1461   -6.4987   26.8911 C.3     1  UNL1        0.0461
      9 C           7.8141   -5.0876   27.2766 C.3     1  UNL1        0.1066
     10 N           7.4896   -4.6044   28.6590 N.3     1  UNL1       -0.2692
     11 C           7.4588   -3.1335   28.9514 C.3     1  UNL1        0.0723
     12 C           7.1344   -2.6503   30.3339 C.3     1  UNL1        0.0187
     13 C           6.8408   -3.6379   31.4240 C.3     1  UNL1        0.0183
     14 C           6.8716   -5.1088   31.1316 C.3     1  UNL1        0.0670
     15 N           6.5780   -6.0965   32.2217 N.3     1  UNL1       -0.3211
     16 C           7.1960   -5.5920   29.7491 C.3     1  UNL1        0.0878
     17 H           6.6430   -7.0437   31.8488 H       1  UNL1        0.1189
     18 H           5.6370   -5.9364   32.5812 H       1  UNL1        0.1189
     19 O           7.5970   -2.7704   25.9619 O.3     1  UNL1       -0.4733
     20 C           4.7911   -1.7429   23.3501 C.ar    1  UNL1        0.0533
     21 C           3.7059   -1.2700   24.2713 C.ar    1  UNL1        0.0149
     22 C           3.9177   -1.2973   25.7560 C.ar    1  UNL1        0.0044
     23 C           5.2147   -1.7974   26.3196 C.ar    1  UNL1        0.0370
     24 C           6.3000   -2.2703   25.3984 C.ar    1  UNL1        0.1402
     25 C           6.0882   -2.2430   23.9136 C.ar    1  UNL1        0.0516
     26 C           4.1913   -2.9719   19.6246 C.3     1  UNL1        0.0949
     27 C           4.4030   -2.9991   21.1093 C.2     1  UNL1        0.2266
     28 O           4.4383   -4.3098   21.8379 O.2     1  UNL1       -0.2748
     29 N           4.5794   -1.7157   21.8653 N.am    1  UNL1       -0.2838
     30 H           4.5563   -0.8554   21.3871 H       1  UNL1        0.1549
@<TRIPOS>BOND
     1    26    27    1
     2    27    28    2
     3    27    29   am
     4    29    20    1
     5    20    21   ar
     6    21    22   ar
     7    22    23   ar
     8    23    24   ar
     9    24    19    1
    10     1    19    1
    11     1     2    1
    12     2     3   ar
    13     3     4   ar
    14     4     5   ar
    15     5     6   ar
    16     6     7   ar
    17     7     8    1
    18     8     9    1
    19     9    10    1
    20    10    11    1
    21    11    12    1
    22    12    13    1
    23    13    14    1
    24    14    15    1
    25    14    16    1
    26    24    25   ar
    27    25    20   ar
    28     9     1    1
    29    16    10    1
    30     7     2   ar
    31    29    30    1
    32    15    17    1
    33    15    18    1
@<TRIPOS>MOLECULE
*****
 30 33 0 0 0
SMALL
GASTEIGER

@<TRIPOS>ATOM
      1 C           7.0961   -3.5917   23.1522 C.3     1  UNL1        0.2026
      2 C           7.6697   -4.9420   23.4647 C.ar    1  UNL1        0.0146
      3 C           8.3590   -5.9624   22.6083 C.ar    1  UNL1       -0.0011
      4 C           8.8345   -7.2504   23.2121 C.ar    1  UNL1       -0.0002
      5 C           8.6208   -7.5181   24.6725 C.ar    1  UNL1       -0.0003
      6 C           7.9315   -6.4977   25.5290 C.ar    1  UNL1       -0.0044
      7 C           7.4559   -5.2096   24.9251 C.ar    1  UNL1       -0.0213
      8 C           6.7502   -4.0247   25.5151 C.3     1  UNL1        0.0461
      9 C           6.5279   -3.0248   24.4194 C.3     1  UNL1        0.1066
     10 N           5.8553   -1.6919   24.5652 N.3     1  UNL1       -0.2692
     11 C           6.6764   -0.4371   24.5975 C.3     1  UNL1        0.0723
     12 C           6.0039    0.8957   24.7433 C.3     1  UNL1        0.0187
     13 C           4.5102    0.9737   24.8569 C.3     1  UNL1        0.0183
     14 C           3.6891   -0.2812   24.8246 C.3     1  UNL1        0.0670
     15 N           2.1954   -0.2032   24.9382 N.3     1  UNL1       -0.3211
     16 C           4.3617   -1.6140   24.6788 C.3     1  UNL1        0.0878
     17 H           1.8019   -1.1434   24.8980 H       1  UNL1        0.1189
     18 H           1.8245    0.3538   24.1685 H       1  UNL1        0.1189
     19 O           7.0916   -2.9252   21.8084 O.3     1  UNL1       -0.4733
     20 C           3.5859   -2.3112   20.0524 C.ar    1  UNL1        0.0533
     21 C           3.5673   -3.4330   19.0567 C.ar    1  UNL1        0.0149
     22 C           4.7234   -4.3855   18.9783 C.ar    1  UNL1        0.0044
     23 C           5.8982   -4.2163   19.8955 C.ar    1  UNL1        0.0370
     24 C           5.9169   -3.0945   20.8912 C.ar    1  UNL1        0.1402
     25 C           4.7607   -2.1420   20.9696 C.ar    1  UNL1        0.0516
     26 C           1.1433    0.6993   19.2039 C.3     1  UNL1        0.0949
     27 C           2.2994   -0.2532   19.1255 C.2     1  UNL1        0.2266
     28 O           3.3250   -0.1002   18.0416 O.2     1  UNL1       -0.2748
     29 N           2.4298   -1.3587   20.1309 N.am    1  UNL1       -0.2838
     30 H           1.7567   -1.4592   20.8422 H       1  UNL1        0.1549
@<TRIPOS>BOND
     1    26    27    1
     2    27    28    2
     3    27    29   am
     4    29    20    1
     5    20    21   ar
     6    21    22   ar
     7    22    23   ar
     8    23    24   ar
     9    24    19    1
    10     1    19    1
    11     1     2    1
    12     2     3   ar
    13     3     4   ar
    14     4     5   ar
    15     5     6   ar
    16     6     7   ar
    17     7     8    1
    18     8     9    1
    19     9    10    1
    20    10    11    1
    21    11    12    1
    22    12    13    1
    23    13    14    1
    24    14    15    1
    25    14    16    1
    26    24    25   ar
    27    25    20   ar
    28     9     1    1
    29    16    10    1
    30     7     2   ar
    31    29    30    1
    32    15    17    1
    33    15    18    1
@<TRIPOS>MOLECULE
*****
 30 33 0 0 0
SMALL
GASTEIGER

@<TRIPOS>ATOM
      1 C           4.2585   -1.9865   21.0639 C.3     1  UNL1        0.2026
      2 C           3.2588   -1.1672   20.3027 C.ar    1  UNL1        0.0146
      3 C           1.7949   -0.9187   20.5150 C.ar    1  UNL1       -0.0011
      4 C           1.0395   -0.0335   19.5685 C.ar    1  UNL1       -0.0002
      5 C           1.7481    0.6031   18.4098 C.ar    1  UNL1       -0.0003
      6 C           3.2120    0.3545   18.1975 C.ar    1  UNL1       -0.0044
      7 C           3.9674   -0.5306   19.1439 C.ar    1  UNL1       -0.0213
      8 C           5.4050   -0.9564   19.1890 C.3     1  UNL1        0.0461
      9 C           5.5849   -1.8562   20.3756 C.3     1  UNL1        0.1066
     10 N           6.8663   -2.5108   20.7995 N.3     1  UNL1       -0.2692
     11 C           7.9813   -1.6812   21.3639 C.3     1  UNL1        0.0723
     12 C           9.2627   -2.3358   21.7878 C.3     1  UNL1        0.0187
     13 C           9.4290   -3.8199   21.6473 C.3     1  UNL1        0.0183
     14 C           8.3139   -4.6494   21.0830 C.3     1  UNL1        0.0670
     15 N           8.4802   -6.1336   20.9425 N.3     1  UNL1       -0.3211
     16 C           7.0326   -3.9949   20.6591 C.3     1  UNL1        0.0878
     17 H           7.6309   -6.5347   20.5449 H       1  UNL1        0.1189
     18 H           8.6532   -6.5447   21.8599 H       1  UNL1        0.1189
     19 O           3.9806   -2.7942   22.2969 O.3     1  UNL1       -0.4733
     20 C           4.7401   -0.8817   25.6904 C.ar    1  UNL1        0.0533
     21 C           5.9078   -1.6703   26.2050 C.ar    1  UNL1        0.0149
     22 C           6.4330   -2.8334   25.4169 C.ar    1  UNL1        0.0044
     23 C           5.7906   -3.2081   24.1142 C.ar    1  UNL1        0.0370
     24 C           4.6230   -2.4196   23.5996 C.ar    1  UNL1        0.1402
     25 C           4.0978   -1.2563   24.3877 C.ar    1  UNL1        0.0516
     26 C           2.7522    1.2111   28.4141 C.3     1  UNL1        0.0949
     27 C           3.2775    0.0480   27.6260 C.2     1  UNL1        0.2266
     28 O           2.8655   -1.3488   27.9855 O.2     1  UNL1       -0.2748
     29 N           4.2148    0.2815   26.4784 N.am    1  UNL1       -0.2838
     30 H           4.4852    1.1983   26.2425 H       1  UNL1        0.1549
@<TRIPOS>BOND
     1    26    27    1
     2    27    28    2
     3    27    29   am
     4    29    20    1
     5    20    21   ar
     6    21    22   ar
     7    22    23   ar
     8    23    24   ar
     9    24    19    1
    10     1    19    1
    11     1     2    1
    12     2     3   ar
    13     3     4   ar
    14     4     5   ar
    15     5     6   ar
    16     6     7   ar
    17     7     8    1
    18     8     9    1
    19     9    10    1
    20    10    11    1
    21    11    12    1
    22    12    13    1
    23    13    14    1
    24    14    15    1
    25    14    16    1
    26    24    25   ar
    27    25    20   ar
    28     9     1    1
    29    16    10    1
    30     7     2   ar
    31    29    30    1
    32    15    17    1
    33    15    18    1
@<TRIPOS>MOLECULE
*****
 30 33 0 0 0
SMALL
GASTEIGER

@<TRIPOS>ATOM
      1 C           4.3337   -1.9652   21.1653 C.3     1  UNL1        0.2026
      2 C           3.3225   -1.1867   20.3769 C.ar    1  UNL1        0.0146
      3 C           1.8761   -0.8782   20.6271 C.ar    1  UNL1       -0.0011
      4 C           1.1024   -0.0574   19.6383 C.ar    1  UNL1       -0.0002
      5 C           1.7752    0.4549   18.3994 C.ar    1  UNL1       -0.0003
      6 C           3.2216    0.1463   18.1492 C.ar    1  UNL1       -0.0044
      7 C           3.9953   -0.6745   19.1380 C.ar    1  UNL1       -0.0213
      8 C           5.4222   -1.1363   19.1607 C.3     1  UNL1        0.0461
      9 C           5.6314   -1.9340   20.4137 C.3     1  UNL1        0.1066
     10 N           6.9132   -2.5861   20.8401 N.3     1  UNL1       -0.2692
     11 C           7.9961   -1.7663   21.4766 C.3     1  UNL1        0.0723
     12 C           9.2779   -2.4184   21.9030 C.3     1  UNL1        0.0187
     13 C           9.4767   -3.8902   21.6930 C.3     1  UNL1        0.0183
     14 C           8.3938   -4.7100   21.0565 C.3     1  UNL1        0.0670
     15 N           8.5926   -6.1819   20.8465 N.3     1  UNL1       -0.3211
     16 C           7.1120   -4.0579   20.6301 C.3     1  UNL1        0.0878
     17 H           7.7623   -6.5775   20.4054 H       1  UNL1        0.1189
     18 H           8.7485   -6.6358   21.7465 H       1  UNL1        0.1189
     19 O           4.0899   -2.6538   22.4754 O.3     1  UNL1       -0.4733
     20 C           6.9830   -4.2235   24.6926 C.ar    1  UNL1        0.0533
     21 C           7.4215   -3.0229   25.4778 C.ar    1  UNL1        0.0149
     22 C           6.7494   -1.6994   25.2621 C.ar    1  UNL1        0.0044
     23 C           5.6389   -1.5763   24.2613 C.ar    1  UNL1        0.0370
     24 C           5.2004   -2.7768   23.4762 C.ar    1  UNL1        0.1402
     25 C           5.8725   -4.1004   23.6918 C.ar    1  UNL1        0.0516
     26 C           7.9456   -7.7230   26.2978 C.3     1  UNL1        0.0949
     27 C           7.2737   -6.3994   26.0821 C.2     1  UNL1        0.2266
     28 O           6.2203   -5.9282   27.0404 O.2     1  UNL1       -0.2748
     29 N           7.6550   -5.5471   24.9082 N.am    1  UNL1       -0.2838
     30 H           8.3464   -5.8564   24.2793 H       1  UNL1        0.1549
@<TRIPOS>BOND
     1    26    27    1
     2    27    28    2
     3    27    29   am
     4    29    20    1
     5    20    21   ar
     6    21    22   ar
     7    22    23   ar
     8    23    24   ar
     9    24    19    1
    10     1    19    1
    11     1     2    1
    12     2     3   ar
    13     3     4   ar
    14     4     5   ar
    15     5     6   ar
    16     6     7   ar
    17     7     8    1
    18     8     9    1
    19     9    10    1
    20    10    11    1
    21    11    12    1
    22    12    13    1
    23    13    14    1
    24    14    15    1
    25    14    16    1
    26    24    25   ar
    27    25    20   ar
    28     9     1    1
    29    16    10    1
    30     7     2   ar
    31    29    30    1
    32    15    17    1
    33    15    18    1
@<TRIPOS>MOLECULE
*****
 30 33 0 0 0
SMALL
GASTEIGER

@<TRIPOS>ATOM
      1 C           7.9876   -4.2054   26.2376 C.3     1  UNL1        0.2026
      2 C           8.2700   -5.0733   25.0472 C.ar    1  UNL1        0.0146
      3 C           8.3952   -4.7620   23.5852 C.ar    1  UNL1       -0.0011
      4 C           8.6893   -5.8605   22.6071 C.ar    1  UNL1       -0.0002
      5 C           8.8581   -7.2703   23.0909 C.ar    1  UNL1       -0.0003
      6 C           8.7328   -7.5815   24.5529 C.ar    1  UNL1       -0.0044
      7 C           8.4388   -6.4830   25.5310 C.ar    1  UNL1       -0.0213
      8 C           8.2607   -6.4864   27.0204 C.3     1  UNL1        0.0461
      9 C           7.9819   -5.0787   27.4571 C.3     1  UNL1        0.1066
     10 N           7.7398   -4.6242   28.8659 N.3     1  UNL1       -0.2692
     11 C           7.9931   -3.1958   29.2472 C.3     1  UNL1        0.0723
     12 C           7.7511   -2.7412   30.6560 C.3     1  UNL1        0.0187
     13 C           7.2556   -3.7151   31.6836 C.3     1  UNL1        0.0183
     14 C           7.0022   -5.1435   31.3024 C.3     1  UNL1        0.0670
     15 N           6.5067   -6.1175   32.3300 N.3     1  UNL1       -0.3211
     16 C           7.2443   -5.5981   29.8935 C.3     1  UNL1        0.0878
     17 H           6.3902   -7.0352   31.9003 H       1  UNL1        0.1189
     18 H           5.6104   -5.7978   32.6972 H       1  UNL1        0.1189
     19 O           7.7522   -2.7242   26.2127 O.3     1  UNL1       -0.4733
     20 C           4.0096   -1.4263   26.4540 C.ar    1  UNL1        0.0533
     21 C           3.7278   -1.1049   25.0161 C.ar    1  UNL1        0.0149
     22 C           4.7875   -1.3232   23.9772 C.ar    1  UNL1        0.0044
     23 C           6.1290   -1.8630   24.3761 C.ar    1  UNL1        0.0370
     24 C           6.4108   -2.1844   25.8139 C.ar    1  UNL1        0.1402
     25 C           5.3511   -1.9661   26.8528 C.ar    1  UNL1        0.0516
     26 C           1.8028    0.3248   29.2493 C.3     1  UNL1        0.0949
     27 C           2.8624    0.1064   28.2103 C.2     1  UNL1        0.2266
     28 O           3.8346    1.2025   27.8887 O.2     1  UNL1       -0.2748
     29 N           2.9499   -1.2081   27.4929 N.am    1  UNL1       -0.2838
     30 H           2.3119   -1.9275   27.7040 H       1  UNL1        0.1549
@<TRIPOS>BOND
     1    26    27    1
     2    27    28    2
     3    27    29   am
     4    29    20    1
     5    20    21   ar
     6    21    22   ar
     7    22    23   ar
     8    23    24   ar
     9    24    19    1
    10     1    19    1
    11     1     2    1
    12     2     3   ar
    13     3     4   ar
    14     4     5   ar
    15     5     6   ar
    16     6     7   ar
    17     7     8    1
    18     8     9    1
    19     9    10    1
    20    10    11    1
    21    11    12    1
    22    12    13    1
    23    13    14    1
    24    14    15    1
    25    14    16    1
    26    24    25   ar
    27    25    20   ar
    28     9     1    1
    29    16    10    1
    30     7     2   ar
    31    29    30    1
    32    15    17    1
    33    15    18    1
@<TRIPOS>MOLECULE
*****
 30 33 0 0 0
SMALL
GASTEIGER

@<TRIPOS>ATOM
      1 C           5.8311   -1.9995   30.3951 C.3     1  UNL1        0.2026
      2 C           5.2092   -1.2534   31.5382 C.ar    1  UNL1        0.0146
      3 C           4.4896    0.0610   31.6058 C.ar    1  UNL1       -0.0011
      4 C           3.9662    0.5627   32.9189 C.ar    1  UNL1       -0.0002
      5 C           4.1623   -0.2500   34.1644 C.ar    1  UNL1       -0.0003
      6 C           4.8818   -1.5644   34.0967 C.ar    1  UNL1       -0.0044
      7 C           5.4053   -2.0660   32.7836 C.ar    1  UNL1       -0.0213
      8 C           6.1484   -3.3144   32.4102 C.3     1  UNL1        0.0461
      9 C           6.4116   -3.2733   30.9341 C.3     1  UNL1        0.1066
     10 N           7.1292   -4.3218   30.1368 N.3     1  UNL1       -0.2692
     11 C           8.5260   -4.7219   30.5093 C.3     1  UNL1        0.0723
     12 C           9.2437   -5.7704   29.7121 C.3     1  UNL1        0.0187
     13 C           8.5645   -6.4188   28.5424 C.3     1  UNL1        0.0183
     14 C           7.1677   -6.0188   28.1699 C.3     1  UNL1        0.0670
     15 N           6.4885   -6.6672   27.0002 N.3     1  UNL1       -0.3211
     16 C           6.4501   -4.9702   28.9672 C.3     1  UNL1        0.0878
     17 H           5.5519   -6.2780   26.8923 H       1  UNL1        0.1189
     18 H           6.4226   -7.6725   27.1597 H       1  UNL1        0.1189
     19 O           5.8663   -1.5505   28.9643 O.3     1  UNL1       -0.4733
     20 C           2.4933    0.2357   27.8772 C.ar    1  UNL1        0.0533
     21 C           2.9979    1.6035   27.5242 C.ar    1  UNL1        0.0149
     22 C           4.4586    1.9199   27.6514 C.ar    1  UNL1        0.0044
     23 C           5.4148    0.8686   28.1314 C.ar    1  UNL1        0.0370
     24 C           4.9102   -0.4992   28.4843 C.ar    1  UNL1        0.1402
     25 C           3.4495   -0.8156   28.3572 C.ar    1  UNL1        0.0516
     26 C          -1.3311   -0.2622   28.8132 C.3     1  UNL1        0.0949
     27 C           0.1296    0.0543   28.9402 C.2     1  UNL1        0.2266
     28 O           0.6874    0.5059   30.2574 O.2     1  UNL1       -0.2748
     29 N           1.0326   -0.0808   27.7501 N.am    1  UNL1       -0.2838
     30 H           0.6665   -0.3772   26.8856 H       1  UNL1        0.1549
@<TRIPOS>BOND
     1    26    27    1
     2    27    28    2
     3    27    29   am
     4    29    20    1
     5    20    21   ar
     6    21    22   ar
     7    22    23   ar
     8    23    24   ar
     9    24    19    1
    10     1    19    1
    11     1     2    1
    12     2     3   ar
    13     3     4   ar
    14     4     5   ar
    15     5     6   ar
    16     6     7   ar
    17     7     8    1
    18     8     9    1
    19     9    10    1
    20    10    11    1
    21    11    12    1
    22    12    13    1
    23    13    14    1
    24    14    15    1
    25    14    16    1
    26    24    25   ar
    27    25    20   ar
    28     9     1    1
    29    16    10    1
    30     7     2   ar
    31    29    30    1
    32    15    17    1
    33    15    18    1
