@<TRIPOS>MOLECULE
*****
 17 18 0 0 0
SMALL
GASTEIGER

@<TRIPOS>ATOM
      1 C          -3.7871  -18.0925   22.5439 C.ar    1  UNL1        0.0637
      2 C          -2.2913  -18.1594   22.4536 C.ar    1  UNL1        0.1072
      3 N          -1.6393  -19.1328   21.5169 N.ar    1  UNL1       -0.2417
      4 C          -2.4830  -20.0392   20.6705 C.ar    1  UNL1        0.0990
      5 C          -3.9787  -19.9723   20.7607 C.ar    1  UNL1        0.0243
      6 C          -4.6308  -18.9989   21.6974 C.ar    1  UNL1        0.0453
      7 C          -6.1266  -18.9320   21.7877 C.ar    1  UNL1        0.1461
      8 C          -7.0238  -19.9908   22.3570 C.ar    1  UNL1        0.0407
      9 C          -8.4395  -19.5077   22.2456 C.ar    1  UNL1        0.0438
     10 C          -8.4173  -18.1504   21.6074 C.ar    1  UNL1        0.1796
     11 O          -6.9879  -17.7946   21.3244 O.2     1  UNL1       -0.4504
     12 C          -5.0912  -16.1458   24.4173 C.1     1  UNL1       -0.0689
     13 C          -4.4392  -17.1192   23.4806 C.1     1  UNL1       -0.0613
     14 N          -6.9620  -14.4142   24.9187 N.3     1  UNL1       -0.3102
     15 C          -5.7433  -15.1725   25.3541 C.3     1  UNL1        0.1432
     16 H          -7.2698  -13.8024   25.6746 H       1  UNL1        0.1198
     17 H          -7.7072  -15.0715   24.6884 H       1  UNL1        0.1198
@<TRIPOS>BOND
     1    14    15    1
     2    15    12    1
     3    12    13    3
     4    13     1    1
     5     1     2   ar
     6     2     3   ar
     7     3     4   ar
     8     4     5   ar
     9     5     6   ar
    10     6     7    1
    11     7     8   ar
    12     8     9   ar
    13     9    10   ar
    14    10    11   ar
    15     6     1   ar
    16    11     7   ar
    17    14    16    1
    18    14    17    1
@<TRIPOS>MOLECULE
*****
 17 18 0 0 0
SMALL
GASTEIGER

@<TRIPOS>ATOM
      1 C          -8.5036  -18.3147   21.3793 C.ar    1  UNL1        0.0637
      2 C          -7.3927  -19.0072   20.6470 C.ar    1  UNL1        0.1072
      3 N          -7.7015  -19.8755   19.4635 N.ar    1  UNL1       -0.2417
      4 C          -9.1212  -20.0513   19.0123 C.ar    1  UNL1        0.0990
      5 C         -10.2321  -19.3589   19.7447 C.ar    1  UNL1        0.0243
      6 C          -9.9233  -18.4906   20.9282 C.ar    1  UNL1        0.0453
      7 C         -11.0343  -17.7981   21.6605 C.ar    1  UNL1        0.1461
      8 C         -11.9905  -18.4392   22.6221 C.ar    1  UNL1        0.0407
      9 C         -12.9312  -17.3803   23.1157 C.ar    1  UNL1        0.0438
     10 C         -12.5564  -16.0846   22.4592 C.ar    1  UNL1        0.1796
     11 O         -11.3841  -16.3429   21.5598 O.2     1  UNL1       -0.4504
     12 C          -7.8861  -16.5781   23.7464 C.1     1  UNL1       -0.0689
     13 C          -8.1949  -17.4464   22.5629 C.1     1  UNL1       -0.0613
     14 N          -6.8688  -14.4020   24.7361 N.3     1  UNL1       -0.3102
     15 C          -7.5773  -15.7098   24.9299 C.3     1  UNL1        0.1432
     16 H          -6.7419  -13.9469   25.6400 H       1  UNL1        0.1198
     17 H          -7.4248  -13.8009   24.1279 H       1  UNL1        0.1198
@<TRIPOS>BOND
     1    14    15    1
     2    15    12    1
     3    12    13    3
     4    13     1    1
     5     1     2   ar
     6     2     3   ar
     7     3     4   ar
     8     4     5   ar
     9     5     6   ar
    10     6     7    1
    11     7     8   ar
    12     8     9   ar
    13     9    10   ar
    14    10    11   ar
    15     6     1   ar
    16    11     7   ar
    17    14    16    1
    18    14    17    1
@<TRIPOS>MOLECULE
*****
 17 18 0 0 0
SMALL
GASTEIGER

@<TRIPOS>ATOM
      1 C          -9.9504  -16.9023   22.4747 C.ar    1  UNL1        0.0637
      2 C         -11.2705  -16.2382   22.7320 C.ar    1  UNL1        0.1072
      3 N         -12.5254  -16.8104   22.1421 N.ar    1  UNL1       -0.2417
      4 C         -12.4601  -18.0466   21.2951 C.ar    1  UNL1        0.0990
      5 C         -11.1399  -18.7106   21.0379 C.ar    1  UNL1        0.0243
      6 C          -9.8851  -18.1384   21.6277 C.ar    1  UNL1        0.0453
      7 C          -8.5648  -18.8025   21.3705 C.ar    1  UNL1        0.1461
      8 C          -7.8450  -19.7261   22.3079 C.ar    1  UNL1        0.0407
      9 C          -6.5680  -20.1540   21.6474 C.ar    1  UNL1        0.0438
     10 C          -6.4986  -19.4948   20.3017 C.ar    1  UNL1        0.1796
     11 O          -7.7327  -18.6595   20.1306 O.2     1  UNL1       -0.4504
     12 C          -7.4406  -15.7579   23.6544 C.1     1  UNL1       -0.0689
     13 C          -8.6955  -16.3301   23.0646 C.1     1  UNL1       -0.0613
     14 N          -5.0475  -14.7936   23.3495 N.3     1  UNL1       -0.3102
     15 C          -6.1858  -15.1857   24.2442 C.3     1  UNL1        0.1432
     16 H          -4.2818  -14.4263   23.9146 H       1  UNL1        0.1198
     17 H          -5.3609  -14.0771   22.6947 H       1  UNL1        0.1198
@<TRIPOS>BOND
     1    14    15    1
     2    15    12    1
     3    12    13    3
     4    13     1    1
     5     1     2   ar
     6     2     3   ar
     7     3     4   ar
     8     4     5   ar
     9     5     6   ar
    10     6     7    1
    11     7     8   ar
    12     8     9   ar
    13     9    10   ar
    14    10    11   ar
    15     6     1   ar
    16    11     7   ar
    17    14    16    1
    18    14    17    1
@<TRIPOS>MOLECULE
*****
 17 18 0 0 0
SMALL
GASTEIGER

@<TRIPOS>ATOM
      1 C          -9.8582  -16.5018   22.0083 C.ar    1  UNL1        0.0637
      2 C         -10.1082  -15.4606   20.9579 C.ar    1  UNL1        0.1072
      3 N         -10.9404  -15.7934   19.7551 N.ar    1  UNL1       -0.2417
      4 C         -11.5226  -17.1674   19.6027 C.ar    1  UNL1        0.0990
      5 C         -11.2726  -18.2086   20.6531 C.ar    1  UNL1        0.0243
      6 C         -10.4404  -17.8758   21.8559 C.ar    1  UNL1        0.0453
      7 C         -10.1904  -18.9170   22.9064 C.ar    1  UNL1        0.1461
      8 C         -10.9649  -19.0888   24.1794 C.ar    1  UNL1        0.0407
      9 C         -10.3752  -20.2472   24.9280 C.ar    1  UNL1        0.0438
     10 C          -9.2362  -20.7914   24.1176 C.ar    1  UNL1        0.1796
     11 O          -9.1220  -19.9692   22.8682 O.2     1  UNL1       -0.4504
     12 C          -8.1939  -15.8362   24.4139 C.1     1  UNL1       -0.0689
     13 C          -9.0260  -16.1690   23.2111 C.1     1  UNL1       -0.0613
     14 N          -6.1337  -14.6551   25.4677 N.3     1  UNL1       -0.3102
     15 C          -7.3617  -15.5034   25.6167 C.3     1  UNL1        0.1432
     16 H          -5.6938  -14.5304   26.3795 H       1  UNL1        0.1198
     17 H          -6.3933  -13.7446   25.0881 H       1  UNL1        0.1198
@<TRIPOS>BOND
     1    14    15    1
     2    15    12    1
     3    12    13    3
     4    13     1    1
     5     1     2   ar
     6     2     3   ar
     7     3     4   ar
     8     4     5   ar
     9     5     6   ar
    10     6     7    1
    11     7     8   ar
    12     8     9   ar
    13     9    10   ar
    14    10    11   ar
    15     6     1   ar
    16    11     7   ar
    17    14    16    1
    18    14    17    1
@<TRIPOS>MOLECULE
*****
 17 18 0 0 0
SMALL
GASTEIGER

@<TRIPOS>ATOM
      1 C          -5.4193  -16.6404   23.5914 C.ar    1  UNL1        0.0637
      2 C          -5.2853  -15.5460   24.6083 C.ar    1  UNL1        0.1072
      3 N          -6.5089  -14.8517   25.1286 N.ar    1  UNL1       -0.2417
      4 C          -7.8665  -15.2518   24.6320 C.ar    1  UNL1        0.0990
      5 C          -8.0005  -16.3462   23.6150 C.ar    1  UNL1        0.0243
      6 C          -6.7769  -17.0405   23.0947 C.ar    1  UNL1        0.0453
      7 C          -6.9110  -18.1350   22.0777 C.ar    1  UNL1        0.1461
      8 C          -6.6614  -19.5949   22.3154 C.ar    1  UNL1        0.0407
      9 C          -6.9144  -20.3238   21.0291 C.ar    1  UNL1        0.0438
     10 C          -7.3203  -19.3144   19.9963 C.ar    1  UNL1        0.1796
     11 O          -7.3182  -17.9617   20.6445 O.2     1  UNL1       -0.4504
     12 C          -2.9721  -18.0290   22.5507 C.1     1  UNL1       -0.0689
     13 C          -4.1957  -17.3347   23.0710 C.1     1  UNL1       -0.0613
     14 N          -1.8618  -20.0927   21.4289 N.3     1  UNL1       -0.3102
     15 C          -1.7485  -18.7233   22.0304 C.3     1  UNL1        0.1432
     16 H          -0.9397  -20.4102   21.1300 H       1  UNL1        0.1198
     17 H          -2.4875  -20.0597   20.6240 H       1  UNL1        0.1198
@<TRIPOS>BOND
     1    14    15    1
     2    15    12    1
     3    12    13    3
     4    13     1    1
     5     1     2   ar
     6     2     3   ar
     7     3     4   ar
     8     4     5   ar
     9     5     6   ar
    10     6     7    1
    11     7     8   ar
    12     8     9   ar
    13     9    10   ar
    14    10    11   ar
    15     6     1   ar
    16    11     7   ar
    17    14    16    1
    18    14    17    1
@<TRIPOS>MOLECULE
*****
 17 18 0 0 0
SMALL
GASTEIGER

@<TRIPOS>ATOM
      1 C          -8.0271  -17.8387   21.8752 C.ar    1  UNL1        0.0637
      2 C          -9.5141  -17.6426   21.8926 C.ar    1  UNL1        0.1072
      3 N         -10.3836  -18.4155   20.9457 N.ar    1  UNL1       -0.2417
      4 C          -9.7662  -19.3845   19.9815 C.ar    1  UNL1        0.0990
      5 C          -8.2792  -19.5806   19.9641 C.ar    1  UNL1        0.0243
      6 C          -7.4096  -18.8077   20.9110 C.ar    1  UNL1        0.0453
      7 C          -5.9226  -19.0038   20.8936 C.ar    1  UNL1        0.1461
      8 C          -5.1022  -19.6238   21.9856 C.ar    1  UNL1        0.0407
      9 C          -3.6674  -19.6175   21.5480 C.ar    1  UNL1        0.0438
     10 C          -3.6011  -18.9937   20.1854 C.ar    1  UNL1        0.1796
     11 O          -4.9949  -18.6144   19.7810 O.2     1  UNL1       -0.4504
     12 C          -6.2880  -16.2929   23.7689 C.1     1  UNL1       -0.0689
     13 C          -7.1575  -17.0658   22.8221 C.1     1  UNL1       -0.0613
     14 N          -6.0376  -14.5668   25.6945 N.3     1  UNL1       -0.3102
     15 C          -5.4184  -15.5200   24.7158 C.3     1  UNL1        0.1432
     16 H          -5.3050  -14.1315   26.2550 H       1  UNL1        0.1198
     17 H          -6.6769  -15.0748   26.3058 H       1  UNL1        0.1198
@<TRIPOS>BOND
     1    14    15    1
     2    15    12    1
     3    12    13    3
     4    13     1    1
     5     1     2   ar
     6     2     3   ar
     7     3     4   ar
     8     4     5   ar
     9     5     6   ar
    10     6     7    1
    11     7     8   ar
    12     8     9   ar
    13     9    10   ar
    14    10    11   ar
    15     6     1   ar
    16    11     7   ar
    17    14    16    1
    18    14    17    1
@<TRIPOS>MOLECULE
*****
 17 18 0 0 0
SMALL
GASTEIGER

@<TRIPOS>ATOM
      1 C          -7.7731  -16.9499   23.2148 C.ar    1  UNL1        0.0637
      2 C          -6.3953  -16.4743   23.5690 C.ar    1  UNL1        0.1072
      3 N          -6.1923  -15.5825   24.7579 N.ar    1  UNL1       -0.2417
      4 C          -7.3670  -15.1664   25.5926 C.ar    1  UNL1        0.0990
      5 C          -8.7447  -15.6420   25.2384 C.ar    1  UNL1        0.0243
      6 C          -8.9478  -16.5338   24.0495 C.ar    1  UNL1        0.0453
      7 C         -10.3257  -17.0095   23.6954 C.ar    1  UNL1        0.1461
      8 C         -11.2674  -16.3464   22.7345 C.ar    1  UNL1        0.0407
      9 C         -12.5274  -17.1588   22.6852 C.ar    1  UNL1        0.0438
     10 C         -12.3644  -18.3240   23.6158 C.ar    1  UNL1        0.1796
     11 O         -11.0036  -18.2317   24.2401 O.2     1  UNL1       -0.4504
     12 C          -8.1792  -18.7335   20.8370 C.1     1  UNL1       -0.0689
     13 C          -7.9761  -17.8417   22.0259 C.1     1  UNL1       -0.0613
     14 N          -9.7693  -19.9146   19.1557 N.3     1  UNL1       -0.3102
     15 C          -8.3823  -19.6253   19.6481 C.3     1  UNL1        0.1432
     16 H          -9.7205  -20.5333   18.3462 H       1  UNL1        0.1198
     17 H         -10.2245  -19.0415   18.8895 H       1  UNL1        0.1198
@<TRIPOS>BOND
     1    14    15    1
     2    15    12    1
     3    12    13    3
     4    13     1    1
     5     1     2   ar
     6     2     3   ar
     7     3     4   ar
     8     4     5   ar
     9     5     6   ar
    10     6     7    1
    11     7     8   ar
    12     8     9   ar
    13     9    10   ar
    14    10    11   ar
    15     6     1   ar
    16    11     7   ar
    17    14    16    1
    18    14    17    1
@<TRIPOS>MOLECULE
*****
 17 18 0 0 0
SMALL
GASTEIGER

@<TRIPOS>ATOM
      1 C          -7.2349  -17.3289   23.0476 C.ar    1  UNL1        0.0637
      2 C          -6.3189  -16.3298   23.6899 C.ar    1  UNL1        0.1072
      3 N          -6.8803  -15.2626   24.5820 N.ar    1  UNL1       -0.2417
      4 C          -8.3577  -15.1945   24.8319 C.ar    1  UNL1        0.0990
      5 C          -9.2738  -16.1936   24.1896 C.ar    1  UNL1        0.0243
      6 C          -8.7124  -17.2608   23.2975 C.ar    1  UNL1        0.0453
      7 C          -9.6285  -18.2600   22.6552 C.ar    1  UNL1        0.1461
      8 C         -10.1414  -19.5198   23.2874 C.ar    1  UNL1        0.0407
      9 C         -11.0224  -20.2131   22.2908 C.ar    1  UNL1        0.0438
     10 C         -11.0541  -19.3817   21.0427 C.ar    1  UNL1        0.1796
     11 O         -10.1925  -18.1747   21.2679 O.2     1  UNL1       -0.4504
     12 C          -6.1121  -19.4633   21.2633 C.1     1  UNL1       -0.0689
     13 C          -6.6735  -18.3961   22.1554 C.1     1  UNL1       -0.0613
     14 N          -4.0835  -20.5531   20.0604 N.3     1  UNL1       -0.3102
     15 C          -5.5507  -20.5305   20.3711 C.3     1  UNL1        0.1432
     16 H          -3.8784  -21.3399   19.4446 H       1  UNL1        0.1198
     17 H          -3.5540  -20.6523   20.9266 H       1  UNL1        0.1198
@<TRIPOS>BOND
     1    14    15    1
     2    15    12    1
     3    12    13    3
     4    13     1    1
     5     1     2   ar
     6     2     3   ar
     7     3     4   ar
     8     4     5   ar
     9     5     6   ar
    10     6     7    1
    11     7     8   ar
    12     8     9   ar
    13     9    10   ar
    14    10    11   ar
    15     6     1   ar
    16    11     7   ar
    17    14    16    1
    18    14    17    1
@<TRIPOS>MOLECULE
*****
 17 18 0 0 0
SMALL
GASTEIGER

@<TRIPOS>ATOM
      1 C          -7.9688  -16.4431   23.6467 C.ar    1  UNL1        0.0637
      2 C          -7.8907  -15.3526   24.6737 C.ar    1  UNL1        0.1072
      3 N          -6.5544  -14.8586   25.1431 N.ar    1  UNL1       -0.2417
      4 C          -5.2962  -15.4552   24.5855 C.ar    1  UNL1        0.0990
      5 C          -5.3742  -16.5456   23.5585 C.ar    1  UNL1        0.0243
      6 C          -6.7105  -17.0396   23.0891 C.ar    1  UNL1        0.0453
      7 C          -6.7885  -18.1301   22.0621 C.ar    1  UNL1        0.1461
      8 C          -6.2759  -19.5306   22.2225 C.ar    1  UNL1        0.0407
      9 C          -6.5634  -20.2776   20.9539 C.ar    1  UNL1        0.0438
     10 C          -7.2536  -19.3387   20.0093 C.ar    1  UNL1        0.1796
     11 O          -7.3927  -18.0115   20.6943 O.2     1  UNL1       -0.4504
     12 C         -10.6413  -17.4310   22.7078 C.1     1  UNL1       -0.0689
     13 C          -9.3050  -16.9370   23.1772 C.1     1  UNL1       -0.0613
     14 N         -12.5179  -17.4800   20.9117 N.3     1  UNL1       -0.3102
     15 C         -11.9776  -17.9249   22.2384 C.3     1  UNL1        0.1432
     16 H         -13.4296  -17.9095   20.7546 H       1  UNL1        0.1198
     17 H         -11.8764  -17.7633   20.1710 H       1  UNL1        0.1198
@<TRIPOS>BOND
     1    14    15    1
     2    15    12    1
     3    12    13    3
     4    13     1    1
     5     1     2   ar
     6     2     3   ar
     7     3     4   ar
     8     4     5   ar
     9     5     6   ar
    10     6     7    1
    11     7     8   ar
    12     8     9   ar
    13     9    10   ar
    14    10    11   ar
    15     6     1   ar
    16    11     7   ar
    17    14    16    1
    18    14    17    1
