@<TRIPOS>MOLECULE
*****
 33 36 0 0 0
SMALL
GASTEIGER

@<TRIPOS>ATOM
      1 C          -3.9883  -18.7558   21.6337 C.ar    1  UNL1        0.1691
      2 N          -2.9930  -17.6568   21.8611 N.ar    1  UNL1       -0.1409
      3 N          -3.3658  -16.4685   22.6971 N.ar    1  UNL1       -0.1329
      4 C          -4.7338  -16.3791   23.3056 C.ar    1  UNL1        0.1515
      5 C          -5.7292  -17.4780   23.0782 C.ar    1  UNL1        0.0522
      6 C          -5.3564  -18.6664   22.2422 C.ar    1  UNL1        0.0764
      7 N          -2.2170  -20.4844   20.8435 N.am    1  UNL1       -0.3240
      8 C          -3.6155  -19.9441   20.7977 C.2     1  UNL1        0.2635
      9 O          -4.6413  -20.5922   19.9158 O.2     1  UNL1       -0.2686
     10 H          -1.9724  -21.2643   20.2948 H       1  UNL1        0.1453
     11 H          -1.5437  -20.0590   21.4223 H       1  UNL1        0.1453
     12 N          -5.1066  -15.1908   24.1416 N.pl3   1  UNL1       -0.3170
     13 H          -4.6203  -14.3415   24.0345 H       1  UNL1        0.1482
     14 C          -6.2204  -15.2963   25.1408 C.3     1  UNL1        0.0845
     15 C          -5.9198  -15.6693   26.5623 C.3     1  UNL1        0.0209
     16 C          -7.0335  -15.7748   27.5615 C.3     1  UNL1        0.0018
     17 C          -8.4477  -15.5074   27.1393 C.3     1  UNL1        0.0015
     18 C          -8.7483  -15.1344   25.7179 C.3     1  UNL1        0.0172
     19 C          -7.6346  -15.0288   24.7186 C.3     1  UNL1        0.0689
     20 N          -7.9352  -14.6558   23.2971 N.3     1  UNL1       -0.3209
     21 H          -8.9391  -14.5113   23.1886 H       1  UNL1        0.1189
     22 H          -7.6307  -15.4062   22.6770 H       1  UNL1        0.1189
     23 N          -6.3517  -19.7653   22.0148 N.pl3   1  UNL1       -0.2965
     24 H          -6.0406  -20.6762   21.8081 H       1  UNL1        0.1537
     25 C          -7.8211  -19.4763   22.1023 C.ar    1  UNL1        0.1318
     26 C          -8.6469  -20.1098   23.1823 C.ar    1  UNL1        0.0341
     27 C         -10.1162  -19.8209   23.2698 C.ar    1  UNL1       -0.0002
     28 C         -10.7596  -18.8985   22.2773 C.ar    1  UNL1       -0.0085
     29 C          -9.9337  -18.2650   21.1972 C.ar    1  UNL1        0.0564
     30 N          -8.4644  -18.5539   21.1097 N.ar    1  UNL1       -0.2352
     31 C         -10.8385  -17.4040   20.3665 C.3     1  UNL1        0.0459
     32 C         -12.2237  -17.5055   20.9331 C.3     1  UNL1        0.0110
     33 C         -12.1749  -18.4291   22.1141 C.3     1  UNL1        0.0279
@<TRIPOS>BOND
     1     7     8   am
     2     8     9    2
     3     8     1    1
     4     1     2   ar
     5     2     3   ar
     6     3     4   ar
     7     4    12    1
     8    14    12    1
     9    14    15    1
    10    15    16    1
    11    16    17    1
    12    17    18    1
    13    18    19    1
    14    19    20    1
    15     4     5   ar
    16     5     6   ar
    17     6    23    1
    18    23    25    1
    19    25    26   ar
    20    26    27   ar
    21    27    28   ar
    22    28    29   ar
    23    29    30   ar
    24    29    31    1
    25    31    32    1
    26    32    33    1
    27     6     1   ar
    28    30    25   ar
    29    19    14    1
    30    33    28    1
    31     7    10    1
    32     7    11    1
    33    12    13    1
    34    20    21    1
    35    20    22    1
    36    23    24    1
@<TRIPOS>MOLECULE
*****
 33 36 0 0 0
SMALL
GASTEIGER

@<TRIPOS>ATOM
      1 C          -8.8856  -18.4753   20.5306 C.ar    1  UNL1        0.1691
      2 N          -9.8718  -17.3451   20.5400 N.ar    1  UNL1       -0.1409
      3 N          -9.6797  -16.1898   21.4772 N.ar    1  UNL1       -0.1329
      4 C          -8.5014  -16.1648   22.4051 C.ar    1  UNL1        0.1515
      5 C          -7.5152  -17.2950   22.3957 C.ar    1  UNL1        0.0522
      6 C          -7.7073  -18.4502   21.4585 C.ar    1  UNL1        0.0764
      7 N         -10.4602  -20.0355   19.1755 N.am    1  UNL1       -0.3240
      8 C          -9.0777  -19.6306   19.5934 C.2     1  UNL1        0.2635
      9 O          -7.8873  -20.3810   19.0740 O.2     1  UNL1       -0.2686
     10 H         -10.5863  -20.7937   18.5603 H       1  UNL1        0.1453
     11 H         -11.2416  -19.5430   19.5163 H       1  UNL1        0.1453
     12 N          -8.3093  -15.0095   23.3423 N.pl3   1  UNL1       -0.3170
     13 H          -8.5929  -14.1057   23.0742 H       1  UNL1        0.1482
     14 C          -7.6852  -15.2313   24.6882 C.3     1  UNL1        0.0845
     15 C          -8.5497  -15.5448   25.8732 C.3     1  UNL1        0.0209
     16 C          -7.9257  -15.7666   27.2191 C.3     1  UNL1        0.0018
     17 C          -6.4372  -15.6748   27.3799 C.3     1  UNL1        0.0015
     18 C          -5.5727  -15.3613   26.1949 C.3     1  UNL1        0.0172
     19 C          -6.1967  -15.1395   24.8490 C.3     1  UNL1        0.0689
     20 N          -5.3322  -14.8260   23.6640 N.3     1  UNL1       -0.3209
     21 H          -4.3543  -14.8030   23.9531 H       1  UNL1        0.1189
     22 H          -5.5952  -13.9175   23.2821 H       1  UNL1        0.1189
     23 N          -6.7212  -19.5805   21.4491 N.pl3   1  UNL1       -0.2965
     24 H          -7.0324  -20.5063   21.5721 H       1  UNL1        0.1537
     25 C          -5.2607  -19.2999   21.2523 C.ar    1  UNL1        0.1318
     26 C          -4.2805  -19.6309   22.3383 C.ar    1  UNL1        0.0341
     27 C          -2.8202  -19.3504   22.1416 C.ar    1  UNL1       -0.0002
     28 C          -2.3401  -18.7389   20.8588 C.ar    1  UNL1       -0.0085
     29 C          -3.3204  -18.4079   19.7727 C.ar    1  UNL1        0.0564
     30 N          -4.7807  -18.6884   19.9695 N.ar    1  UNL1       -0.2352
     31 C          -2.5579  -17.8159   18.6247 C.3     1  UNL1        0.0459
     32 C          -1.1063  -17.7809   19.0012 C.3     1  UNL1        0.0110
     33 C          -0.9717  -18.3514   20.3820 C.3     1  UNL1        0.0279
@<TRIPOS>BOND
     1     7     8   am
     2     8     9    2
     3     8     1    1
     4     1     2   ar
     5     2     3   ar
     6     3     4   ar
     7     4    12    1
     8    14    12    1
     9    14    15    1
    10    15    16    1
    11    16    17    1
    12    17    18    1
    13    18    19    1
    14    19    20    1
    15     4     5   ar
    16     5     6   ar
    17     6    23    1
    18    23    25    1
    19    25    26   ar
    20    26    27   ar
    21    27    28   ar
    22    28    29   ar
    23    29    30   ar
    24    29    31    1
    25    31    32    1
    26    32    33    1
    27     6     1   ar
    28    30    25   ar
    29    19    14    1
    30    33    28    1
    31     7    10    1
    32     7    11    1
    33    12    13    1
    34    20    21    1
    35    20    22    1
    36    23    24    1
@<TRIPOS>MOLECULE
*****
 33 36 0 0 0
SMALL
GASTEIGER

@<TRIPOS>ATOM
      1 C          -7.1910  -15.6467   26.2547 C.ar    1  UNL1        0.1691
      2 N          -5.7379  -15.6440   26.6268 N.ar    1  UNL1       -0.1409
      3 N          -4.6893  -15.6969   25.5555 N.ar    1  UNL1       -0.1329
      4 C          -5.0938  -15.7525   24.1122 C.ar    1  UNL1        0.1515
      5 C          -6.5470  -15.7552   23.7401 C.ar    1  UNL1        0.0522
      6 C          -7.5956  -15.7022   24.8114 C.ar    1  UNL1        0.0764
      7 N          -8.5445  -14.2960   28.0136 N.am    1  UNL1       -0.3240
      8 C          -8.2396  -15.5937   27.3260 C.2     1  UNL1        0.2635
      9 O          -8.9833  -16.8386   27.7097 O.2     1  UNL1       -0.2686
     10 H          -9.2328  -14.2613   28.7167 H       1  UNL1        0.1453
     11 H          -8.0564  -13.4789   27.7618 H       1  UNL1        0.1453
     12 N          -4.0452  -15.8055   23.0409 N.pl3   1  UNL1       -0.3170
     13 H          -3.6744  -14.9708   22.6734 H       1  UNL1        0.1482
     14 C          -3.5616  -17.1301   22.5296 C.3     1  UNL1        0.0845
     15 C          -4.3770  -18.3672   22.7632 C.3     1  UNL1        0.0209
     16 C          -3.8934  -19.6918   22.2519 C.3     1  UNL1        0.0018
     17 C          -2.5945  -19.7793   21.5069 C.3     1  UNL1        0.0015
     18 C          -1.7790  -18.5422   21.2733 C.3     1  UNL1        0.0172
     19 C          -2.2626  -17.2175   21.7846 C.3     1  UNL1        0.0689
     20 N          -1.4472  -15.9804   21.5510 N.3     1  UNL1       -0.3209
     21 H          -0.6026  -16.2227   21.0330 H       1  UNL1        0.1189
     22 H          -1.1896  -15.5685   22.4479 H       1  UNL1        0.1189
     23 N          -9.0487  -15.7049   24.4393 N.pl3   1  UNL1       -0.2965
     24 H          -9.6274  -14.9557   24.7096 H       1  UNL1        0.1537
     25 C          -9.6201  -16.8491   23.6554 C.ar    1  UNL1        0.1318
     26 C         -10.3315  -17.9629   24.3645 C.ar    1  UNL1        0.0341
     27 C         -10.9029  -19.1071   23.5806 C.ar    1  UNL1       -0.0002
     28 C         -10.7628  -19.1372   22.0875 C.ar    1  UNL1       -0.0085
     29 C         -10.0514  -18.0233   21.3783 C.ar    1  UNL1        0.0564
     30 N          -9.4800  -16.8792   22.1622 N.ar    1  UNL1       -0.2352
     31 C         -10.0683  -18.3238   19.9088 C.3     1  UNL1        0.0459
     32 C         -10.7903  -19.6235   19.7098 C.3     1  UNL1        0.0110
     33 C         -11.2195  -20.1262   21.0563 C.3     1  UNL1        0.0279
@<TRIPOS>BOND
     1     7     8   am
     2     8     9    2
     3     8     1    1
     4     1     2   ar
     5     2     3   ar
     6     3     4   ar
     7     4    12    1
     8    14    12    1
     9    14    15    1
    10    15    16    1
    11    16    17    1
    12    17    18    1
    13    18    19    1
    14    19    20    1
    15     4     5   ar
    16     5     6   ar
    17     6    23    1
    18    23    25    1
    19    25    26   ar
    20    26    27   ar
    21    27    28   ar
    22    28    29   ar
    23    29    30   ar
    24    29    31    1
    25    31    32    1
    26    32    33    1
    27     6     1   ar
    28    30    25   ar
    29    19    14    1
    30    33    28    1
    31     7    10    1
    32     7    11    1
    33    12    13    1
    34    20    21    1
    35    20    22    1
    36    23    24    1
@<TRIPOS>MOLECULE
*****
 33 36 0 0 0
SMALL
GASTEIGER

@<TRIPOS>ATOM
      1 C          -3.9954  -19.3074   20.8512 C.ar    1  UNL1        0.1691
      2 N          -4.6031  -20.4350   20.0706 N.ar    1  UNL1       -0.1409
      3 N          -6.0766  -20.7011   20.1610 N.ar    1  UNL1       -0.1329
      4 C          -6.9423  -19.8396   21.0318 C.ar    1  UNL1        0.1515
      5 C          -6.3345  -18.7120   21.8123 C.ar    1  UNL1        0.0522
      6 C          -4.8611  -18.4459   21.7220 C.ar    1  UNL1        0.0764
      7 N          -1.9206  -18.5829   19.4654 N.am    1  UNL1       -0.3240
      8 C          -2.5220  -19.0413   20.7609 C.2     1  UNL1        0.2635
      9 O          -1.6498  -19.2336   21.9660 O.2     1  UNL1       -0.2686
     10 H          -0.9535  -18.4082   19.4062 H       1  UNL1        0.1453
     11 H          -2.4930  -18.4566   18.6744 H       1  UNL1        0.1453
     12 N          -8.4157  -20.1057   21.1221 N.pl3   1  UNL1       -0.3170
     13 H          -8.8667  -20.6230   20.4162 H       1  UNL1        0.1482
     14 C          -9.2021  -19.5837   22.2879 C.3     1  UNL1        0.0845
     15 C          -9.2454  -20.3596   23.5710 C.3     1  UNL1        0.0209
     16 C         -10.0317  -19.8377   24.7368 C.3     1  UNL1        0.0018
     17 C         -10.7748  -18.5400   24.6196 C.3     1  UNL1        0.0015
     18 C         -10.7315  -17.7641   23.3366 C.3     1  UNL1        0.0172
     19 C          -9.9452  -18.2860   22.1707 C.3     1  UNL1        0.0689
     20 N          -9.9019  -17.5102   20.8876 N.3     1  UNL1       -0.3209
     21 H         -10.4582  -16.6608   20.9850 H       1  UNL1        0.1189
     22 H         -10.2818  -18.0808   20.1323 H       1  UNL1        0.1189
     23 N          -4.2534  -17.3183   22.5025 N.pl3   1  UNL1       -0.2965
     24 H          -3.4041  -16.9170   22.2076 H       1  UNL1        0.1537
     25 C          -4.9396  -16.8021   23.7325 C.ar    1  UNL1        0.1318
     26 C          -4.1721  -16.6519   25.0124 C.ar    1  UNL1        0.0341
     27 C          -4.8583  -16.1357   26.2423 C.ar    1  UNL1       -0.0002
     28 C          -6.3121  -15.7697   26.1922 C.ar    1  UNL1       -0.0085
     29 C          -7.0797  -15.9200   24.9123 C.ar    1  UNL1        0.0564
     30 N          -6.3935  -16.4362   23.6824 N.ar    1  UNL1       -0.2352
     31 C          -8.4920  -15.4820   25.1646 C.3     1  UNL1        0.0459
     32 C          -8.5972  -15.0611   26.6005 C.3     1  UNL1        0.0110
     33 C          -7.2500  -15.2389   27.2356 C.3     1  UNL1        0.0279
@<TRIPOS>BOND
     1     7     8   am
     2     8     9    2
     3     8     1    1
     4     1     2   ar
     5     2     3   ar
     6     3     4   ar
     7     4    12    1
     8    14    12    1
     9    14    15    1
    10    15    16    1
    11    16    17    1
    12    17    18    1
    13    18    19    1
    14    19    20    1
    15     4     5   ar
    16     5     6   ar
    17     6    23    1
    18    23    25    1
    19    25    26   ar
    20    26    27   ar
    21    27    28   ar
    22    28    29   ar
    23    29    30   ar
    24    29    31    1
    25    31    32    1
    26    32    33    1
    27     6     1   ar
    28    30    25   ar
    29    19    14    1
    30    33    28    1
    31     7    10    1
    32     7    11    1
    33    12    13    1
    34    20    21    1
    35    20    22    1
    36    23    24    1
@<TRIPOS>MOLECULE
*****
 33 36 0 0 0
SMALL
GASTEIGER

@<TRIPOS>ATOM
      1 C          -6.2399  -19.4306   20.1920 C.ar    1  UNL1        0.1691
      2 N          -7.0135  -20.3413   19.2852 N.ar    1  UNL1       -0.1409
      3 N          -8.5132  -20.3299   19.3125 N.ar    1  UNL1       -0.1329
      4 C          -9.2393  -19.4079   20.2466 C.ar    1  UNL1        0.1515
      5 C          -8.4658  -18.4972   21.1534 C.ar    1  UNL1        0.0522
      6 C          -6.9661  -18.5086   21.1261 C.ar    1  UNL1        0.0764
      7 N          -4.0010  -20.7457   20.1032 N.am    1  UNL1       -0.3240
      8 C          -4.7402  -19.4419   20.1647 C.2     1  UNL1        0.2635
      9 O          -3.9797  -18.1495   20.1990 O.2     1  UNL1       -0.2686
     10 H          -3.0167  -20.7531   20.0853 H       1  UNL1        0.1453
     11 H          -4.5002  -21.5940   20.0807 H       1  UNL1        0.1453
     12 N         -10.7390  -19.3965   20.2739 N.pl3   1  UNL1       -0.3170
     13 H         -11.2474  -19.9103   19.6054 H       1  UNL1        0.1482
     14 C         -11.4642  -18.6025   21.3196 C.3     1  UNL1        0.0845
     15 C         -11.5979  -19.1424   22.7126 C.3     1  UNL1        0.0209
     16 C         -12.3230  -18.3484   23.7584 C.3     1  UNL1        0.0018
     17 C         -12.9145  -17.0144   23.4111 C.3     1  UNL1        0.0015
     18 C         -12.7808  -16.4745   22.0181 C.3     1  UNL1        0.0172
     19 C         -12.0557  -17.2685   20.9723 C.3     1  UNL1        0.0689
     20 N         -11.9220  -16.7285   19.5793 N.3     1  UNL1       -0.3209
     21 H         -12.3791  -15.8184   19.5221 H       1  UNL1        0.1189
     22 H         -12.3621  -17.3720   18.9215 H       1  UNL1        0.1189
     23 N          -6.1925  -17.5979   22.0329 N.pl3   1  UNL1       -0.2965
     24 H          -5.2630  -17.3585   21.8139 H       1  UNL1        0.1537
     25 C          -6.8352  -17.0520   23.2736 C.ar    1  UNL1        0.1318
     26 C          -8.3182  -17.1705   23.4643 C.ar    1  UNL1        0.0341
     27 C          -8.9608  -16.6246   24.7049 C.ar    1  UNL1       -0.0002
     28 C          -8.1204  -15.9602   25.7547 C.ar    1  UNL1       -0.0085
     29 C          -6.6373  -15.8416   25.5640 C.ar    1  UNL1        0.0564
     30 N          -5.9946  -16.3875   24.3234 N.ar    1  UNL1       -0.2352
     31 C          -6.0703  -15.1404   26.7627 C.3     1  UNL1        0.0459
     32 C          -7.2030  -14.8256   27.6942 C.3     1  UNL1        0.0110
     33 C          -8.4700  -15.3322   27.0713 C.3     1  UNL1        0.0279
@<TRIPOS>BOND
     1     7     8   am
     2     8     9    2
     3     8     1    1
     4     1     2   ar
     5     2     3   ar
     6     3     4   ar
     7     4    12    1
     8    14    12    1
     9    14    15    1
    10    15    16    1
    11    16    17    1
    12    17    18    1
    13    18    19    1
    14    19    20    1
    15     4     5   ar
    16     5     6   ar
    17     6    23    1
    18    23    25    1
    19    25    26   ar
    20    26    27   ar
    21    27    28   ar
    22    28    29   ar
    23    29    30   ar
    24    29    31    1
    25    31    32    1
    26    32    33    1
    27     6     1   ar
    28    30    25   ar
    29    19    14    1
    30    33    28    1
    31     7    10    1
    32     7    11    1
    33    12    13    1
    34    20    21    1
    35    20    22    1
    36    23    24    1
@<TRIPOS>MOLECULE
*****
 33 36 0 0 0
SMALL
GASTEIGER

@<TRIPOS>ATOM
      1 C         -16.6277   -8.8274   18.9283 C.ar    1  UNL1        0.1691
      2 N         -17.9514   -8.2191   19.2856 N.ar    1  UNL1       -0.1409
      3 N         -18.0399   -6.7601   19.6223 N.ar    1  UNL1       -0.1329
      4 C         -16.8047   -5.9093   19.6016 C.ar    1  UNL1        0.1515
      5 C         -15.4809   -6.5176   19.2442 C.ar    1  UNL1        0.0522
      6 C         -15.3925   -7.9767   18.9076 C.ar    1  UNL1        0.0764
      7 N         -17.7740  -11.1377   18.6146 N.am    1  UNL1       -0.3240
      8 C         -16.5392  -10.2864   18.5916 C.2     1  UNL1        0.2635
      9 O         -15.2159  -10.8942   18.2319 O.2     1  UNL1       -0.2686
     10 H         -17.7158  -12.0954   18.3936 H       1  UNL1        0.1453
     11 H         -18.6425  -10.7389   18.8507 H       1  UNL1        0.1453
     12 N         -16.8932   -4.4503   19.9383 N.pl3   1  UNL1       -0.3170
     13 H         -17.6411   -4.1155   20.4840 H       1  UNL1        0.1482
     14 C         -15.8422   -3.5013   19.4436 C.3     1  UNL1        0.0845
     15 C         -16.0068   -2.8267   18.1140 C.3     1  UNL1        0.0209
     16 C         -14.9559   -1.8777   17.6193 C.3     1  UNL1        0.0018
     17 C         -13.7402   -1.6033   18.4541 C.3     1  UNL1        0.0015
     18 C         -13.5756   -2.2779   19.7837 C.3     1  UNL1        0.0172
     19 C         -14.6265   -3.2269   20.2784 C.3     1  UNL1        0.0689
     20 N         -14.4619   -3.9015   21.6080 N.3     1  UNL1       -0.3209
     21 H         -13.5856   -3.6016   22.0352 H       1  UNL1        0.1189
     22 H         -14.4474   -4.9129   21.4766 H       1  UNL1        0.1189
     23 N         -14.0687   -8.5850   18.5502 N.pl3   1  UNL1       -0.2965
     24 H         -13.9249   -9.5523   18.6634 H       1  UNL1        0.1537
     25 C         -12.9641   -7.7194   18.0203 C.ar    1  UNL1        0.1318
     26 C         -12.6561   -7.7113   16.5524 C.ar    1  UNL1        0.0341
     27 C         -11.5516   -6.8458   16.0225 C.ar    1  UNL1       -0.0002
     28 C         -10.7550   -5.9883   16.9607 C.ar    1  UNL1       -0.0085
     29 C         -11.0629   -5.9964   18.4287 C.ar    1  UNL1        0.0564
     30 N         -12.1675   -6.8619   18.9586 N.ar    1  UNL1       -0.2352
     31 C         -10.1142   -5.0528   19.1066 C.3     1  UNL1        0.0459
     32 C          -9.2199   -4.4616   18.0575 C.3     1  UNL1        0.0110
     33 C          -9.6159   -5.0397   16.7312 C.3     1  UNL1        0.0279
@<TRIPOS>BOND
     1     7     8   am
     2     8     9    2
     3     8     1    1
     4     1     2   ar
     5     2     3   ar
     6     3     4   ar
     7     4    12    1
     8    14    12    1
     9    14    15    1
    10    15    16    1
    11    16    17    1
    12    17    18    1
    13    18    19    1
    14    19    20    1
    15     4     5   ar
    16     5     6   ar
    17     6    23    1
    18    23    25    1
    19    25    26   ar
    20    26    27   ar
    21    27    28   ar
    22    28    29   ar
    23    29    30   ar
    24    29    31    1
    25    31    32    1
    26    32    33    1
    27     6     1   ar
    28    30    25   ar
    29    19    14    1
    30    33    28    1
    31     7    10    1
    32     7    11    1
    33    12    13    1
    34    20    21    1
    35    20    22    1
    36    23    24    1
@<TRIPOS>MOLECULE
*****
 33 36 0 0 0
SMALL
GASTEIGER

@<TRIPOS>ATOM
      1 C          -5.8998  -16.2006   25.7369 C.ar    1  UNL1        0.1691
      2 N          -4.7388  -16.8301   26.4480 N.ar    1  UNL1       -0.1409
      3 N          -3.6272  -17.4573   25.6600 N.ar    1  UNL1       -0.1329
      4 C          -3.6766  -17.4549   24.1608 C.ar    1  UNL1        0.1515
      5 C          -4.8376  -16.8253   23.4497 C.ar    1  UNL1        0.0522
      6 C          -5.9492  -16.1982   24.2377 C.ar    1  UNL1        0.0764
      7 N          -6.7107  -14.4794   27.5061 N.am    1  UNL1       -0.3240
      8 C          -7.0114  -15.5734   26.5249 C.2     1  UNL1        0.2635
      9 O          -8.4238  -16.0403   26.3318 O.2     1  UNL1       -0.2686
     10 H          -7.4404  -14.0678   28.0233 H       1  UNL1        0.1453
     11 H          -5.7838  -14.1729   27.6328 H       1  UNL1        0.1453
     12 N          -2.5650  -18.0820   23.3728 N.pl3   1  UNL1       -0.3170
     13 H          -1.7052  -18.2826   23.8084 H       1  UNL1        0.1482
     14 C          -2.7633  -18.4035   21.9212 C.3     1  UNL1        0.0845
     15 C          -3.5438  -19.6208   21.5225 C.3     1  UNL1        0.0209
     16 C          -3.7422  -19.9424   20.0709 C.3     1  UNL1        0.0018
     17 C          -3.1601  -19.0466   19.0179 C.3     1  UNL1        0.0015
     18 C          -2.3796  -17.8292   19.4166 C.3     1  UNL1        0.0172
     19 C          -2.1812  -17.5077   20.8682 C.3     1  UNL1        0.0689
     20 N          -1.4008  -16.2903   21.2669 N.3     1  UNL1       -0.3209
     21 H          -1.0818  -15.8018   20.4302 H       1  UNL1        0.1189
     22 H          -0.5944  -16.5711   21.8248 H       1  UNL1        0.1189
     23 N          -7.1102  -15.5686   23.5266 N.pl3   1  UNL1       -0.2965
     24 H          -7.1772  -14.5883   23.4655 H       1  UNL1        0.1537
     25 C          -8.1693  -16.4327   22.9086 C.ar    1  UNL1        0.1318
     26 C          -9.5738  -16.3885   23.4331 C.ar    1  UNL1        0.0341
     27 C         -10.6328  -17.2526   22.8152 C.ar    1  UNL1       -0.0002
     28 C         -10.2872  -18.1609   21.6726 C.ar    1  UNL1       -0.0085
     29 C          -8.8826  -18.2051   21.1479 C.ar    1  UNL1        0.0564
     30 N          -7.8236  -17.3411   21.7659 N.ar    1  UNL1       -0.2352
     31 C          -8.8402  -19.1920   20.0191 C.3     1  UNL1        0.0459
     32 C         -10.2187  -19.7577   19.8460 C.3     1  UNL1        0.0110
     33 C         -11.1129  -19.1204   20.8679 C.3     1  UNL1        0.0279
@<TRIPOS>BOND
     1     7     8   am
     2     8     9    2
     3     8     1    1
     4     1     2   ar
     5     2     3   ar
     6     3     4   ar
     7     4    12    1
     8    14    12    1
     9    14    15    1
    10    15    16    1
    11    16    17    1
    12    17    18    1
    13    18    19    1
    14    19    20    1
    15     4     5   ar
    16     5     6   ar
    17     6    23    1
    18    23    25    1
    19    25    26   ar
    20    26    27   ar
    21    27    28   ar
    22    28    29   ar
    23    29    30   ar
    24    29    31    1
    25    31    32    1
    26    32    33    1
    27     6     1   ar
    28    30    25   ar
    29    19    14    1
    30    33    28    1
    31     7    10    1
    32     7    11    1
    33    12    13    1
    34    20    21    1
    35    20    22    1
    36    23    24    1
@<TRIPOS>MOLECULE
*****
 33 36 0 0 0
SMALL
GASTEIGER

@<TRIPOS>ATOM
      1 C          -6.1367  -16.2093   24.2252 C.ar    1  UNL1        0.1691
      2 N          -4.7577  -16.6265   24.6428 N.ar    1  UNL1       -0.1409
      3 N          -4.0138  -17.6591   23.8488 N.ar    1  UNL1       -0.1329
      4 C          -4.6489  -18.2745   22.6373 C.ar    1  UNL1        0.1515
      5 C          -6.0279  -17.8573   22.2197 C.ar    1  UNL1        0.0522
      6 C          -6.7718  -16.8248   23.0137 C.ar    1  UNL1        0.0764
      7 N          -6.6830  -15.0861   26.5033 N.am    1  UNL1       -0.3240
      8 C          -6.8806  -15.1768   25.0192 C.2     1  UNL1        0.2635
      9 O          -7.8222  -14.2349   24.3290 O.2     1  UNL1       -0.2686
     10 H          -7.1713  -14.4083   27.0244 H       1  UNL1        0.1453
     11 H          -6.0651  -15.7042   26.9563 H       1  UNL1        0.1453
     12 N          -3.9051  -19.3070   21.8433 N.pl3   1  UNL1       -0.3170
     13 H          -4.0426  -20.2640   22.0290 H       1  UNL1        0.1482
     14 C          -2.9516  -18.8816   20.7663 C.3     1  UNL1        0.0845
     15 C          -3.4051  -18.8388   19.3372 C.3     1  UNL1        0.0209
     16 C          -2.4517  -18.4134   18.2602 C.3     1  UNL1        0.0018
     17 C          -1.0447  -18.0308   18.6123 C.3     1  UNL1        0.0015
     18 C          -0.5912  -18.0736   20.0415 C.3     1  UNL1        0.0172
     19 C          -1.5446  -18.4990   21.1185 C.3     1  UNL1        0.0689
     20 N          -1.0910  -18.5419   22.5476 N.3     1  UNL1       -0.3209
     21 H          -0.1145  -18.2525   22.6032 H       1  UNL1        0.1189
     22 H          -1.1849  -19.4923   22.9058 H       1  UNL1        0.1189
     23 N          -8.1508  -16.4076   22.5961 N.pl3   1  UNL1       -0.2965
     24 H          -8.2680  -15.7002   21.9215 H       1  UNL1        0.1537
     25 C          -9.3514  -17.0683   23.2064 C.ar    1  UNL1        0.1318
     26 C          -9.1760  -18.0786   24.3011 C.ar    1  UNL1        0.0341
     27 C         -10.3764  -18.7393   24.9113 C.ar    1  UNL1       -0.0002
     28 C         -11.7523  -18.3896   24.4268 C.ar    1  UNL1       -0.0085
     29 C         -11.9277  -17.3793   23.3320 C.ar    1  UNL1        0.0564
     30 N         -10.7273  -16.7186   22.7218 N.ar    1  UNL1       -0.2352
     31 C         -13.3965  -17.2379   23.0627 C.3     1  UNL1        0.0459
     32 C         -14.1289  -18.1608   23.9911 C.3     1  UNL1        0.0110
     33 C         -13.1127  -18.8726   24.8341 C.3     1  UNL1        0.0279
@<TRIPOS>BOND
     1     7     8   am
     2     8     9    2
     3     8     1    1
     4     1     2   ar
     5     2     3   ar
     6     3     4   ar
     7     4    12    1
     8    14    12    1
     9    14    15    1
    10    15    16    1
    11    16    17    1
    12    17    18    1
    13    18    19    1
    14    19    20    1
    15     4     5   ar
    16     5     6   ar
    17     6    23    1
    18    23    25    1
    19    25    26   ar
    20    26    27   ar
    21    27    28   ar
    22    28    29   ar
    23    29    30   ar
    24    29    31    1
    25    31    32    1
    26    32    33    1
    27     6     1   ar
    28    30    25   ar
    29    19    14    1
    30    33    28    1
    31     7    10    1
    32     7    11    1
    33    12    13    1
    34    20    21    1
    35    20    22    1
    36    23    24    1
@<TRIPOS>MOLECULE
*****
 33 36 0 0 0
SMALL
GASTEIGER

@<TRIPOS>ATOM
      1 C          -5.8770  -16.1203   25.4049 C.ar    1  UNL1        0.1691
      2 N          -4.7222  -16.7513   26.1248 N.ar    1  UNL1       -0.1409
      3 N          -3.7240  -17.5739   25.3652 N.ar    1  UNL1       -0.1329
      4 C          -3.8806  -17.7656   23.8858 C.ar    1  UNL1        0.1515
      5 C          -5.0355  -17.1346   23.1659 C.ar    1  UNL1        0.0522
      6 C          -6.0337  -16.3119   23.9255 C.ar    1  UNL1        0.0764
      7 N          -6.4334  -14.4830   27.3438 N.am    1  UNL1       -0.3240
      8 C          -6.8752  -15.2977   26.1645 C.2     1  UNL1        0.2635
      9 O          -8.3152  -15.2898   25.7446 O.2     1  UNL1       -0.2686
     10 H          -7.0886  -13.9431   27.8423 H       1  UNL1        0.1453
     11 H          -5.4883  -14.4881   27.6194 H       1  UNL1        0.1453
     12 N          -2.8825  -18.5882   23.1263 N.pl3   1  UNL1       -0.3170
     13 H          -2.3930  -19.3114   23.5807 H       1  UNL1        0.1482
     14 C          -2.6300  -18.3089   21.6743 C.3     1  UNL1        0.0845
     15 C          -1.5958  -17.2989   21.2737 C.3     1  UNL1        0.0209
     16 C          -1.3433  -17.0195   19.8218 C.3     1  UNL1        0.0018
     17 C          -2.1249  -17.7501   18.7705 C.3     1  UNL1        0.0015
     18 C          -3.1590  -18.7601   19.1711 C.3     1  UNL1        0.0172
     19 C          -3.4116  -19.0394   20.6230 C.3     1  UNL1        0.0689
     20 N          -4.4458  -20.0494   21.0236 N.3     1  UNL1       -0.3209
     21 H          -4.8760  -20.4453   20.1878 H       1  UNL1        0.1189
     22 H          -5.1612  -19.5963   21.5922 H       1  UNL1        0.1189
     23 N          -7.1885  -15.6809   23.2056 N.pl3   1  UNL1       -0.2965
     24 H          -7.2788  -14.7008   23.1839 H       1  UNL1        0.1537
     25 C          -8.2057  -16.5433   22.5188 C.ar    1  UNL1        0.1318
     26 C          -9.6466  -16.4760   22.9302 C.ar    1  UNL1        0.0341
     27 C         -10.6638  -17.3383   22.2434 C.ar    1  UNL1       -0.0002
     28 C         -10.2401  -18.2680   21.1452 C.ar    1  UNL1       -0.0085
     29 C          -8.7992  -18.3353   20.7337 C.ar    1  UNL1        0.0564
     30 N          -7.7820  -17.4730   21.4204 N.ar    1  UNL1       -0.2352
     31 C          -8.6798  -19.3401   19.6263 C.3     1  UNL1        0.0459
     32 C         -10.0469  -19.8937   19.3535 C.3     1  UNL1        0.0110
     33 C         -11.0112  -19.2311   20.2921 C.3     1  UNL1        0.0279
@<TRIPOS>BOND
     1     7     8   am
     2     8     9    2
     3     8     1    1
     4     1     2   ar
     5     2     3   ar
     6     3     4   ar
     7     4    12    1
     8    14    12    1
     9    14    15    1
    10    15    16    1
    11    16    17    1
    12    17    18    1
    13    18    19    1
    14    19    20    1
    15     4     5   ar
    16     5     6   ar
    17     6    23    1
    18    23    25    1
    19    25    26   ar
    20    26    27   ar
    21    27    28   ar
    22    28    29   ar
    23    29    30   ar
    24    29    31    1
    25    31    32    1
    26    32    33    1
    27     6     1   ar
    28    30    25   ar
    29    19    14    1
    30    33    28    1
    31     7    10    1
    32     7    11    1
    33    12    13    1
    34    20    21    1
    35    20    22    1
    36    23    24    1
