@<TRIPOS>MOLECULE
*****
 29 31 0 0 0
SMALL
GASTEIGER

@<TRIPOS>ATOM
      1 N          -6.8976  -18.8617   22.3420 N.3     1  UNL1       -0.2713
      2 C          -6.8442  -17.3783   22.5577 C.3     1  UNL1        0.0749
      3 C          -8.0832  -16.6337   22.9583 C.3     1  UNL1        0.0485
      4 C          -9.3755  -17.3725   23.1431 C.3     1  UNL1        0.1096
      5 O          -9.8252  -15.9774   23.4615 O.3     1  UNL1       -0.3826
      6 C          -9.4288  -18.8559   22.9274 C.3     1  UNL1        0.0485
      7 C          -8.1899  -19.6005   22.5268 C.3     1  UNL1        0.0749
      8 H          -9.0737  -15.3693   23.3815 H       1  UNL1        0.2107
      9 C         -10.8240  -17.6267   23.4385 C.ar    1  UNL1        0.0019
     10 C         -11.2109  -18.5945   24.5172 C.ar    1  UNL1        0.0003
     11 C         -12.6595  -18.8486   24.8125 C.ar    1  UNL1        0.0294
     12 C         -13.7210  -18.1349   24.0291 C.ar    1  UNL1        0.1401
     13 F         -15.1696  -18.3891   24.3245 F       1  UNL1       -0.2042
     14 C         -13.3341  -17.1671   22.9504 C.ar    1  UNL1        0.0294
     15 C         -11.8856  -16.9130   22.6551 C.ar    1  UNL1        0.0003
     16 C          -5.6586  -19.6064   21.9414 C.3     1  UNL1        0.0888
     17 C          -5.7689  -20.9718   21.3301 C.3     1  UNL1        0.0203
     18 C          -4.3094  -18.9857   22.1520 C.3     1  UNL1        0.1472
     19 O          -3.8335  -18.6792   23.5411 O.3     1  UNL1       -0.3787
     20 H          -2.9486  -18.2840   23.4998 H       1  UNL1        0.2108
     21 C           0.3377  -17.7116   20.2074 C.3     1  UNL1        0.0342
     22 C          -1.1126  -18.0345   20.0013 C.ar    1  UNL1        0.0116
     23 C          -1.9859  -18.3487   21.1797 C.ar    1  UNL1       -0.0032
     24 C          -3.4361  -18.6715   20.9735 C.ar    1  UNL1        0.0054
     25 C          -4.0131  -18.6802   19.5890 C.ar    1  UNL1        0.0012
     26 C          -3.1398  -18.3661   18.4106 C.ar    1  UNL1        0.0360
     27 C          -1.6896  -18.0432   18.6168 C.ar    1  UNL1        0.1296
     28 O          -0.8163  -17.7290   17.4383 O.3     1  UNL1       -0.5058
     29 H          -1.1767  -17.7344   16.5734 H       1  UNL1        0.2922
@<TRIPOS>BOND
     1    21    22    1
     2    22    23   ar
     3    23    24   ar
     4    24    18    1
     5    18    19    1
     6    18    16    1
     7    16    17    1
     8    16     1    1
     9     1     2    1
    10     2     3    1
    11     3     4    1
    12     4     5    1
    13     4     9    1
    14     9    10   ar
    15    10    11   ar
    16    11    12   ar
    17    12    13    1
    18    12    14   ar
    19    14    15   ar
    20     4     6    1
    21     6     7    1
    22    24    25   ar
    23    25    26   ar
    24    26    27   ar
    25    27    28    1
    26    27    22   ar
    27     7     1    1
    28    15     9   ar
    29    19    20    1
    30     5     8    1
    31    28    29    1
@<TRIPOS>MOLECULE
*****
 29 31 0 0 0
SMALL
GASTEIGER

@<TRIPOS>ATOM
      1 N          -6.6003  -17.1664   23.2790 N.3     1  UNL1       -0.2713
      2 C          -6.6795  -18.2994   22.2993 C.3     1  UNL1        0.0749
      3 C          -8.0007  -18.9462   22.0059 C.3     1  UNL1        0.0485
      4 C          -9.2427  -18.4599   22.6922 C.3     1  UNL1        0.1096
      5 O          -9.8232  -19.5563   21.8491 O.3     1  UNL1       -0.3826
      6 C          -9.1635  -17.3269   23.6719 C.3     1  UNL1        0.0485
      7 C          -7.8423  -16.6801   23.9653 C.3     1  UNL1        0.0749
      8 H          -9.1170  -19.9758   21.3331 H       1  UNL1        0.2107
      9 C         -10.6863  -18.3545   23.0856 C.ar    1  UNL1        0.0019
     10 C         -11.1441  -18.8913   24.4093 C.ar    1  UNL1        0.0003
     11 C         -12.5878  -18.7858   24.8027 C.ar    1  UNL1        0.0294
     12 C         -13.5736  -18.1435   23.8723 C.ar    1  UNL1        0.1401
     13 F         -15.0173  -18.0380   24.2658 F       1  UNL1       -0.2042
     14 C         -13.1158  -17.6066   22.5487 C.ar    1  UNL1        0.0294
     15 C         -11.6722  -17.7121   22.1553 C.ar    1  UNL1        0.0003
     16 C          -5.2791  -16.5196   23.5725 C.3     1  UNL1        0.0888
     17 C          -5.2137  -15.0526   23.8784 C.3     1  UNL1        0.0203
     18 C          -4.0233  -17.3399   23.5601 C.3     1  UNL1        0.1472
     19 O          -3.5627  -18.0253   24.8123 O.3     1  UNL1       -0.3787
     20 H          -2.7415  -18.5092   24.6327 H       1  UNL1        0.2108
     21 C          -3.0389  -19.8307   19.1074 C.3     1  UNL1        0.0342
     22 C          -2.7358  -18.7201   20.0690 C.ar    1  UNL1        0.0116
     23 C          -3.5310  -18.5853   21.3337 C.ar    1  UNL1       -0.0032
     24 C          -3.2280  -17.4747   22.2954 C.ar    1  UNL1        0.0054
     25 C          -2.1298  -16.4990   21.9924 C.ar    1  UNL1        0.0012
     26 C          -1.3345  -16.6339   20.7277 C.ar    1  UNL1        0.0360
     27 C          -1.6376  -17.7444   19.7661 C.ar    1  UNL1        0.1296
     28 O          -0.8423  -17.8793   18.5013 O.3     1  UNL1       -0.5058
     29 H          -0.1563  -17.2698   18.3121 H       1  UNL1        0.2922
@<TRIPOS>BOND
     1    21    22    1
     2    22    23   ar
     3    23    24   ar
     4    24    18    1
     5    18    19    1
     6    18    16    1
     7    16    17    1
     8    16     1    1
     9     1     2    1
    10     2     3    1
    11     3     4    1
    12     4     5    1
    13     4     9    1
    14     9    10   ar
    15    10    11   ar
    16    11    12   ar
    17    12    13    1
    18    12    14   ar
    19    14    15   ar
    20     4     6    1
    21     6     7    1
    22    24    25   ar
    23    25    26   ar
    24    26    27   ar
    25    27    28    1
    26    27    22   ar
    27     7     1    1
    28    15     9   ar
    29    19    20    1
    30     5     8    1
    31    28    29    1
@<TRIPOS>MOLECULE
*****
 29 31 0 0 0
SMALL
GASTEIGER

@<TRIPOS>ATOM
      1 N          -7.1372  -16.3320   23.7729 N.3     1  UNL1       -0.2713
      2 C          -7.2620  -16.8329   22.3646 C.3     1  UNL1        0.0749
      3 C          -8.5655  -17.3967   21.8820 C.3     1  UNL1        0.0485
      4 C          -9.7442  -17.4596   22.8076 C.3     1  UNL1        0.1096
      5 O         -10.3516  -18.0541   21.5717 O.3     1  UNL1       -0.3826
      6 C          -9.6193  -16.9586   24.2159 C.3     1  UNL1        0.0485
      7 C          -8.3158  -16.3948   24.6986 C.3     1  UNL1        0.0749
      8 H          -9.6875  -18.0794   20.8651 H       1  UNL1        0.2107
      9 C         -11.1338  -17.7289   23.3040 C.ar    1  UNL1        0.0019
     10 C         -11.3463  -18.6182   24.4930 C.ar    1  UNL1        0.0003
     11 C         -12.7361  -18.8875   24.9893 C.ar    1  UNL1        0.0294
     12 C         -13.9131  -18.2674   24.2966 C.ar    1  UNL1        0.1401
     13 F         -15.3028  -18.5368   24.7929 F       1  UNL1       -0.2042
     14 C         -13.7005  -17.3781   23.1075 C.ar    1  UNL1        0.0294
     15 C         -12.3109  -17.1088   22.6112 C.ar    1  UNL1        0.0003
     16 C          -5.8336  -15.7681   24.2556 C.3     1  UNL1        0.0888
     17 C          -5.6665  -15.3947   25.6987 C.3     1  UNL1        0.0203
     18 C          -4.6973  -15.5778   23.2952 C.3     1  UNL1        0.1472
     19 O          -4.3228  -14.1984   22.8403 O.3     1  UNL1       -0.3787
     20 H          -3.5739  -14.2526   22.2263 H       1  UNL1        0.2108
     21 C          -0.7837  -17.5641   20.5134 C.3     1  UNL1        0.0342
     22 C          -1.9786  -17.7601   21.3987 C.ar    1  UNL1        0.0116
     23 C          -2.7405  -16.5710   21.9043 C.ar    1  UNL1       -0.0032
     24 C          -3.9354  -16.7669   22.7896 C.ar    1  UNL1        0.0054
     25 C          -4.3685  -18.1519   23.1693 C.ar    1  UNL1        0.0012
     26 C          -3.6066  -19.3410   22.6637 C.ar    1  UNL1        0.0360
     27 C          -2.4117  -19.1450   21.7784 C.ar    1  UNL1        0.1296
     28 O          -1.6498  -20.3342   21.2728 O.3     1  UNL1       -0.5058
     29 H          -1.9204  -21.1994   21.5099 H       1  UNL1        0.2922
@<TRIPOS>BOND
     1    21    22    1
     2    22    23   ar
     3    23    24   ar
     4    24    18    1
     5    18    19    1
     6    18    16    1
     7    16    17    1
     8    16     1    1
     9     1     2    1
    10     2     3    1
    11     3     4    1
    12     4     5    1
    13     4     9    1
    14     9    10   ar
    15    10    11   ar
    16    11    12   ar
    17    12    13    1
    18    12    14   ar
    19    14    15   ar
    20     4     6    1
    21     6     7    1
    22    24    25   ar
    23    25    26   ar
    24    26    27   ar
    25    27    28    1
    26    27    22   ar
    27     7     1    1
    28    15     9   ar
    29    19    20    1
    30     5     8    1
    31    28    29    1
@<TRIPOS>MOLECULE
*****
 29 31 0 0 0
SMALL
GASTEIGER

@<TRIPOS>ATOM
      1 N          -7.4305  -19.4204   22.4322 N.3     1  UNL1       -0.2713
      2 C          -7.2981  -20.5404   21.4433 C.3     1  UNL1        0.0749
      3 C          -6.0464  -20.6772   20.6282 C.3     1  UNL1        0.0485
      4 C          -4.9271  -19.6938   20.8019 C.3     1  UNL1        0.1096
      5 O          -4.3345  -20.5792   19.7460 O.3     1  UNL1       -0.3826
      6 C          -5.0594  -18.5738   21.7908 C.3     1  UNL1        0.0485
      7 C          -6.3111  -18.4371   22.6059 C.3     1  UNL1        0.0749
      8 H          -4.9634  -21.2836   19.5244 H       1  UNL1        0.2107
      9 C          -3.6019  -19.0181   20.6089 C.ar    1  UNL1        0.0019
     10 C          -3.2006  -18.5286   19.2490 C.ar    1  UNL1        0.0003
     11 C          -1.8754  -17.8528   19.0560 C.ar    1  UNL1        0.0294
     12 C          -0.9516  -17.6665   20.2230 C.ar    1  UNL1        0.1401
     13 F           0.3737  -16.9907   20.0300 F       1  UNL1       -0.2042
     14 C          -1.3529  -18.1560   21.5829 C.ar    1  UNL1        0.0294
     15 C          -2.6780  -18.8318   21.7758 C.ar    1  UNL1        0.0003
     16 C          -8.6822  -19.2836   23.2474 C.3     1  UNL1        0.0888
     17 C          -9.3297  -20.5011   23.8375 C.3     1  UNL1        0.0203
     18 C          -9.2864  -17.9292   23.4725 C.3     1  UNL1        0.1472
     19 O          -8.9041  -17.1291   24.6823 O.3     1  UNL1       -0.3787
     20 H          -9.3816  -16.2848   24.6756 H       1  UNL1        0.2108
     21 C         -10.3549  -14.8721   19.4089 C.3     1  UNL1        0.0342
     22 C         -10.8071  -15.8464   20.4559 C.ar    1  UNL1        0.0116
     23 C          -9.8207  -16.4007   21.4407 C.ar    1  UNL1       -0.0032
     24 C         -10.2729  -17.3750   22.4877 C.ar    1  UNL1        0.0054
     25 C         -11.7115  -17.7950   22.5500 C.ar    1  UNL1        0.0012
     26 C         -12.6979  -17.2408   21.5653 C.ar    1  UNL1        0.0360
     27 C         -12.2457  -16.2665   20.5182 C.ar    1  UNL1        0.1296
     28 O         -13.2322  -15.7122   19.5335 O.3     1  UNL1       -0.5058
     29 H         -14.1309  -15.9746   19.5724 H       1  UNL1        0.2922
@<TRIPOS>BOND
     1    21    22    1
     2    22    23   ar
     3    23    24   ar
     4    24    18    1
     5    18    19    1
     6    18    16    1
     7    16    17    1
     8    16     1    1
     9     1     2    1
    10     2     3    1
    11     3     4    1
    12     4     5    1
    13     4     9    1
    14     9    10   ar
    15    10    11   ar
    16    11    12   ar
    17    12    13    1
    18    12    14   ar
    19    14    15   ar
    20     4     6    1
    21     6     7    1
    22    24    25   ar
    23    25    26   ar
    24    26    27   ar
    25    27    28    1
    26    27    22   ar
    27     7     1    1
    28    15     9   ar
    29    19    20    1
    30     5     8    1
    31    28    29    1
@<TRIPOS>MOLECULE
*****
 29 31 0 0 0
SMALL
GASTEIGER

@<TRIPOS>ATOM
      1 N          -7.6990  -19.1726   21.8051 N.3     1  UNL1       -0.2713
      2 C          -7.5319  -20.4234   20.9941 C.3     1  UNL1        0.0749
      3 C          -6.1999  -20.7515   20.3875 C.3     1  UNL1        0.0485
      4 C          -5.0350  -19.8289   20.5918 C.3     1  UNL1        0.1096
      5 O          -4.3850  -20.8869   19.7503 O.3     1  UNL1       -0.3826
      6 C          -5.2020  -18.5782   21.4027 C.3     1  UNL1        0.0485
      7 C          -6.5340  -18.2500   22.0094 C.3     1  UNL1        0.0749
      8 H          -5.0359  -21.5723   19.5329 H       1  UNL1        0.2107
      9 C          -3.6443  -19.2738   20.5038 C.ar    1  UNL1        0.0019
     10 C          -2.7345  -19.3375   21.6947 C.ar    1  UNL1        0.0003
     11 C          -1.3437  -18.7823   21.6066 C.ar    1  UNL1        0.0294
     12 C          -0.8629  -18.1636   20.3276 C.ar    1  UNL1        0.1401
     13 F           0.5279  -17.6084   20.2396 F       1  UNL1       -0.2042
     14 C          -1.7726  -18.0999   19.1367 C.ar    1  UNL1        0.0294
     15 C          -3.1633  -18.6550   19.2248 C.ar    1  UNL1        0.0003
     16 C          -9.0310  -18.8444   22.4118 C.3     1  UNL1        0.0888
     17 C         -10.0147  -19.9398   22.6991 C.3     1  UNL1        0.0203
     18 C          -9.3794  -17.4208   22.7311 C.3     1  UNL1        0.1472
     19 O         -10.4849  -16.7338   21.9856 O.3     1  UNL1       -0.3787
     20 H         -10.5793  -15.8253   22.3122 H       1  UNL1        0.2108
     21 C          -8.4898  -16.4338   27.7545 C.3     1  UNL1        0.0342
     22 C          -8.1773  -16.1907   26.3077 C.ar    1  UNL1        0.0116
     23 C          -8.9345  -16.9273   25.2428 C.ar    1  UNL1       -0.0032
     24 C          -8.6221  -16.6841   23.7960 C.ar    1  UNL1        0.0054
     25 C          -7.5524  -15.7045   23.4141 C.ar    1  UNL1        0.0012
     26 C          -6.7952  -14.9679   24.4790 C.ar    1  UNL1        0.0360
     27 C          -7.1077  -15.2110   25.9258 C.ar    1  UNL1        0.1296
     28 O          -6.3504  -14.4743   26.9907 O.3     1  UNL1       -0.5058
     29 H          -5.6822  -13.8623   26.7521 H       1  UNL1        0.2922
@<TRIPOS>BOND
     1    21    22    1
     2    22    23   ar
     3    23    24   ar
     4    24    18    1
     5    18    19    1
     6    18    16    1
     7    16    17    1
     8    16     1    1
     9     1     2    1
    10     2     3    1
    11     3     4    1
    12     4     5    1
    13     4     9    1
    14     9    10   ar
    15    10    11   ar
    16    11    12   ar
    17    12    13    1
    18    12    14   ar
    19    14    15   ar
    20     4     6    1
    21     6     7    1
    22    24    25   ar
    23    25    26   ar
    24    26    27   ar
    25    27    28    1
    26    27    22   ar
    27     7     1    1
    28    15     9   ar
    29    19    20    1
    30     5     8    1
    31    28    29    1
@<TRIPOS>MOLECULE
*****
 29 31 0 0 0
SMALL
GASTEIGER

@<TRIPOS>ATOM
      1 N          -7.8516  -19.3048   21.1437 N.3     1  UNL1       -0.2713
      2 C          -7.5038  -20.6547   20.5900 C.3     1  UNL1        0.0749
      3 C          -6.0853  -20.9699   20.2177 C.3     1  UNL1        0.0485
      4 C          -5.0147  -19.9351   20.3991 C.3     1  UNL1        0.1096
      5 O          -4.1964  -21.0616   19.8411 O.3     1  UNL1       -0.3826
      6 C          -5.3625  -18.5852   20.9529 C.3     1  UNL1        0.0485
      7 C          -6.7809  -18.2700   21.3252 C.3     1  UNL1        0.0749
      8 H          -4.7708  -21.8239   19.6684 H       1  UNL1        0.2107
      9 C          -3.6598  -19.2916   20.3868 C.ar    1  UNL1        0.0019
     10 C          -3.0888  -18.7702   19.1015 C.ar    1  UNL1        0.0003
     11 C          -1.7338  -18.1267   19.0892 C.ar    1  UNL1        0.0294
     12 C          -0.9500  -18.0047   20.3622 C.ar    1  UNL1        0.1401
     13 F           0.4050  -17.3611   20.3499 F       1  UNL1       -0.2042
     14 C          -1.5210  -18.5261   21.6475 C.ar    1  UNL1        0.0294
     15 C          -2.8758  -19.1696   21.6598 C.ar    1  UNL1        0.0003
     16 C          -9.2701  -18.9896   21.5161 C.3     1  UNL1        0.0888
     17 C         -10.2325  -18.5140   20.4684 C.3     1  UNL1        0.0203
     18 C          -9.7261  -19.1500   22.9360 C.3     1  UNL1        0.1472
     19 O         -10.5920  -20.3134   23.3188 O.3     1  UNL1       -0.3787
     20 H         -10.7949  -20.2676   24.2662 H       1  UNL1        0.2108
     21 C          -7.4734  -14.6387   24.1907 C.3     1  UNL1        0.0342
     22 C          -8.1898  -15.8912   24.6005 C.ar    1  UNL1        0.0116
     23 C          -8.5998  -16.8943   23.5634 C.ar    1  UNL1       -0.0032
     24 C          -9.3162  -18.1468   23.9733 C.ar    1  UNL1        0.0054
     25 C          -9.6226  -18.3962   25.4202 C.ar    1  UNL1        0.0012
     26 C          -9.2127  -17.3931   26.4574 C.ar    1  UNL1        0.0360
     27 C          -8.4963  -16.1406   26.0475 C.ar    1  UNL1        0.1296
     28 O          -8.0864  -15.1375   27.0848 O.3     1  UNL1       -0.5058
     29 H          -8.2778  -15.2933   27.9887 H       1  UNL1        0.2922
@<TRIPOS>BOND
     1    21    22    1
     2    22    23   ar
     3    23    24   ar
     4    24    18    1
     5    18    19    1
     6    18    16    1
     7    16    17    1
     8    16     1    1
     9     1     2    1
    10     2     3    1
    11     3     4    1
    12     4     5    1
    13     4     9    1
    14     9    10   ar
    15    10    11   ar
    16    11    12   ar
    17    12    13    1
    18    12    14   ar
    19    14    15   ar
    20     4     6    1
    21     6     7    1
    22    24    25   ar
    23    25    26   ar
    24    26    27   ar
    25    27    28    1
    26    27    22   ar
    27     7     1    1
    28    15     9   ar
    29    19    20    1
    30     5     8    1
    31    28    29    1
@<TRIPOS>MOLECULE
*****
 29 31 0 0 0
SMALL
GASTEIGER

@<TRIPOS>ATOM
      1 N         -12.1676   -6.7568   18.7573 N.3     1  UNL1       -0.2713
      2 C         -12.8265   -5.7092   19.6048 C.3     1  UNL1        0.0749
      3 C         -14.3182   -5.7004   19.7615 C.3     1  UNL1        0.0485
      4 C         -15.1511   -6.7393   19.0708 C.3     1  UNL1        0.1096
      5 O         -16.2293   -5.9582   19.7617 O.3     1  UNL1       -0.3826
      6 C         -14.4922   -7.7869   18.2233 C.3     1  UNL1        0.0485
      7 C         -13.0004   -7.7957   18.0666 C.3     1  UNL1        0.0749
      8 H         -15.8301   -5.2306   20.2640 H       1  UNL1        0.2107
      9 C         -16.3584   -7.5069   18.6200 C.ar    1  UNL1        0.0019
     10 C         -17.1220   -8.3471   19.6002 C.ar    1  UNL1        0.0003
     11 C         -18.3294   -9.1147   19.1493 C.ar    1  UNL1        0.0294
     12 C         -18.7730   -9.0419   17.7184 C.ar    1  UNL1        0.1401
     13 F         -19.9804   -9.8095   17.2676 F       1  UNL1       -0.2042
     14 C         -18.0094   -8.2016   16.7382 C.ar    1  UNL1        0.0294
     15 C         -16.8021   -7.4341   17.1890 C.ar    1  UNL1        0.0003
     16 C         -10.6758   -6.7656   18.6005 C.3     1  UNL1        0.0888
     17 C          -9.9809   -7.9996   18.1064 C.3     1  UNL1        0.0203
     18 C          -9.8790   -5.5403   18.9379 C.3     1  UNL1        0.1472
     19 O          -8.8336   -5.5977   20.0120 O.3     1  UNL1       -0.3787
     20 H          -8.4153   -4.7273   20.1029 H       1  UNL1        0.2108
     21 C         -12.1868   -0.8940   18.6443 C.3     1  UNL1        0.0342
     22 C         -11.2816   -1.9345   18.0543 C.ar    1  UNL1        0.0116
     23 C         -11.0329   -3.2172   18.7910 C.ar    1  UNL1       -0.0032
     24 C         -10.1277   -4.2576   18.2011 C.ar    1  UNL1        0.0054
     25 C          -9.4711   -4.0153   16.8744 C.ar    1  UNL1        0.0012
     26 C          -9.7198   -2.7327   16.1376 C.ar    1  UNL1        0.0360
     27 C         -10.6250   -1.6922   16.7276 C.ar    1  UNL1        0.1296
     28 O         -10.8737   -0.4095   15.9908 O.3     1  UNL1       -0.5058
     29 H         -10.4636   -0.2582   15.1620 H       1  UNL1        0.2922
@<TRIPOS>BOND
     1    21    22    1
     2    22    23   ar
     3    23    24   ar
     4    24    18    1
     5    18    19    1
     6    18    16    1
     7    16    17    1
     8    16     1    1
     9     1     2    1
    10     2     3    1
    11     3     4    1
    12     4     5    1
    13     4     9    1
    14     9    10   ar
    15    10    11   ar
    16    11    12   ar
    17    12    13    1
    18    12    14   ar
    19    14    15   ar
    20     4     6    1
    21     6     7    1
    22    24    25   ar
    23    25    26   ar
    24    26    27   ar
    25    27    28    1
    26    27    22   ar
    27     7     1    1
    28    15     9   ar
    29    19    20    1
    30     5     8    1
    31    28    29    1
@<TRIPOS>MOLECULE
*****
 29 31 0 0 0
SMALL
GASTEIGER

@<TRIPOS>ATOM
      1 N         -12.0497   -6.3253   18.3339 N.3     1  UNL1       -0.2713
      2 C         -12.2660   -6.7907   16.9244 C.3     1  UNL1        0.0749
      3 C         -13.5411   -7.4874   16.5520 C.3     1  UNL1        0.0485
      4 C         -14.5999   -7.7187   17.5891 C.3     1  UNL1        0.1096
      5 O         -15.2640   -8.3393   16.3958 O.3     1  UNL1       -0.3826
      6 C         -14.3836   -7.2533   18.9985 C.3     1  UNL1        0.0485
      7 C         -13.1085   -6.5566   19.3709 C.3     1  UNL1        0.0749
      8 H         -14.6802   -8.2632   15.6249 H       1  UNL1        0.2107
      9 C         -15.8894   -8.1656   18.2116 C.ar    1  UNL1        0.0019
     10 C         -16.2858   -9.6113   18.1602 C.ar    1  UNL1        0.0003
     11 C         -17.5753  -10.0580   18.7828 C.ar    1  UNL1        0.0294
     12 C         -18.4684   -9.0590   19.4568 C.ar    1  UNL1        0.1401
     13 F         -19.7579   -9.5059   20.0794 F       1  UNL1       -0.2042
     14 C         -18.0720   -7.6133   19.5083 C.ar    1  UNL1        0.0294
     15 C         -16.7825   -7.1665   18.8857 C.ar    1  UNL1        0.0003
     16 C         -10.7746   -5.6286   18.7063 C.3     1  UNL1        0.0888
     17 C          -9.5345   -6.4280   18.9768 C.3     1  UNL1        0.0203
     18 C         -10.7396   -4.1325   18.8083 C.3     1  UNL1        0.1472
     19 O          -9.5298   -3.4472   19.3711 O.3     1  UNL1       -0.3787
     20 H          -9.6703   -2.4874   19.3661 H       1  UNL1        0.2108
     21 C         -15.1400   -1.5806   19.8689 C.3     1  UNL1        0.0342
     22 C         -14.1146   -2.0457   18.8778 C.ar    1  UNL1        0.0116
     23 C         -12.9398   -2.8565   19.3386 C.ar    1  UNL1       -0.0032
     24 C         -11.9145   -3.3216   18.3475 C.ar    1  UNL1        0.0054
     25 C         -12.0640   -2.9760   16.8955 C.ar    1  UNL1        0.0012
     26 C         -13.2388   -2.1652   16.4347 C.ar    1  UNL1        0.0360
     27 C         -14.2641   -1.7001   17.4259 C.ar    1  UNL1        0.1296
     28 O         -15.4390   -0.8892   16.9650 O.3     1  UNL1       -0.5058
     29 H         -15.5324   -0.6733   16.0580 H       1  UNL1        0.2922
@<TRIPOS>BOND
     1    21    22    1
     2    22    23   ar
     3    23    24   ar
     4    24    18    1
     5    18    19    1
     6    18    16    1
     7    16    17    1
     8    16     1    1
     9     1     2    1
    10     2     3    1
    11     3     4    1
    12     4     5    1
    13     4     9    1
    14     9    10   ar
    15    10    11   ar
    16    11    12   ar
    17    12    13    1
    18    12    14   ar
    19    14    15   ar
    20     4     6    1
    21     6     7    1
    22    24    25   ar
    23    25    26   ar
    24    26    27   ar
    25    27    28    1
    26    27    22   ar
    27     7     1    1
    28    15     9   ar
    29    19    20    1
    30     5     8    1
    31    28    29    1
@<TRIPOS>MOLECULE
*****
 29 31 0 0 0
SMALL
GASTEIGER

@<TRIPOS>ATOM
      1 N         -16.1736   -4.0766   18.5411 N.3     1  UNL1       -0.2713
      2 C         -15.7056   -3.5207   19.8533 C.3     1  UNL1        0.0749
      3 C         -14.2481   -3.2424   20.0728 C.3     1  UNL1        0.0485
      4 C         -13.2586   -3.5199   18.9802 C.3     1  UNL1        0.1096
      5 O         -12.3357   -2.9974   20.0408 O.3     1  UNL1       -0.3826
      6 C         -13.7267   -4.0757   17.6679 C.3     1  UNL1        0.0485
      7 C         -15.1841   -4.3541   17.4484 C.3     1  UNL1        0.0749
      8 H         -12.8485   -2.7691   20.8319 H       1  UNL1        0.2107
      9 C         -11.9486   -3.6159   18.2559 C.ar    1  UNL1        0.0019
     10 C         -11.6972   -2.7675   17.0447 C.ar    1  UNL1        0.0003
     11 C         -10.3871   -2.8636   16.3205 C.ar    1  UNL1        0.0294
     12 C          -9.3284   -3.8080   16.8075 C.ar    1  UNL1        0.1401
     13 F          -8.0183   -3.9041   16.0833 F       1  UNL1       -0.2042
     14 C          -9.5798   -4.6564   18.0187 C.ar    1  UNL1        0.0294
     15 C         -10.8899   -4.5603   18.7429 C.ar    1  UNL1        0.0003
     16 C         -17.6311   -4.3550   18.3215 C.3     1  UNL1        0.0888
     17 C         -18.3407   -3.7531   17.1450 C.3     1  UNL1        0.0203
     18 C         -18.3790   -5.2352   19.2785 C.3     1  UNL1        0.1472
     19 O         -19.4596   -4.6558   20.1426 O.3     1  UNL1       -0.3787
     20 H         -19.8387   -5.3546   20.6984 H       1  UNL1        0.2108
     21 C         -15.0301   -9.1421   18.5566 C.3     1  UNL1        0.0342
     22 C         -16.3718   -8.6484   19.0105 C.ar    1  UNL1        0.0116
     23 C         -16.7046   -7.1887   18.9176 C.ar    1  UNL1       -0.0032
     24 C         -18.0463   -6.6950   19.3714 C.ar    1  UNL1        0.0054
     25 C         -19.0553   -7.6609   19.9182 C.ar    1  UNL1        0.0012
     26 C         -18.7225   -9.1205   20.0111 C.ar    1  UNL1        0.0360
     27 C         -17.3808   -9.6142   19.5572 C.ar    1  UNL1        0.1296
     28 O         -17.0481  -11.0740   19.6501 O.3     1  UNL1       -0.5058
     29 H         -17.6784  -11.6773   19.9917 H       1  UNL1        0.2922
@<TRIPOS>BOND
     1    21    22    1
     2    22    23   ar
     3    23    24   ar
     4    24    18    1
     5    18    19    1
     6    18    16    1
     7    16    17    1
     8    16     1    1
     9     1     2    1
    10     2     3    1
    11     3     4    1
    12     4     5    1
    13     4     9    1
    14     9    10   ar
    15    10    11   ar
    16    11    12   ar
    17    12    13    1
    18    12    14   ar
    19    14    15   ar
    20     4     6    1
    21     6     7    1
    22    24    25   ar
    23    25    26   ar
    24    26    27   ar
    25    27    28    1
    26    27    22   ar
    27     7     1    1
    28    15     9   ar
    29    19    20    1
    30     5     8    1
    31    28    29    1
