@<TRIPOS>MOLECULE
*****
 31 34 0 0 0
SMALL
GASTEIGER

@<TRIPOS>ATOM
      1 C           6.8543   -3.2928   27.0644 C.ar    1  UNL1        0.0533
      2 C           6.1352   -2.0327   27.4450 C.ar    1  UNL1        0.0148
      3 C           5.4153   -1.2346   26.3987 C.ar    1  UNL1        0.0029
      4 C           5.4145   -1.6967   24.9716 C.ar    1  UNL1        0.0208
      5 C           6.1337   -2.9569   24.5910 C.ar    1  UNL1        0.1052
      6 C           6.8536   -3.7549   25.6374 C.ar    1  UNL1        0.0536
      7 C           7.4705   -4.9471   24.9681 C.ar    1  UNL1        0.1247
      8 N           7.1319   -4.8859   23.5081 N.ar    1  UNL1       -0.1467
      9 N           6.3057   -3.6559   23.2750 N.ar    1  UNL1       -0.1274
     10 C           6.9435   -5.3292   28.6753 C.2     1  UNL1        0.2275
     11 O           5.5928   -5.7694   28.1936 O.2     1  UNL1       -0.2747
     12 N           7.5743   -4.0909   28.1107 N.am    1  UNL1       -0.2838
     13 H           8.4607   -3.8020   28.4269 H       1  UNL1        0.1549
     14 C           7.6634   -6.1273   29.7217 C.3     1  UNL1        0.1022
     15 N           6.5920   -6.1031   32.0884 N.3     1  UNL1       -0.3207
     16 C           7.6725   -5.6601   31.1470 C.3     1  UNL1        0.0748
     17 H           6.7538   -5.6936   33.0085 H       1  UNL1        0.1189
     18 H           6.6017   -7.1204   32.1625 H       1  UNL1        0.1189
     19 S           5.7492   -3.2042   21.9573 S.O2    1  UNL1        0.1006
     20 O           4.7013   -4.2749   22.0328 O.2     1  UNL1       -0.1463
     21 O           6.7970   -2.1335   21.8818 O.2     1  UNL1       -0.1463
     22 C           5.1926   -2.7525   20.6397 C.ar    1  UNL1        0.1291
     23 C           5.7890   -3.2596   19.3602 C.ar    1  UNL1        0.0204
     24 C           5.2325   -2.8078   18.0425 C.ar    1  UNL1        0.0014
     25 C           4.0796   -1.8490   18.0043 C.ar    1  UNL1        0.0001
     26 C           3.4832   -1.3419   19.2839 C.ar    1  UNL1        0.0013
     27 C           2.3303   -0.3831   19.2457 C.ar    1  UNL1        0.0000
     28 C           1.7339    0.1240   20.5252 C.ar    1  UNL1        0.0000
     29 C           2.2904   -0.3277   21.8428 C.ar    1  UNL1        0.0000
     30 C           3.4433   -1.2865   21.8810 C.ar    1  UNL1        0.0013
     31 C           4.0397   -1.7936   20.6015 C.ar    1  UNL1        0.0191
@<TRIPOS>BOND
     1    15    16    1
     2    16    14    1
     3    14    10    1
     4    10    11    2
     5    10    12   am
     6    12     1    1
     7     1     2   ar
     8     2     3   ar
     9     3     4   ar
    10     4     5   ar
    11     5     6   ar
    12     6     7   ar
    13     7     8   ar
    14     8     9   ar
    15     9    19    1
    16    19    20    2
    17    19    21    2
    18    19    22    1
    19    22    23   ar
    20    23    24   ar
    21    24    25   ar
    22    25    26   ar
    23    26    27   ar
    24    27    28   ar
    25    28    29   ar
    26    29    30   ar
    27    30    31   ar
    28     6     1   ar
    29    31    22   ar
    30     9     5   ar
    31    31    26   ar
    32    15    17    1
    33    15    18    1
    34    12    13    1
@<TRIPOS>MOLECULE
*****
 31 34 0 0 0
SMALL
GASTEIGER

@<TRIPOS>ATOM
      1 C           8.4278   -5.0210   26.7002 C.ar    1  UNL1        0.0533
      2 C           8.8880   -6.2688   26.0065 C.ar    1  UNL1        0.0148
      3 C           8.4885   -6.5268   24.5838 C.ar    1  UNL1        0.0029
      4 C           7.6290   -5.5370   23.8549 C.ar    1  UNL1        0.0208
      5 C           7.1688   -4.2892   24.5485 C.ar    1  UNL1        0.1052
      6 C           7.5682   -4.0312   25.9712 C.ar    1  UNL1        0.0536
      7 C           6.9669   -2.7228   26.3914 C.ar    1  UNL1        0.1247
      8 N           6.1959   -2.1722   25.2285 N.ar    1  UNL1       -0.1467
      9 N           6.3207   -3.1403   24.0895 N.ar    1  UNL1       -0.1274
     10 C           7.8713   -5.0694   29.2375 C.2     1  UNL1        0.2275
     11 O           6.5161   -5.6339   28.9294 O.2     1  UNL1       -0.2747
     12 N           8.8271   -4.7629   28.1228 N.am    1  UNL1       -0.2838
     13 H           9.7166   -4.3923   28.3250 H       1  UNL1        0.1549
     14 C           8.2706   -4.8113   30.6601 C.3     1  UNL1        0.1022
     15 N           6.4954   -6.0195   32.1227 N.3     1  UNL1       -0.3207
     16 C           7.2263   -4.7680   31.7361 C.3     1  UNL1        0.0748
     17 H           5.8273   -5.8079   32.8638 H       1  UNL1        0.1189
     18 H           7.1637   -6.7144   32.4557 H       1  UNL1        0.1189
     19 S           5.7053   -2.9865   22.7302 S.O2    1  UNL1        0.1006
     20 O           4.6090   -3.9334   23.1193 O.2     1  UNL1       -0.1463
     21 O           6.8017   -2.0396   22.3411 O.2     1  UNL1       -0.1463
     22 C           5.0900   -2.8327   21.3709 C.ar    1  UNL1        0.1291
     23 C           5.6148   -3.6321   20.2153 C.ar    1  UNL1        0.0204
     24 C           4.9994   -3.4783   18.8560 C.ar    1  UNL1        0.0014
     25 C           3.8594   -2.5250   18.6522 C.ar    1  UNL1        0.0001
     26 C           3.3346   -1.7255   19.8079 C.ar    1  UNL1        0.0013
     27 C           2.1946   -0.7722   19.6042 C.ar    1  UNL1        0.0000
     28 C           1.6699    0.0273   20.7598 C.ar    1  UNL1        0.0000
     29 C           2.2852   -0.1266   22.1191 C.ar    1  UNL1        0.0000
     30 C           3.4252   -1.0798   22.3228 C.ar    1  UNL1        0.0013
     31 C           3.9500   -1.8793   21.1672 C.ar    1  UNL1        0.0191
@<TRIPOS>BOND
     1    15    16    1
     2    16    14    1
     3    14    10    1
     4    10    11    2
     5    10    12   am
     6    12     1    1
     7     1     2   ar
     8     2     3   ar
     9     3     4   ar
    10     4     5   ar
    11     5     6   ar
    12     6     7   ar
    13     7     8   ar
    14     8     9   ar
    15     9    19    1
    16    19    20    2
    17    19    21    2
    18    19    22    1
    19    22    23   ar
    20    23    24   ar
    21    24    25   ar
    22    25    26   ar
    23    26    27   ar
    24    27    28   ar
    25    28    29   ar
    26    29    30   ar
    27    30    31   ar
    28     6     1   ar
    29    31    22   ar
    30     9     5   ar
    31    31    26   ar
    32    15    17    1
    33    15    18    1
    34    12    13    1
@<TRIPOS>MOLECULE
*****
 31 34 0 0 0
SMALL
GASTEIGER

@<TRIPOS>ATOM
      1 C          -2.3172    4.0386   23.7978 C.ar    1  UNL1        0.0533
      2 C          -1.6535    3.5419   25.0479 C.ar    1  UNL1        0.0148
      3 C          -0.4871    2.6033   24.9556 C.ar    1  UNL1        0.0029
      4 C           0.0155    2.1613   23.6132 C.ar    1  UNL1        0.0208
      5 C          -0.6482    2.6580   22.3631 C.ar    1  UNL1        0.1052
      6 C          -1.8146    3.5967   22.4555 C.ar    1  UNL1        0.0536
      7 C          -2.2635    3.9168   21.0605 C.ar    1  UNL1        0.1247
      8 N          -1.3745    3.1760   20.1060 N.ar    1  UNL1       -0.1467
      9 N          -0.3762    2.3980   20.9111 N.ar    1  UNL1       -0.1274
     10 C          -4.8779    4.4633   23.6857 C.2     1  UNL1        0.2275
     11 O          -5.1058    3.0106   23.3891 O.2     1  UNL1       -0.2747
     12 N          -3.4836    4.9773   23.8901 N.am    1  UNL1       -0.2838
     13 H          -3.3341    5.9307   24.0847 H       1  UNL1        0.1549
     14 C          -6.0444    5.4018   23.7779 C.3     1  UNL1        0.1022
     15 N          -8.0722    3.8952   23.1713 N.3     1  UNL1       -0.3207
     16 C          -7.4104    4.8714   24.0982 C.3     1  UNL1        0.0748
     17 H          -8.9885    3.6426   23.5414 H       1  UNL1        0.1189
     18 H          -7.4953    3.0579   23.0910 H       1  UNL1        0.1189
     19 S           0.7043    1.5151   20.3608 S.O2    1  UNL1        0.1006
     20 O           1.6447    2.6834   20.3329 O.2     1  UNL1       -0.1463
     21 O          -0.2361    0.3468   20.3888 O.2     1  UNL1       -0.1463
     22 C           1.7849    0.6321   19.8105 C.ar    1  UNL1        0.1291
     23 C           2.0398    0.5909   18.3329 C.ar    1  UNL1        0.0204
     24 C           3.1203   -0.2921   17.7826 C.ar    1  UNL1        0.0014
     25 C           3.9460   -1.1337   18.7099 C.ar    1  UNL1        0.0001
     26 C           3.6911   -1.0925   20.1876 C.ar    1  UNL1        0.0013
     27 C           4.5167   -1.9341   21.1148 C.ar    1  UNL1        0.0000
     28 C           4.2618   -1.8929   22.5924 C.ar    1  UNL1        0.0000
     29 C           3.1813   -1.0099   23.1427 C.ar    1  UNL1        0.0000
     30 C           2.3556   -0.1683   22.2154 C.ar    1  UNL1        0.0013
     31 C           2.6105   -0.2095   20.7379 C.ar    1  UNL1        0.0191
@<TRIPOS>BOND
     1    15    16    1
     2    16    14    1
     3    14    10    1
     4    10    11    2
     5    10    12   am
     6    12     1    1
     7     1     2   ar
     8     2     3   ar
     9     3     4   ar
    10     4     5   ar
    11     5     6   ar
    12     6     7   ar
    13     7     8   ar
    14     8     9   ar
    15     9    19    1
    16    19    20    2
    17    19    21    2
    18    19    22    1
    19    22    23   ar
    20    23    24   ar
    21    24    25   ar
    22    25    26   ar
    23    26    27   ar
    24    27    28   ar
    25    28    29   ar
    26    29    30   ar
    27    30    31   ar
    28     6     1   ar
    29    31    22   ar
    30     9     5   ar
    31    31    26   ar
    32    15    17    1
    33    15    18    1
    34    12    13    1
@<TRIPOS>MOLECULE
*****
 31 34 0 0 0
SMALL
GASTEIGER

@<TRIPOS>ATOM
      1 C         -13.7079   -7.6140   18.6191 C.ar    1  UNL1        0.0533
      2 C         -12.3571   -7.3458   18.0246 C.ar    1  UNL1        0.0148
      3 C         -11.9002   -5.9337   17.8074 C.ar    1  UNL1        0.0029
      4 C         -12.7941   -4.7898   18.1847 C.ar    1  UNL1        0.0208
      5 C         -14.1449   -5.0580   18.7792 C.ar    1  UNL1        0.1052
      6 C         -14.6018   -6.4701   18.9964 C.ar    1  UNL1        0.0536
      7 C         -15.9755   -6.4256   19.5971 C.ar    1  UNL1        0.1247
      8 N         -16.3676   -4.9860   19.7512 N.ar    1  UNL1       -0.1467
      9 N         -15.2363   -4.1407   19.2457 N.ar    1  UNL1       -0.1274
     10 C         -15.2795   -9.5898   18.0058 C.2     1  UNL1        0.2275
     11 O         -15.9372   -8.7413   16.9581 O.2     1  UNL1       -0.2747
     12 N         -14.1648   -9.0262   18.8363 N.am    1  UNL1       -0.2838
     13 H         -13.7331   -9.5830   19.5239 H       1  UNL1        0.1549
     14 C         -15.7365  -11.0019   18.2229 C.3     1  UNL1        0.1022
     15 N         -18.3257  -10.8542   18.0671 N.3     1  UNL1       -0.3207
     16 C         -17.0906  -11.2701   18.8098 C.3     1  UNL1        0.0748
     17 H         -19.1509  -11.1125   18.6082 H       1  UNL1        0.1189
     18 H         -18.3522  -11.3234   17.1618 H       1  UNL1        0.1189
     19 S         -15.2022   -2.6415   19.2125 S.O2    1  UNL1        0.1006
     20 O         -14.3988   -2.6317   20.4791 O.2     1  UNL1       -0.1463
     21 O         -16.0057   -2.6513   17.9459 O.2     1  UNL1       -0.1463
     22 C         -15.1682   -1.1423   19.1793 C.ar    1  UNL1        0.1291
     23 C         -16.2327   -0.3522   19.8812 C.ar    1  UNL1        0.0204
     24 C         -16.1986    1.1471   19.8480 C.ar    1  UNL1        0.0014
     25 C         -15.1001    1.8562   19.1130 C.ar    1  UNL1        0.0001
     26 C         -14.0355    1.0662   18.4111 C.ar    1  UNL1        0.0013
     27 C         -12.9370    1.7753   17.6761 C.ar    1  UNL1        0.0000
     28 C         -11.8725    0.9853   16.9743 C.ar    1  UNL1        0.0000
     29 C         -11.9066   -0.5140   17.0075 C.ar    1  UNL1        0.0000
     30 C         -13.0051   -1.2232   17.7425 C.ar    1  UNL1        0.0013
     31 C         -14.0696   -0.4331   18.4443 C.ar    1  UNL1        0.0191
@<TRIPOS>BOND
     1    15    16    1
     2    16    14    1
     3    14    10    1
     4    10    11    2
     5    10    12   am
     6    12     1    1
     7     1     2   ar
     8     2     3   ar
     9     3     4   ar
    10     4     5   ar
    11     5     6   ar
    12     6     7   ar
    13     7     8   ar
    14     8     9   ar
    15     9    19    1
    16    19    20    2
    17    19    21    2
    18    19    22    1
    19    22    23   ar
    20    23    24   ar
    21    24    25   ar
    22    25    26   ar
    23    26    27   ar
    24    27    28   ar
    25    28    29   ar
    26    29    30   ar
    27    30    31   ar
    28     6     1   ar
    29    31    22   ar
    30     9     5   ar
    31    31    26   ar
    32    15    17    1
    33    15    18    1
    34    12    13    1
@<TRIPOS>MOLECULE
*****
 31 34 0 0 0
SMALL
GASTEIGER

@<TRIPOS>ATOM
      1 C           5.3747   -1.2355   31.3076 C.ar    1  UNL1        0.0533
      2 C           5.5724   -1.9909   32.5883 C.ar    1  UNL1        0.0148
      3 C           6.2039   -3.3513   32.5669 C.ar    1  UNL1        0.0029
      4 C           6.6376   -3.9564   31.2647 C.ar    1  UNL1        0.0208
      5 C           6.4399   -3.2010   29.9839 C.ar    1  UNL1        0.1052
      6 C           5.8085   -1.8406   30.0054 C.ar    1  UNL1        0.0536
      7 C           5.7429   -1.3376   28.5937 C.ar    1  UNL1        0.1247
      8 N           6.3339   -2.3873   27.6999 N.ar    1  UNL1       -0.1467
      9 N           6.7646   -3.5389   28.5590 N.ar    1  UNL1       -0.1274
     10 C           3.2541    0.2625   31.2128 C.2     1  UNL1        0.2275
     11 O           2.3964   -0.9605   31.0753 O.2     1  UNL1       -0.2747
     12 N           4.7433    0.1250   31.3290 N.am    1  UNL1       -0.2838
     13 H           5.3062    0.9276   31.4193 H       1  UNL1        0.1549
     14 C           2.6226    1.6229   31.2342 C.3     1  UNL1        0.1022
     15 N           0.1005    1.8696   31.8071 N.3     1  UNL1       -0.3207
     16 C           1.2005    1.7967   30.7899 C.3     1  UNL1        0.0748
     17 H          -0.7944    1.9878   31.3323 H       1  UNL1        0.1189
     18 H           0.2634    2.6625   32.4278 H       1  UNL1        0.1189
     19 S           7.4073   -4.8060   28.0778 S.O2    1  UNL1        0.1006
     20 O           8.7534   -4.1471   28.1407 O.2     1  UNL1       -0.1463
     21 O           6.0612   -5.4648   28.0150 O.2     1  UNL1       -0.1463
     22 C           8.0499   -6.0730   27.5966 C.ar    1  UNL1        0.1291
     23 C           8.4752   -7.1199   28.5831 C.ar    1  UNL1        0.0204
     24 C           9.1178   -8.3870   28.1019 C.ar    1  UNL1        0.0014
     25 C           9.3352   -8.6072   26.6342 C.ar    1  UNL1        0.0001
     26 C           8.9100   -7.5603   25.6476 C.ar    1  UNL1        0.0013
     27 C           9.1274   -7.7804   24.1799 C.ar    1  UNL1        0.0000
     28 C           8.7022   -6.7336   23.1934 C.ar    1  UNL1        0.0000
     29 C           8.0595   -5.4665   23.6746 C.ar    1  UNL1        0.0000
     30 C           7.8421   -5.2463   25.1423 C.ar    1  UNL1        0.0013
     31 C           8.2673   -6.2932   26.1288 C.ar    1  UNL1        0.0191
@<TRIPOS>BOND
     1    15    16    1
     2    16    14    1
     3    14    10    1
     4    10    11    2
     5    10    12   am
     6    12     1    1
     7     1     2   ar
     8     2     3   ar
     9     3     4   ar
    10     4     5   ar
    11     5     6   ar
    12     6     7   ar
    13     7     8   ar
    14     8     9   ar
    15     9    19    1
    16    19    20    2
    17    19    21    2
    18    19    22    1
    19    22    23   ar
    20    23    24   ar
    21    24    25   ar
    22    25    26   ar
    23    26    27   ar
    24    27    28   ar
    25    28    29   ar
    26    29    30   ar
    27    30    31   ar
    28     6     1   ar
    29    31    22   ar
    30     9     5   ar
    31    31    26   ar
    32    15    17    1
    33    15    18    1
    34    12    13    1
@<TRIPOS>MOLECULE
*****
 31 34 0 0 0
SMALL
GASTEIGER

@<TRIPOS>ATOM
      1 C         -12.6181   -4.7811   19.2396 C.ar    1  UNL1        0.0533
      2 C         -13.4170   -4.8517   20.5072 C.ar    1  UNL1        0.0148
      3 C         -14.2245   -3.6683   20.9516 C.ar    1  UNL1        0.0029
      4 C         -14.2331   -2.4144   20.1285 C.ar    1  UNL1        0.0208
      5 C         -13.4342   -2.3438   18.8610 C.ar    1  UNL1        0.1052
      6 C         -12.6266   -3.5272   18.4165 C.ar    1  UNL1        0.0536
      7 C         -11.9431   -3.1655   17.1312 C.ar    1  UNL1        0.1247
      8 N         -12.3282   -1.7587   16.7814 N.ar    1  UNL1       -0.1467
      9 N         -13.2498   -1.2508   17.8504 N.ar    1  UNL1       -0.1274
     10 C         -10.3153   -5.9390   18.9128 C.2     1  UNL1        0.2275
     11 O          -9.6278   -4.7301   19.4750 O.2     1  UNL1       -0.2747
     12 N         -11.8105   -5.9645   18.7951 N.am    1  UNL1       -0.2838
     13 H         -12.2618   -6.7579   18.4261 H       1  UNL1        0.1549
     14 C          -9.5077   -7.1222   18.4683 C.3     1  UNL1        0.1022
     15 N         -11.1953   -7.9678   16.6830 N.3     1  UNL1       -0.3207
     16 C         -10.1725   -8.2540   17.7423 C.3     1  UNL1        0.0748
     17 H         -11.5407   -8.8468   16.2976 H       1  UNL1        0.1189
     18 H         -10.7691   -7.4147   15.9395 H       1  UNL1        0.1189
     19 S         -13.8768    0.1110   17.9001 S.O2    1  UNL1        0.1006
     20 O         -15.0162   -0.3829   17.0589 O.2     1  UNL1       -0.1463
     21 O         -12.7373    0.6049   18.7414 O.2     1  UNL1       -0.1463
     22 C         -14.5038    1.4727   17.9499 C.ar    1  UNL1        0.1291
     23 C         -14.0538    2.5408   16.9977 C.ar    1  UNL1        0.0204
     24 C         -14.6808    3.9026   17.0474 C.ar    1  UNL1        0.0014
     25 C         -15.7578    4.1963   18.0493 C.ar    1  UNL1        0.0001
     26 C         -16.2078    3.1282   19.0016 C.ar    1  UNL1        0.0013
     27 C         -17.2847    3.4218   20.0035 C.ar    1  UNL1        0.0000
     28 C         -17.7347    2.3538   20.9557 C.ar    1  UNL1        0.0000
     29 C         -17.1077    0.9920   20.9059 C.ar    1  UNL1        0.0000
     30 C         -16.0307    0.6983   19.9040 C.ar    1  UNL1        0.0013
     31 C         -15.5808    1.7664   18.9518 C.ar    1  UNL1        0.0191
@<TRIPOS>BOND
     1    15    16    1
     2    16    14    1
     3    14    10    1
     4    10    11    2
     5    10    12   am
     6    12     1    1
     7     1     2   ar
     8     2     3   ar
     9     3     4   ar
    10     4     5   ar
    11     5     6   ar
    12     6     7   ar
    13     7     8   ar
    14     8     9   ar
    15     9    19    1
    16    19    20    2
    17    19    21    2
    18    19    22    1
    19    22    23   ar
    20    23    24   ar
    21    24    25   ar
    22    25    26   ar
    23    26    27   ar
    24    27    28   ar
    25    28    29   ar
    26    29    30   ar
    27    30    31   ar
    28     6     1   ar
    29    31    22   ar
    30     9     5   ar
    31    31    26   ar
    32    15    17    1
    33    15    18    1
    34    12    13    1
@<TRIPOS>MOLECULE
*****
 31 34 0 0 0
SMALL
GASTEIGER

@<TRIPOS>ATOM
      1 C          -1.6759    3.3517   25.1377 C.ar    1  UNL1        0.0533
      2 C          -1.0918    2.4264   26.1637 C.ar    1  UNL1        0.0148
      3 C          -0.0777    1.3990   25.7564 C.ar    1  UNL1        0.0029
      4 C           0.3522    1.2967   24.3230 C.ar    1  UNL1        0.0208
      5 C          -0.2319    2.2219   23.2969 C.ar    1  UNL1        0.1052
      6 C          -1.2460    3.2494   23.7043 C.ar    1  UNL1        0.0536
      7 C          -1.6440    4.0188   22.4797 C.ar    1  UNL1        0.1247
      8 N          -0.8759    3.4668   21.3155 N.ar    1  UNL1       -0.1467
      9 N          -0.0031    2.3563   21.8206 N.ar    1  UNL1       -0.1274
     10 C          -4.1272    4.2124   25.1493 C.2     1  UNL1        0.2275
     11 O          -4.5503    3.0181   24.3462 O.2     1  UNL1       -0.2747
     12 N          -2.6900    4.3792   25.5450 N.am    1  UNL1       -0.2838
     13 H          -2.4123    5.1630   26.0721 H       1  UNL1        0.1549
     14 C          -5.1414    5.2399   25.5565 C.3     1  UNL1        0.1022
     15 N          -4.2327    6.0224   27.8613 N.3     1  UNL1       -0.3207
     16 C          -5.3675    5.5357   27.0096 C.3     1  UNL1        0.0748
     17 H          -4.5629    6.1716   28.8147 H       1  UNL1        0.1189
     18 H          -3.8763    6.9004   27.4836 H       1  UNL1        0.1189
     19 S           0.9338    1.5259   20.9944 S.O2    1  UNL1        0.1006
     20 O          -0.1593    0.5259   20.7597 O.2     1  UNL1       -0.1463
     21 O           2.0270    2.5259   21.2290 O.2     1  UNL1       -0.1463
     22 C           1.8708    0.6956   20.1682 C.ar    1  UNL1        0.1291
     23 C           1.9423    0.8985   18.6837 C.ar    1  UNL1        0.0204
     24 C           2.8792    0.0681   17.8575 C.ar    1  UNL1        0.0014
     25 C           3.7446   -0.9652   18.5157 C.ar    1  UNL1        0.0001
     26 C           3.6732   -1.1681   20.0003 C.ar    1  UNL1        0.0013
     27 C           4.5386   -2.2014   20.6585 C.ar    1  UNL1        0.0000
     28 C           4.4671   -2.4043   22.1430 C.ar    1  UNL1        0.0000
     29 C           3.5301   -1.5739   22.9692 C.ar    1  UNL1        0.0000
     30 C           2.6647   -0.5407   22.3109 C.ar    1  UNL1        0.0013
     31 C           2.7362   -0.3378   20.8265 C.ar    1  UNL1        0.0191
@<TRIPOS>BOND
     1    15    16    1
     2    16    14    1
     3    14    10    1
     4    10    11    2
     5    10    12   am
     6    12     1    1
     7     1     2   ar
     8     2     3   ar
     9     3     4   ar
    10     4     5   ar
    11     5     6   ar
    12     6     7   ar
    13     7     8   ar
    14     8     9   ar
    15     9    19    1
    16    19    20    2
    17    19    21    2
    18    19    22    1
    19    22    23   ar
    20    23    24   ar
    21    24    25   ar
    22    25    26   ar
    23    26    27   ar
    24    27    28   ar
    25    28    29   ar
    26    29    30   ar
    27    30    31   ar
    28     6     1   ar
    29    31    22   ar
    30     9     5   ar
    31    31    26   ar
    32    15    17    1
    33    15    18    1
    34    12    13    1
@<TRIPOS>MOLECULE
*****
 31 34 0 0 0
SMALL
GASTEIGER

@<TRIPOS>ATOM
      1 C          -1.4456    3.9329   20.2682 C.ar    1  UNL1        0.0533
      2 C          -1.4587    4.2317   18.7983 C.ar    1  UNL1        0.0148
      3 C          -0.5526    3.4767   17.8714 C.ar    1  UNL1        0.0029
      4 C           0.3665    2.4229   18.4144 C.ar    1  UNL1        0.0208
      5 C           0.3795    2.1241   19.8842 C.ar    1  UNL1        0.1052
      6 C          -0.5265    2.8791   20.8111 C.ar    1  UNL1        0.0536
      7 C          -0.2946    2.3697   22.2028 C.ar    1  UNL1        0.1247
      8 N           0.7548    1.2999   22.1359 N.ar    1  UNL1       -0.1467
      9 N           1.1714    1.1481   20.7030 N.ar    1  UNL1       -0.1274
     10 C          -3.6424    4.0726   21.6481 C.2     1  UNL1        0.2275
     11 O          -4.0273    2.7024   21.1741 O.2     1  UNL1       -0.2747
     12 N          -2.3516    4.6878   21.1952 N.am    1  UNL1       -0.2838
     13 H          -2.0990    5.5871   21.5063 H       1  UNL1        0.1549
     14 C          -4.5485    4.8274   22.5751 C.3     1  UNL1        0.1022
     15 N          -5.7381    3.4974   24.4635 N.3     1  UNL1       -0.3207
     16 C          -5.7796    4.1680   23.1224 C.3     1  UNL1        0.0748
     17 H          -6.6554    3.1055   24.6762 H       1  UNL1        0.1189
     18 H          -5.4864    4.1808   25.1777 H       1  UNL1        0.1189
     19 S           2.1994    0.1888   20.1805 S.O2    1  UNL1        0.1006
     20 O           3.2655    1.2262   20.3734 O.2     1  UNL1       -0.1463
     21 O           1.1333   -0.8486   19.9877 O.2     1  UNL1       -0.1463
     22 C           3.2274   -0.7705   19.6581 C.ar    1  UNL1        0.1291
     23 C           3.5703   -0.7804   18.1979 C.ar    1  UNL1        0.0204
     24 C           4.5983   -1.7398   17.6754 C.ar    1  UNL1        0.0014
     25 C           5.2833   -2.6891   18.6132 C.ar    1  UNL1        0.0001
     26 C           4.9404   -2.6792   20.0735 C.ar    1  UNL1        0.0013
     27 C           5.6254   -3.6286   21.0112 C.ar    1  UNL1        0.0000
     28 C           5.2824   -3.6186   22.4714 C.ar    1  UNL1        0.0000
     29 C           4.2544   -2.6593   22.9938 C.ar    1  UNL1        0.0000
     30 C           3.5694   -1.7099   22.0561 C.ar    1  UNL1        0.0013
     31 C           3.9124   -1.7199   20.5959 C.ar    1  UNL1        0.0191
@<TRIPOS>BOND
     1    15    16    1
     2    16    14    1
     3    14    10    1
     4    10    11    2
     5    10    12   am
     6    12     1    1
     7     1     2   ar
     8     2     3   ar
     9     3     4   ar
    10     4     5   ar
    11     5     6   ar
    12     6     7   ar
    13     7     8   ar
    14     8     9   ar
    15     9    19    1
    16    19    20    2
    17    19    21    2
    18    19    22    1
    19    22    23   ar
    20    23    24   ar
    21    24    25   ar
    22    25    26   ar
    23    26    27   ar
    24    27    28   ar
    25    28    29   ar
    26    29    30   ar
    27    30    31   ar
    28     6     1   ar
    29    31    22   ar
    30     9     5   ar
    31    31    26   ar
    32    15    17    1
    33    15    18    1
    34    12    13    1
@<TRIPOS>MOLECULE
*****
 31 34 0 0 0
SMALL
GASTEIGER

@<TRIPOS>ATOM
      1 C           7.4754   -3.6739   29.4343 C.ar    1  UNL1        0.0533
      2 C           8.1726   -4.1355   30.6797 C.ar    1  UNL1        0.0148
      3 C           7.8100   -3.5386   32.0072 C.ar    1  UNL1        0.0029
      4 C           6.7502   -2.4803   32.0894 C.ar    1  UNL1        0.0208
      5 C           6.0530   -2.0187   30.8440 C.ar    1  UNL1        0.1052
      6 C           6.4156   -2.6156   29.5165 C.ar    1  UNL1        0.0536
      7 C           5.5629   -1.9654   28.4676 C.ar    1  UNL1        0.1247
      8 N           4.6734   -0.9668   29.1469 N.ar    1  UNL1       -0.1467
      9 N           4.9763   -0.9997   30.6156 N.ar    1  UNL1       -0.1274
     10 C           6.9332   -5.2816   27.4668 C.2     1  UNL1        0.2275
     11 O           5.6659   -5.6957   28.1544 O.2     1  UNL1       -0.2747
     12 N           7.8379   -4.2707   28.1067 N.am    1  UNL1       -0.2838
     13 H           8.6696   -3.9989   27.6554 H       1  UNL1        0.1549
     14 C           7.2956   -5.8784   26.1392 C.3     1  UNL1        0.1022
     15 N           6.5896   -8.3393   26.5817 N.3     1  UNL1       -0.3207
     16 C           7.5706   -7.3488   26.0279 C.3     1  UNL1        0.0748
     17 H           6.9339   -9.2857   26.4198 H       1  UNL1        0.1189
     18 H           5.6888   -8.2213   26.1180 H       1  UNL1        0.1189
     19 S           4.3180   -0.1610   31.6707 S.O2    1  UNL1        0.1006
     20 O           3.3380   -1.2649   31.9369 O.2     1  UNL1       -0.1463
     21 O           5.2980    0.9430   31.4044 O.2     1  UNL1       -0.1463
     22 C           3.6597    0.6778   32.7257 C.ar    1  UNL1        0.1291
     23 C           2.5324    1.5965   32.3583 C.ar    1  UNL1        0.0204
     24 C           1.8741    2.4353   33.4133 C.ar    1  UNL1        0.0014
     25 C           2.3432    2.3554   34.8358 C.ar    1  UNL1        0.0001
     26 C           3.4706    1.4367   35.2033 C.ar    1  UNL1        0.0013
     27 C           3.9397    1.3568   36.6258 C.ar    1  UNL1        0.0000
     28 C           5.0670    0.4381   36.9933 C.ar    1  UNL1        0.0000
     29 C           5.7253   -0.4007   35.9382 C.ar    1  UNL1        0.0000
     30 C           5.2562   -0.3208   34.5157 C.ar    1  UNL1        0.0013
     31 C           4.1289    0.5979   34.1483 C.ar    1  UNL1        0.0191
@<TRIPOS>BOND
     1    15    16    1
     2    16    14    1
     3    14    10    1
     4    10    11    2
     5    10    12   am
     6    12     1    1
     7     1     2   ar
     8     2     3   ar
     9     3     4   ar
    10     4     5   ar
    11     5     6   ar
    12     6     7   ar
    13     7     8   ar
    14     8     9   ar
    15     9    19    1
    16    19    20    2
    17    19    21    2
    18    19    22    1
    19    22    23   ar
    20    23    24   ar
    21    24    25   ar
    22    25    26   ar
    23    26    27   ar
    24    27    28   ar
    25    28    29   ar
    26    29    30   ar
    27    30    31   ar
    28     6     1   ar
    29    31    22   ar
    30     9     5   ar
    31    31    26   ar
    32    15    17    1
    33    15    18    1
    34    12    13    1
