@<TRIPOS>MOLECULE
*****
 12 13 0 0 0
SMALL
GASTEIGER

@<TRIPOS>ATOM
      1 C         -10.3545  -19.2799   24.8992 C.3     1  UNL1        0.4043
      2 N         -11.0207  -18.2533   24.0318 N.2     1  UNL1       -0.1572
      3 C         -12.4384  -18.2973   23.5440 C.2     1  UNL1        0.3960
      4 N         -12.6801  -17.0736   22.7106 N.2     1  UNL1       -0.1748
      5 C         -11.4116  -16.2735   22.6835 C.2     1  UNL1        0.1599
      6 C         -10.3860  -17.0026   23.5000 C.3     1  UNL1        0.3145
      7 C          -8.9738  -16.5588   23.7422 C.ar    1  UNL1        0.0730
      8 C          -8.6520  -15.6924   24.9236 C.ar    1  UNL1        0.0058
      9 C          -7.2398  -15.2487   25.1658 C.ar    1  UNL1        0.0206
     10 C          -6.1493  -15.6712   24.2264 C.ar    1  UNL1        0.0989
     11 N          -6.4711  -16.5376   23.0450 N.ar    1  UNL1       -0.2424
     12 C          -7.8833  -16.9813   22.8029 C.ar    1  UNL1        0.1015
@<TRIPOS>UNITY_ATOM_ATTR
2 1
charge 1
@<TRIPOS>BOND
     1     1     2    1
     2     2     3    2
     3     3     4    1
     4     4     5    2
     5     5     6    1
     6     6     7    1
     7     7     8   ar
     8     8     9   ar
     9     9    10   ar
    10    10    11   ar
    11    11    12   ar
    12     6     2    1
    13    12     7   ar
@<TRIPOS>MOLECULE
*****
 12 13 0 0 0
SMALL
GASTEIGER

@<TRIPOS>ATOM
      1 C         -11.8312  -16.3144   20.5171 C.3     1  UNL1        0.4043
      2 N         -11.8639  -17.2022   21.7257 N.2     1  UNL1       -0.1572
      3 C         -12.9349  -17.2229   22.7757 C.2     1  UNL1        0.3960
      4 N         -12.5643  -18.2586   23.7955 N.2     1  UNL1       -0.1748
      5 C         -11.2642  -18.8780   23.3757 C.2     1  UNL1        0.1599
      6 C         -10.8314  -18.2251   22.0965 C.3     1  UNL1        0.3145
      7 C          -9.5848  -18.5399   21.3238 C.ar    1  UNL1        0.0730
      8 C          -9.6553  -19.4242   20.1143 C.ar    1  UNL1        0.0058
      9 C          -8.4088  -19.7390   19.3416 C.ar    1  UNL1        0.0206
     10 C          -7.0917  -19.1694   19.7786 C.ar    1  UNL1        0.0989
     11 N          -7.0211  -18.2852   20.9881 N.ar    1  UNL1       -0.2424
     12 C          -8.2677  -17.9704   21.7607 C.ar    1  UNL1        0.1015
@<TRIPOS>UNITY_ATOM_ATTR
2 1
charge 1
@<TRIPOS>BOND
     1     1     2    1
     2     2     3    2
     3     3     4    1
     4     4     5    2
     5     5     6    1
     6     6     7    1
     7     7     8   ar
     8     8     9   ar
     9     9    10   ar
    10    10    11   ar
    11    11    12   ar
    12     6     2    1
    13    12     7   ar
@<TRIPOS>MOLECULE
*****
 12 13 0 0 0
SMALL
GASTEIGER

@<TRIPOS>ATOM
      1 C          -7.1121  -17.9893   22.3539 C.3     1  UNL1        0.4043
      2 N          -7.2264  -16.8252   23.2930 N.2     1  UNL1       -0.1572
      3 C          -6.1087  -15.9162   23.7104 C.2     1  UNL1        0.3960
      4 N          -6.6699  -14.8950   24.6550 N.2     1  UNL1       -0.1748
      5 C          -8.1344  -15.1730   24.8214 C.2     1  UNL1        0.1599
      6 C          -8.4784  -16.3659   23.9796 C.3     1  UNL1        0.3145
      7 C          -9.8361  -16.9900   23.8477 C.ar    1  UNL1        0.0730
      8 C         -10.8490  -16.3924   22.9167 C.ar    1  UNL1        0.0058
      9 C         -12.2065  -17.0165   22.7848 C.ar    1  UNL1        0.0206
     10 C         -12.5512  -18.2382   23.5839 C.ar    1  UNL1        0.0989
     11 N         -11.5384  -18.8358   24.5149 N.ar    1  UNL1       -0.2424
     12 C         -10.1808  -18.2117   24.6468 C.ar    1  UNL1        0.1015
@<TRIPOS>UNITY_ATOM_ATTR
2 1
charge 1
@<TRIPOS>BOND
     1     1     2    1
     2     2     3    2
     3     3     4    1
     4     4     5    2
     5     5     6    1
     6     6     7    1
     7     7     8   ar
     8     8     9   ar
     9     9    10   ar
    10    10    11   ar
    11    11    12   ar
    12     6     2    1
    13    12     7   ar
@<TRIPOS>MOLECULE
*****
 12 13 0 0 0
SMALL
GASTEIGER

@<TRIPOS>ATOM
      1 C         -11.2216  -18.5485   24.2657 C.3     1  UNL1        0.4043
      2 N         -11.4727  -18.0751   22.8647 N.2     1  UNL1       -0.1572
      3 C         -12.8040  -17.6941   22.2882 C.2     1  UNL1        0.3960
      4 N         -12.5908  -17.2832   20.8613 N.2     1  UNL1       -0.1748
      5 C         -11.1277  -17.4103   20.5562 C.2     1  UNL1        0.1599
      6 C         -10.4367  -17.8997   21.7943 C.3     1  UNL1        0.3145
      7 C          -8.9675  -18.1669   21.9369 C.ar    1  UNL1        0.0730
      8 C          -8.4141  -19.5180   21.5933 C.ar    1  UNL1        0.0058
      9 C          -6.9450  -19.7851   21.7360 C.ar    1  UNL1        0.0206
     10 C          -6.0294  -18.7011   22.2222 C.ar    1  UNL1        0.0989
     11 N          -6.5828  -17.3499   22.5658 N.ar    1  UNL1       -0.2424
     12 C          -8.0519  -17.0828   22.4231 C.ar    1  UNL1        0.1015
@<TRIPOS>UNITY_ATOM_ATTR
2 1
charge 1
@<TRIPOS>BOND
     1     1     2    1
     2     2     3    2
     3     3     4    1
     4     4     5    2
     5     5     6    1
     6     6     7    1
     7     7     8   ar
     8     8     9   ar
     9     9    10   ar
    10    10    11   ar
    11    11    12   ar
    12     6     2    1
    13    12     7   ar
@<TRIPOS>MOLECULE
*****
 12 13 0 0 0
SMALL
GASTEIGER

@<TRIPOS>ATOM
      1 C         -10.1192  -19.2824   25.0042 C.3     1  UNL1        0.4043
      2 N          -9.5655  -17.8986   25.1721 N.2     1  UNL1       -0.1572
      3 C          -8.8572  -17.3736   26.3857 C.2     1  UNL1        0.3960
      4 N          -8.4767  -15.9473   26.1196 N.2     1  UNL1       -0.1748
      5 C          -8.9498  -15.5907   24.7416 C.2     1  UNL1        0.1599
      6 C          -9.6227  -16.7967   24.1560 C.3     1  UNL1        0.3145
      7 C         -10.2438  -16.8852   22.7934 C.ar    1  UNL1        0.0730
      8 C         -11.6129  -16.3208   22.5552 C.ar    1  UNL1        0.0058
      9 C         -12.2339  -16.4093   21.1927 C.ar    1  UNL1        0.0206
     10 C         -11.4858  -17.0622   20.0684 C.ar    1  UNL1        0.0989
     11 N         -10.1167  -17.6267   20.3067 N.ar    1  UNL1       -0.2424
     12 C          -9.4956  -17.5381   21.6692 C.ar    1  UNL1        0.1015
@<TRIPOS>UNITY_ATOM_ATTR
2 1
charge 1
@<TRIPOS>BOND
     1     1     2    1
     2     2     3    2
     3     3     4    1
     4     4     5    2
     5     5     6    1
     6     6     7    1
     7     7     8   ar
     8     8     9   ar
     9     9    10   ar
    10    10    11   ar
    11    11    12   ar
    12     6     2    1
    13    12     7   ar
@<TRIPOS>MOLECULE
*****
 12 13 0 0 0
SMALL
GASTEIGER

@<TRIPOS>ATOM
      1 C          -9.8429  -18.7444   24.5066 C.3     1  UNL1        0.4043
      2 N          -9.5684  -17.7762   23.3943 N.2     1  UNL1       -0.1572
      3 C         -10.1125  -17.8590   21.9990 C.2     1  UNL1        0.3960
      4 N          -9.5819  -16.6891   21.2243 N.2     1  UNL1       -0.1748
      5 C          -8.7099  -15.8833   22.1410 C.2     1  UNL1        0.1599
      6 C          -8.7016  -16.5552   23.4822 C.3     1  UNL1        0.3145
      7 C          -7.9571  -16.0879   24.6977 C.ar    1  UNL1        0.0730
      8 C          -8.6758  -15.9376   26.0057 C.ar    1  UNL1        0.0058
      9 C          -7.9313  -15.4704   27.2211 C.ar    1  UNL1        0.0206
     10 C          -6.4681  -15.1535   27.1286 C.ar    1  UNL1        0.0989
     11 N          -5.7494  -15.3038   25.8207 N.ar    1  UNL1       -0.2424
     12 C          -6.4939  -15.7710   24.6052 C.ar    1  UNL1        0.1015
@<TRIPOS>UNITY_ATOM_ATTR
2 1
charge 1
@<TRIPOS>BOND
     1     1     2    1
     2     2     3    2
     3     3     4    1
     4     4     5    2
     5     5     6    1
     6     6     7    1
     7     7     8   ar
     8     8     9   ar
     9     9    10   ar
    10    10    11   ar
    11    11    12   ar
    12     6     2    1
    13    12     7   ar
@<TRIPOS>MOLECULE
*****
 12 13 0 0 0
SMALL
GASTEIGER

@<TRIPOS>ATOM
      1 C         -12.6435  -17.8677   23.4507 C.3     1  UNL1        0.4043
      2 N         -11.6424  -17.2743   22.5042 N.2     1  UNL1       -0.1572
      3 C         -11.8302  -17.0828   21.0284 C.2     1  UNL1        0.3960
      4 N         -10.5816  -16.4584   20.4794 N.2     1  UNL1       -0.1748
      5 C          -9.6222  -16.2641   21.6160 C.2     1  UNL1        0.1599
      6 C         -10.2778  -16.7684   22.8674 C.3     1  UNL1        0.3145
      7 C          -9.6747  -16.7669   24.2408 C.ar    1  UNL1        0.0730
      8 C          -9.0133  -15.5282   24.7682 C.ar    1  UNL1        0.0058
      9 C          -8.4102  -15.5268   26.1416 C.ar    1  UNL1        0.0206
     10 C          -8.4685  -16.7641   26.9876 C.ar    1  UNL1        0.0989
     11 N          -9.1299  -18.0028   26.4602 N.ar    1  UNL1       -0.2424
     12 C          -9.7330  -18.0042   25.0869 C.ar    1  UNL1        0.1015
@<TRIPOS>UNITY_ATOM_ATTR
2 1
charge 1
@<TRIPOS>BOND
     1     1     2    1
     2     2     3    2
     3     3     4    1
     4     4     5    2
     5     5     6    1
     6     6     7    1
     7     7     8   ar
     8     8     9   ar
     9     9    10   ar
    10    10    11   ar
    11    11    12   ar
    12     6     2    1
    13    12     7   ar
@<TRIPOS>MOLECULE
*****
 12 13 0 0 0
SMALL
GASTEIGER

@<TRIPOS>ATOM
      1 C          -7.4525  -17.9471   22.4008 C.3     1  UNL1        0.4043
      2 N          -8.0165  -18.6386   21.1951 N.2     1  UNL1       -0.1572
      3 C          -7.2298  -19.3818   20.1565 C.2     1  UNL1        0.3960
      4 N          -8.1933  -19.9109   19.1358 N.2     1  UNL1       -0.1748
      5 C          -9.5755  -19.4947   19.5437 C.2     1  UNL1        0.1599
      6 C          -9.4662  -18.7083   20.8164 C.3     1  UNL1        0.3145
      7 C         -10.6065  -18.0988   21.5769 C.ar    1  UNL1        0.0730
      8 C         -11.3080  -18.8914   22.6398 C.ar    1  UNL1        0.0058
      9 C         -12.4482  -18.2819   23.4002 C.ar    1  UNL1        0.0206
     10 C         -12.8870  -16.8797   23.0977 C.ar    1  UNL1        0.0989
     11 N         -12.1856  -16.0872   22.0348 N.ar    1  UNL1       -0.2424
     12 C         -11.0454  -16.6967   21.2744 C.ar    1  UNL1        0.1015
@<TRIPOS>UNITY_ATOM_ATTR
2 1
charge 1
@<TRIPOS>BOND
     1     1     2    1
     2     2     3    2
     3     3     4    1
     4     4     5    2
     5     5     6    1
     6     6     7    1
     7     7     8   ar
     8     8     9   ar
     9     9    10   ar
    10    10    11   ar
    11    11    12   ar
    12     6     2    1
    13    12     7   ar
@<TRIPOS>MOLECULE
*****
 12 13 0 0 0
SMALL
GASTEIGER

@<TRIPOS>ATOM
      1 C          -9.1802  -19.3291   21.2641 C.3     1  UNL1        0.4043
      2 N         -10.0841  -18.1791   20.9317 N.2     1  UNL1       -0.1572
      3 C         -11.1126  -18.1530   19.8401 C.2     1  UNL1        0.3960
      4 N         -11.7824  -16.8111   19.8663 N.2     1  UNL1       -0.1748
      5 C         -11.1679  -16.0079   20.9741 C.2     1  UNL1        0.1599
      6 C         -10.1183  -16.8534   21.6326 C.3     1  UNL1        0.3145
      7 C          -9.2545  -16.4448   22.7889 C.ar    1  UNL1        0.0730
      8 C          -7.9960  -15.6656   22.5464 C.ar    1  UNL1        0.0058
      9 C          -7.1323  -15.2570   23.7028 C.ar    1  UNL1        0.0206
     10 C          -7.5271  -15.6278   25.1016 C.ar    1  UNL1        0.0989
     11 N          -8.7856  -16.4071   25.3441 N.ar    1  UNL1       -0.2424
     12 C          -9.6493  -16.8156   24.1877 C.ar    1  UNL1        0.1015
@<TRIPOS>UNITY_ATOM_ATTR
2 1
charge 1
@<TRIPOS>BOND
     1     1     2    1
     2     2     3    2
     3     3     4    1
     4     4     5    2
     5     5     6    1
     6     6     7    1
     7     7     8   ar
     8     8     9   ar
     9     9    10   ar
    10    10    11   ar
    11    11    12   ar
    12     6     2    1
    13    12     7   ar
