@<TRIPOS>MOLECULE
*****
 27 26 0 0 0
SMALL
GASTEIGER

@<TRIPOS>ATOM
      1 C         -11.0821  -17.4773   19.9698 C.2     1  UNL1       -0.0307
      2 C         -12.1013  -16.8954   20.9041 C.2     1  UNL1       -0.0307
      3 C         -10.8635  -18.9606   19.9281 C.3     1  UNL1        0.0258
      4 C          -9.5210  -19.5104   19.5466 C.3     1  UNL1        0.0064
      5 C          -8.3044  -19.1369   20.3407 C.3     1  UNL1        0.0216
      6 C          -6.9445  -19.5668   19.8761 C.3     1  UNL1        0.0898
      7 C          -4.3804  -19.2374   20.1350 C.2     1  UNL1        0.2995
      8 O          -4.1768  -20.7175   20.0019 O.2     1  UNL1       -0.2652
      9 N          -5.7643  -18.6620   20.0721 N.am    1  UNL1       -0.2971
     10 H          -5.8979  -17.6905   20.1594 H       1  UNL1        0.1499
     11 C          -2.0230  -16.4216   21.6396 C.3     1  UNL1        0.1111
     12 N          -3.2031  -17.3264   21.4436 N.am    1  UNL1       -0.2954
     13 C          -3.2002  -18.3325   20.3311 C.2     1  UNL1        0.2996
     14 O          -2.0171  -18.4338   19.4146 O.2     1  UNL1       -0.2652
     15 H          -3.9797  -17.2599   22.0451 H       1  UNL1        0.1499
     16 C         -12.9017  -17.7969   21.7965 C.3     1  UNL1        0.0257
     17 C         -12.9371  -17.5492   23.2755 C.3     1  UNL1        0.0047
     18 C         -12.2937  -18.5256   24.2151 C.3     1  UNL1        0.0003
     19 C         -11.0805  -19.2945   23.7825 C.3     1  UNL1        0.0000
     20 C          -9.7832  -18.5790   23.5484 C.3     1  UNL1        0.0000
     21 C          -9.2872  -17.5783   24.5496 C.3     1  UNL1        0.0000
     22 C          -9.4077  -16.1103   24.2657 C.3     1  UNL1        0.0004
     23 C          -8.2810  -15.1838   24.6154 C.3     1  UNL1        0.0059
     24 C          -6.9034  -15.7313   24.8445 C.3     1  UNL1        0.0417
     25 C          -5.9786  -15.9454   23.6831 C.2     1  UNL1        0.0503
     26 O          -4.9490  -14.9088   23.3433 O.co2   1  UNL1       -0.5492
     27 O          -6.0834  -17.1959   22.8615 O.co2   1  UNL1       -0.5492
@<TRIPOS>UNITY_ATOM_ATTR
26 1
charge -1
@<TRIPOS>BOND
     1    11    12    1
     2    12    13   am
     3    13    14    2
     4    13     7    1
     5     7     8    2
     6     7     9   am
     7     9     6    1
     8     6     5    1
     9     5     4    1
    10     4     3    1
    11     3     1    1
    12     1     2    2
    13     2    16    1
    14    16    17    1
    15    17    18    1
    16    18    19    1
    17    19    20    1
    18    20    21    1
    19    21    22    1
    20    22    23    1
    21    23    24    1
    22    24    25    1
    23    25    26   ar
    24    25    27   ar
    25    12    15    1
    26     9    10    1
@<TRIPOS>MOLECULE
*****
 27 26 0 0 0
SMALL
GASTEIGER

@<TRIPOS>ATOM
      1 C          -6.9208  -15.1300   27.3612 C.2     1  UNL1       -0.0307
      2 C          -8.3247  -15.6520   27.2811 C.2     1  UNL1       -0.0307
      3 C          -5.8373  -15.7629   26.5393 C.3     1  UNL1        0.0258
      4 C          -5.1387  -14.9659   25.4778 C.3     1  UNL1        0.0064
      5 C          -5.2064  -15.4039   24.0447 C.3     1  UNL1        0.0216
      6 C          -4.8787  -16.8207   23.6771 C.3     1  UNL1        0.0898
      7 C          -3.4069  -18.5261   22.3828 C.2     1  UNL1        0.2995
      8 O          -4.2640  -19.6489   22.8874 O.2     1  UNL1       -0.2652
      9 N          -3.7142  -17.1120   22.7776 N.am    1  UNL1       -0.2971
     10 H          -3.1517  -16.3751   22.4464 H       1  UNL1        0.1499
     11 C          -0.4558  -18.0047   19.7809 C.3     1  UNL1        0.1111
     12 N          -1.6203  -17.7135   20.6804 N.am    1  UNL1       -0.2954
     13 C          -2.2423  -18.8174   21.4832 C.2     1  UNL1        0.2996
     14 O          -1.6999  -20.2125   21.3865 O.2     1  UNL1       -0.2652
     15 H          -1.9763  -16.7978   20.7439 H       1  UNL1        0.1499
     16 C          -8.6453  -16.8068   26.3792 C.3     1  UNL1        0.0257
     17 C          -9.1341  -16.5553   24.9836 C.3     1  UNL1        0.0047
     18 C          -8.4844  -17.2514   23.8244 C.3     1  UNL1        0.0003
     19 C          -9.2201  -18.3336   23.0913 C.3     1  UNL1        0.0000
     20 C         -10.5330  -18.8354   23.6152 C.3     1  UNL1        0.0000
     21 C         -11.7779  -18.6785   22.7932 C.3     1  UNL1        0.0000
     22 C         -12.7198  -17.5437   23.0676 C.3     1  UNL1        0.0004
     23 C         -12.4477  -16.1867   22.4893 C.3     1  UNL1        0.0059
     24 C         -11.3046  -15.9923   21.5378 C.3     1  UNL1        0.0417
     25 C         -11.4319  -16.4387   20.1114 C.2     1  UNL1        0.0503
     26 O         -12.3436  -15.7038   19.1740 O.co2   1  UNL1       -0.5492
     27 O         -10.6476  -17.6201   19.6225 O.co2   1  UNL1       -0.5492
@<TRIPOS>UNITY_ATOM_ATTR
26 1
charge -1
@<TRIPOS>BOND
     1    11    12    1
     2    12    13   am
     3    13    14    2
     4    13     7    1
     5     7     8    2
     6     7     9   am
     7     9     6    1
     8     6     5    1
     9     5     4    1
    10     4     3    1
    11     3     1    1
    12     1     2    2
    13     2    16    1
    14    16    17    1
    15    17    18    1
    16    18    19    1
    17    19    20    1
    18    20    21    1
    19    21    22    1
    20    22    23    1
    21    23    24    1
    22    24    25    1
    23    25    26   ar
    24    25    27   ar
    25    12    15    1
    26     9    10    1
@<TRIPOS>MOLECULE
*****
 27 26 0 0 0
SMALL
GASTEIGER

@<TRIPOS>ATOM
      1 C          -7.1296  -15.8309   27.4205 C.2     1  UNL1       -0.0307
      2 C          -8.4361  -16.2810   26.8370 C.2     1  UNL1       -0.0307
      3 C          -6.2397  -14.9069   26.6432 C.3     1  UNL1        0.0258
      4 C          -5.1041  -15.4622   25.8358 C.3     1  UNL1        0.0064
      5 C          -5.1911  -15.4890   24.3385 C.3     1  UNL1        0.0216
      6 C          -5.0520  -16.7885   23.6023 C.3     1  UNL1        0.0898
      7 C          -3.4556  -18.4432   22.3927 C.2     1  UNL1        0.2995
      8 O          -4.2665  -19.5978   22.9018 O.2     1  UNL1       -0.2652
      9 N          -3.8483  -17.0385   22.7429 N.am    1  UNL1       -0.2971
     10 H          -3.3161  -16.2807   22.4088 H       1  UNL1        0.1499
     11 C          -0.2617  -17.7874   20.1302 C.3     1  UNL1        0.1111
     12 N          -1.4654  -17.5374   20.9896 N.am    1  UNL1       -0.2954
     13 C          -2.2518  -18.6932   21.5333 C.2     1  UNL1        0.2996
     14 O          -1.8345  -20.0990   21.2177 O.2     1  UNL1       -0.2652
     15 H          -1.7392  -16.6147   21.1967 H       1  UNL1        0.1499
     16 C          -8.8527  -15.8072   25.4762 C.3     1  UNL1        0.0257
     17 C          -8.8441  -16.7577   24.3159 C.3     1  UNL1        0.0047
     18 C          -8.7594  -16.2297   22.9144 C.3     1  UNL1        0.0003
     19 C          -9.9118  -16.4148   21.9722 C.3     1  UNL1        0.0000
     20 C         -10.9540  -17.4552   22.2574 C.3     1  UNL1        0.0000
     21 C         -11.4823  -18.3122   21.1454 C.3     1  UNL1        0.0000
     22 C         -10.7495  -18.3806   19.8384 C.3     1  UNL1        0.0004
     23 C          -9.9946  -19.6222   19.4659 C.3     1  UNL1        0.0059
     24 C          -8.4951  -19.6272   19.5010 C.3     1  UNL1        0.0417
     25 C          -7.7721  -19.1593   20.7291 C.2     1  UNL1        0.0503
     26 O          -6.6817  -18.1358   20.6133 O.co2   1  UNL1       -0.5492
     27 O          -8.1394  -19.7148   22.0731 O.co2   1  UNL1       -0.5492
@<TRIPOS>UNITY_ATOM_ATTR
26 1
charge -1
@<TRIPOS>BOND
     1    11    12    1
     2    12    13   am
     3    13    14    2
     4    13     7    1
     5     7     8    2
     6     7     9   am
     7     9     6    1
     8     6     5    1
     9     5     4    1
    10     4     3    1
    11     3     1    1
    12     1     2    2
    13     2    16    1
    14    16    17    1
    15    17    18    1
    16    18    19    1
    17    19    20    1
    18    20    21    1
    19    21    22    1
    20    22    23    1
    21    23    24    1
    22    24    25    1
    23    25    26   ar
    24    25    27   ar
    25    12    15    1
    26     9    10    1
@<TRIPOS>MOLECULE
*****
 27 26 0 0 0
SMALL
GASTEIGER

@<TRIPOS>ATOM
      1 C         -11.4519  -18.9090   23.5912 C.2     1  UNL1       -0.0307
      2 C         -10.6863  -19.7436   22.6077 C.2     1  UNL1       -0.0307
      3 C         -12.6566  -18.1365   23.1418 C.3     1  UNL1        0.0258
      4 C         -12.5254  -16.6873   22.7779 C.3     1  UNL1        0.0064
      5 C         -12.0311  -16.2977   21.4163 C.3     1  UNL1        0.0216
      6 C         -10.5757  -16.0042   21.2024 C.3     1  UNL1        0.0898
      7 C          -8.2713  -15.4095   22.2444 C.2     1  UNL1        0.2995
      8 O          -7.8709  -14.7275   20.9698 O.2     1  UNL1       -0.2652
      9 N          -9.6237  -16.0478   22.3607 N.am    1  UNL1       -0.2971
     10 H          -9.8864  -16.4955   23.1972 H       1  UNL1        0.1499
     11 C          -6.8949  -15.5208   25.9650 C.3     1  UNL1        0.1111
     12 N          -7.8468  -15.4771   24.8067 N.am    1  UNL1       -0.2954
     13 C          -7.3192  -15.4531   23.4028 C.2     1  UNL1        0.2996
     14 O          -5.8396  -15.4728   23.1572 O.2     1  UNL1       -0.2652
     15 H          -8.8180  -15.4642   24.9679 H       1  UNL1        0.1499
     16 C         -11.1254  -19.8057   21.1747 C.3     1  UNL1        0.0257
     17 C         -10.1214  -19.6299   20.0743 C.3     1  UNL1        0.0047
     18 C          -8.7473  -19.1163   20.3878 C.3     1  UNL1        0.0003
     19 C          -7.5549  -19.6795   19.6730 C.3     1  UNL1        0.0000
     20 C          -6.5758  -20.5424   20.4124 C.3     1  UNL1        0.0000
     21 C          -6.1160  -20.1484   21.7847 C.3     1  UNL1        0.0000
     22 C          -5.0223  -19.1347   21.9471 C.3     1  UNL1        0.0004
     23 C          -3.6220  -19.4680   21.5252 C.3     1  UNL1        0.0059
     24 C          -3.1855  -19.2201   20.1117 C.3     1  UNL1        0.0417
     25 C          -2.2950  -18.0552   19.7951 C.2     1  UNL1        0.0503
     26 O          -1.1610  -18.2194   18.8272 O.co2   1  UNL1       -0.5492
     27 O          -2.5387  -16.7262   20.4464 O.co2   1  UNL1       -0.5492
@<TRIPOS>UNITY_ATOM_ATTR
26 1
charge -1
@<TRIPOS>BOND
     1    11    12    1
     2    12    13   am
     3    13    14    2
     4    13     7    1
     5     7     8    2
     6     7     9   am
     7     9     6    1
     8     6     5    1
     9     5     4    1
    10     4     3    1
    11     3     1    1
    12     1     2    2
    13     2    16    1
    14    16    17    1
    15    17    18    1
    16    18    19    1
    17    19    20    1
    18    20    21    1
    19    21    22    1
    20    22    23    1
    21    23    24    1
    22    24    25    1
    23    25    26   ar
    24    25    27   ar
    25    12    15    1
    26     9    10    1
@<TRIPOS>MOLECULE
*****
 27 26 0 0 0
SMALL
GASTEIGER

@<TRIPOS>ATOM
      1 C         -10.7378  -19.8653   20.6817 C.2     1  UNL1       -0.0307
      2 C         -11.3147  -20.2512   22.0115 C.2     1  UNL1       -0.0307
      3 C          -9.6479  -18.8375   20.6068 C.3     1  UNL1        0.0258
      4 C          -8.2105  -19.2658   20.6256 C.3     1  UNL1        0.0064
      5 C          -7.5671  -19.6767   21.9168 C.3     1  UNL1        0.0216
      6 C          -6.1727  -20.2296   21.9173 C.3     1  UNL1        0.0898
      7 C          -3.8349  -19.5278   21.0273 C.2     1  UNL1        0.2995
      8 O          -3.8489  -20.6875   20.0761 O.2     1  UNL1       -0.2652
      9 N          -4.9968  -19.2989   21.9479 N.am    1  UNL1       -0.2971
     10 H          -4.9876  -18.5377   22.5722 H       1  UNL1        0.1499
     11 C          -1.6803  -16.2200   21.4344 C.3     1  UNL1        0.1111
     12 N          -2.8561  -17.1508   21.4037 N.am    1  UNL1       -0.2954
     13 C          -2.6590  -18.5970   21.0579 C.2     1  UNL1        0.2996
     14 O          -1.2861  -19.1124   20.7426 O.2     1  UNL1       -0.2652
     15 H          -3.7572  -16.8125   21.6107 H       1  UNL1        0.1499
     16 C         -10.8017  -19.6093   23.2664 C.3     1  UNL1        0.0257
     17 C         -11.7607  -18.9804   24.2332 C.3     1  UNL1        0.0047
     18 C         -12.8949  -18.1402   23.7253 C.3     1  UNL1        0.0003
     19 C         -12.7369  -17.3544   22.4575 C.3     1  UNL1        0.0000
     20 C         -12.1214  -15.9870   22.4943 C.3     1  UNL1        0.0000
     21 C         -10.6535  -15.8181   22.2360 C.3     1  UNL1        0.0000
     22 C          -9.6534  -16.3259   23.2321 C.3     1  UNL1        0.0004
     23 C          -8.1858  -16.2299   22.9369 C.3     1  UNL1        0.0059
     24 C          -7.3359  -15.2379   23.6740 C.3     1  UNL1        0.0417
     25 C          -5.9112  -15.5706   24.0052 C.2     1  UNL1        0.0503
     26 O          -5.1719  -14.7644   25.0315 O.co2   1  UNL1       -0.5492
     27 O          -5.2259  -16.7095   23.3101 O.co2   1  UNL1       -0.5492
@<TRIPOS>UNITY_ATOM_ATTR
26 1
charge -1
@<TRIPOS>BOND
     1    11    12    1
     2    12    13   am
     3    13    14    2
     4    13     7    1
     5     7     8    2
     6     7     9   am
     7     9     6    1
     8     6     5    1
     9     5     4    1
    10     4     3    1
    11     3     1    1
    12     1     2    2
    13     2    16    1
    14    16    17    1
    15    17    18    1
    16    18    19    1
    17    19    20    1
    18    20    21    1
    19    21    22    1
    20    22    23    1
    21    23    24    1
    22    24    25    1
    23    25    26   ar
    24    25    27   ar
    25    12    15    1
    26     9    10    1
@<TRIPOS>MOLECULE
*****
 27 26 0 0 0
SMALL
GASTEIGER

@<TRIPOS>ATOM
      1 C          -6.7777  -15.5464   26.1699 C.2     1  UNL1       -0.0307
      2 C          -8.2630  -15.7541   26.1454 C.2     1  UNL1       -0.0307
      3 C          -6.0035  -15.5153   24.8855 C.3     1  UNL1        0.0258
      4 C          -4.7288  -16.2959   24.7590 C.3     1  UNL1        0.0064
      5 C          -4.2399  -16.7193   23.4056 C.3     1  UNL1        0.0216
      6 C          -4.0500  -18.1752   23.0985 C.3     1  UNL1        0.0898
      7 C          -5.1991  -19.0522   20.9397 C.2     1  UNL1        0.2995
      8 O          -4.1502  -18.3768   20.1070 O.2     1  UNL1       -0.2652
      9 N          -5.1490  -18.9514   22.4355 N.am    1  UNL1       -0.2971
     10 H          -5.8375  -19.3948   22.9821 H       1  UNL1        0.1499
     11 C          -8.6018  -19.8899   19.0770 C.3     1  UNL1        0.1111
     12 N          -7.5028  -19.1137   19.7400 N.am    1  UNL1       -0.2954
     13 C          -6.2982  -19.8285   20.2767 C.2     1  UNL1        0.2996
     14 O          -6.1926  -21.3194   20.1504 O.2     1  UNL1       -0.2652
     15 H          -7.5720  -18.1352   19.8229 H       1  UNL1        0.1499
     16 C          -8.9742  -15.9307   24.8366 C.3     1  UNL1        0.0257
     17 C          -9.2048  -17.3077   24.2882 C.3     1  UNL1        0.0047
     18 C          -9.8967  -18.3423   25.1254 C.3     1  UNL1        0.0003
     19 C          -9.9934  -19.7581   24.6395 C.3     1  UNL1        0.0000
     20 C          -9.8037  -20.0661   23.1839 C.3     1  UNL1        0.0000
     21 C         -10.9861  -20.0855   22.2610 C.3     1  UNL1        0.0000
     22 C         -11.3003  -18.8842   21.4194 C.3     1  UNL1        0.0004
     23 C         -12.1789  -17.7967   21.9629 C.3     1  UNL1        0.0059
     24 C         -11.7238  -16.3684   21.9106 C.3     1  UNL1        0.0417
     25 C         -10.7356  -15.9338   20.8691 C.2     1  UNL1        0.0503
     26 O          -9.3165  -15.6418   21.2572 O.co2   1  UNL1       -0.5492
     27 O         -11.1667  -15.7911   19.4395 O.co2   1  UNL1       -0.5492
@<TRIPOS>UNITY_ATOM_ATTR
26 1
charge -1
@<TRIPOS>BOND
     1    11    12    1
     2    12    13   am
     3    13    14    2
     4    13     7    1
     5     7     8    2
     6     7     9   am
     7     9     6    1
     8     6     5    1
     9     5     4    1
    10     4     3    1
    11     3     1    1
    12     1     2    2
    13     2    16    1
    14    16    17    1
    15    17    18    1
    16    18    19    1
    17    19    20    1
    18    20    21    1
    19    21    22    1
    20    22    23    1
    21    23    24    1
    22    24    25    1
    23    25    26   ar
    24    25    27   ar
    25    12    15    1
    26     9    10    1
@<TRIPOS>MOLECULE
*****
 27 26 0 0 0
SMALL
GASTEIGER

@<TRIPOS>ATOM
      1 C          -9.8554  -18.7743   21.1900 C.2     1  UNL1       -0.0307
      2 C         -10.5462  -19.5722   22.2559 C.2     1  UNL1       -0.0307
      3 C          -8.3672  -18.5925   21.2352 C.3     1  UNL1        0.0258
      4 C          -7.4750  -19.5151   20.4587 C.3     1  UNL1        0.0064
      5 C          -6.4336  -20.3267   21.1708 C.3     1  UNL1        0.0216
      6 C          -5.1895  -20.7507   20.4480 C.3     1  UNL1        0.0898
      7 C          -3.6563  -18.7009   20.0035 C.2     1  UNL1        0.2995
      8 O          -4.6995  -18.1171   19.0973 O.2     1  UNL1       -0.2652
      9 N          -3.9014  -20.0176   20.6788 N.am    1  UNL1       -0.2971
     10 H          -3.2167  -20.4007   21.2736 H       1  UNL1        0.1499
     11 C           0.2111  -17.8114   19.9645 C.3     1  UNL1        0.1111
     12 N          -1.0770  -18.5443   19.7337 N.am    1  UNL1       -0.2954
     13 C          -2.3681  -17.9678   20.2343 C.2     1  UNL1        0.2996
     14 O          -2.3711  -16.6583   20.9658 O.2     1  UNL1       -0.2652
     15 H          -1.0751  -19.4038   19.2536 H       1  UNL1        0.1499
     16 C          -9.7488  -20.1883   23.3670 C.3     1  UNL1        0.0257
     17 C          -9.9575  -19.7340   24.7813 C.3     1  UNL1        0.0047
     18 C         -10.0970  -18.2720   25.0865 C.3     1  UNL1        0.0003
     19 C          -9.0305  -17.3103   24.6531 C.3     1  UNL1        0.0000
     20 C          -8.7390  -16.0920   25.4781 C.3     1  UNL1        0.0000
     21 C          -8.1665  -16.2391   26.8567 C.3     1  UNL1        0.0000
     22 C          -6.8376  -15.6264   27.1863 C.3     1  UNL1        0.0004
     23 C          -5.9605  -15.1020   26.0883 C.3     1  UNL1        0.0059
     24 C          -5.1124  -16.0470   25.2898 C.3     1  UNL1        0.0417
     25 C          -5.1638  -16.0172   23.7910 C.2     1  UNL1        0.0503
     26 O          -4.8121  -14.7594   23.0533 O.co2   1  UNL1       -0.5492
     27 O          -5.5670  -17.2452   23.0298 O.co2   1  UNL1       -0.5492
@<TRIPOS>UNITY_ATOM_ATTR
26 1
charge -1
@<TRIPOS>BOND
     1    11    12    1
     2    12    13   am
     3    13    14    2
     4    13     7    1
     5     7     8    2
     6     7     9   am
     7     9     6    1
     8     6     5    1
     9     5     4    1
    10     4     3    1
    11     3     1    1
    12     1     2    2
    13     2    16    1
    14    16    17    1
    15    17    18    1
    16    18    19    1
    17    19    20    1
    18    20    21    1
    19    21    22    1
    20    22    23    1
    21    23    24    1
    22    24    25    1
    23    25    26   ar
    24    25    27   ar
    25    12    15    1
    26     9    10    1
@<TRIPOS>MOLECULE
*****
 27 26 0 0 0
SMALL
GASTEIGER

@<TRIPOS>ATOM
      1 C          -8.4200  -15.2972   26.9306 C.2     1  UNL1       -0.0307
      2 C          -7.0476  -15.5704   27.4710 C.2     1  UNL1       -0.0307
      3 C          -8.7142  -15.5302   25.4784 C.3     1  UNL1        0.0258
      4 C          -8.7892  -16.9295   24.9434 C.3     1  UNL1        0.0064
      5 C          -9.7407  -17.9157   25.5535 C.3     1  UNL1        0.0216
      6 C         -10.6648  -18.7075   24.6764 C.3     1  UNL1        0.0898
      7 C         -11.2264  -18.3514   22.1649 C.2     1  UNL1        0.2995
      8 O         -12.4554  -17.5820   22.5488 O.2     1  UNL1       -0.2652
      9 N         -10.3311  -18.9142   23.2287 N.am    1  UNL1       -0.2971
     10 H          -9.5244  -19.4192   22.9768 H       1  UNL1        0.1499
     11 C          -9.5025  -19.7550   18.8773 C.3     1  UNL1        0.1111
     12 N          -9.8363  -19.5483   20.3250 N.am    1  UNL1       -0.2954
     13 C         -10.8926  -18.5582   20.7171 C.2     1  UNL1        0.2996
     14 O         -11.6151  -17.7748   19.6616 O.2     1  UNL1       -0.2652
     15 H          -9.3620  -20.0625   21.0178 H       1  UNL1        0.1499
     16 C          -5.9696  -16.0766   26.5592 C.3     1  UNL1        0.0257
     17 C          -5.2213  -15.1199   25.6790 C.3     1  UNL1        0.0047
     18 C          -5.2963  -15.2579   24.1872 C.3     1  UNL1        0.0003
     19 C          -5.2610  -16.6187   23.5571 C.3     1  UNL1        0.0000
     20 C          -4.0331  -17.4711   23.6815 C.3     1  UNL1        0.0000
     21 C          -3.3651  -18.0082   22.4505 C.3     1  UNL1        0.0000
     22 C          -3.5364  -19.4498   22.0726 C.3     1  UNL1        0.0004
     23 C          -4.1805  -19.8115   20.7671 C.3     1  UNL1        0.0059
     24 C          -5.5988  -20.2990   20.7402 C.3     1  UNL1        0.0417
     25 C          -6.6962  -19.4451   21.3028 C.2     1  UNL1        0.0503
     26 O          -7.5281  -19.9491   22.4447 O.co2   1  UNL1       -0.5492
     27 O          -6.9618  -18.0873   20.7235 O.co2   1  UNL1       -0.5492
@<TRIPOS>UNITY_ATOM_ATTR
26 1
charge -1
@<TRIPOS>BOND
     1    11    12    1
     2    12    13   am
     3    13    14    2
     4    13     7    1
     5     7     8    2
     6     7     9   am
     7     9     6    1
     8     6     5    1
     9     5     4    1
    10     4     3    1
    11     3     1    1
    12     1     2    2
    13     2    16    1
    14    16    17    1
    15    17    18    1
    16    18    19    1
    17    19    20    1
    18    20    21    1
    19    21    22    1
    20    22    23    1
    21    23    24    1
    22    24    25    1
    23    25    26   ar
    24    25    27   ar
    25    12    15    1
    26     9    10    1
@<TRIPOS>MOLECULE
*****
 27 26 0 0 0
SMALL
GASTEIGER

@<TRIPOS>ATOM
      1 C          -8.3931  -15.2363   26.9420 C.2     1  UNL1       -0.0307
      2 C          -7.0069  -15.4276   27.4821 C.2     1  UNL1       -0.0307
      3 C          -8.6957  -15.5804   25.5138 C.3     1  UNL1        0.0258
      4 C          -8.6787  -17.0124   25.0676 C.3     1  UNL1        0.0064
      5 C          -9.6824  -17.9816   25.6185 C.3     1  UNL1        0.0216
      6 C         -10.5469  -18.7773   24.6860 C.3     1  UNL1        0.0898
      7 C         -10.6425  -18.1097   22.1770 C.2     1  UNL1        0.2995
      8 O         -11.6013  -17.0046   22.5076 O.2     1  UNL1       -0.2652
      9 N         -10.1153  -18.9961   23.2662 N.am    1  UNL1       -0.2971
     10 H          -9.4860  -19.7215   23.0493 H       1  UNL1        0.1499
     11 C          -8.9669  -19.7562   18.9784 C.3     1  UNL1        0.1111
     12 N          -9.3985  -19.5373   20.3981 N.am    1  UNL1       -0.2954
     13 C         -10.2109  -18.3286   20.7572 C.2     1  UNL1        0.2996
     14 O         -10.5918  -17.3388   19.6964 O.2     1  UNL1       -0.2652
     15 H          -9.1485  -20.1870   21.0943 H       1  UNL1        0.1499
     16 C          -5.9232  -15.9632   26.5940 C.3     1  UNL1        0.0257
     17 C          -5.2218  -15.0501   25.6326 C.3     1  UNL1        0.0047
     18 C          -5.4523  -15.1942   24.1574 C.3     1  UNL1        0.0003
     19 C          -5.2057  -16.5122   23.4850 C.3     1  UNL1        0.0000
     20 C          -4.0082  -17.3335   23.8609 C.3     1  UNL1        0.0000
     21 C          -3.0661  -17.8161   22.7981 C.3     1  UNL1        0.0000
     22 C          -3.2202  -19.1955   22.2292 C.3     1  UNL1        0.0004
     23 C          -4.1379  -19.4287   21.0659 C.3     1  UNL1        0.0059
     24 C          -3.5937  -19.4215   19.6681 C.3     1  UNL1        0.0417
     25 C          -2.7142  -18.2955   19.2115 C.2     1  UNL1        0.0503
     26 O          -3.3201  -16.9764   18.8336 O.co2   1  UNL1       -0.5492
     27 O          -1.2288  -18.4885   19.1326 O.co2   1  UNL1       -0.5492
@<TRIPOS>UNITY_ATOM_ATTR
26 1
charge -1
@<TRIPOS>BOND
     1    11    12    1
     2    12    13   am
     3    13    14    2
     4    13     7    1
     5     7     8    2
     6     7     9   am
     7     9     6    1
     8     6     5    1
     9     5     4    1
    10     4     3    1
    11     3     1    1
    12     1     2    2
    13     2    16    1
    14    16    17    1
    15    17    18    1
    16    18    19    1
    17    19    20    1
    18    20    21    1
    19    21    22    1
    20    22    23    1
    21    23    24    1
    22    24    25    1
    23    25    26   ar
    24    25    27   ar
    25    12    15    1
    26     9    10    1
