@<TRIPOS>MOLECULE
*****
 30 32 0 0 0
SMALL
GASTEIGER

@<TRIPOS>ATOM
      1 C          -6.6150  -16.0573   23.3634 C.3     1  UNL1        0.0096
      2 C          -6.7990  -15.8172   24.8325 C.3     1  UNL1        0.0780
      3 C          -6.9831  -15.5771   26.3017 C.3     1  UNL1        0.0096
      4 C          -8.2817  -15.9797   24.6734 C.2     1  UNL1        0.2254
      5 O          -9.2191  -15.2368   25.5786 O.2     1  UNL1       -0.2748
      6 N          -8.8269  -16.8851   23.6090 N.am    1  UNL1       -0.2876
      7 H          -8.2117  -17.3727   23.0149 H       1  UNL1        0.1545
      8 C         -10.3096  -17.0477   23.4498 C.2     1  UNL1        0.0245
      9 C         -11.0107  -18.2060   24.0954 C.2     1  UNL1        0.0011
     10 C         -12.4934  -18.3685   23.9362 C.3     1  UNL1        0.0284
     11 C         -13.2749  -17.3727   23.1314 C.3     1  UNL1        0.0051
     12 C         -12.5738  -16.2144   22.4858 C.3     1  UNL1        0.0063
     13 C         -11.0911  -16.0519   22.6450 C.3     1  UNL1        0.0409
     14 C         -10.2292  -19.2017   24.9002 C.2     1  UNL1        0.0698
     15 O          -9.4938  -18.7599   26.1306 O.co2   1  UNL1       -0.5449
     16 O         -10.1832  -20.6393   24.4745 O.co2   1  UNL1       -0.5449
     17 C          -5.3164  -15.6547   24.9917 C.3     1  UNL1        0.0966
     18 C          -4.3781  -16.4846   24.1666 C.ar    1  UNL1        0.2371
     19 N          -4.0172  -16.2427   22.7309 N.ar    1  UNL1       -0.1895
     20 C          -3.0520  -17.3107   22.3093 C.ar    1  UNL1        0.2210
     21 N          -2.8163  -18.2127   23.4845 N.ar    1  UNL1       -0.0544
     22 O          -3.6359  -17.7021   24.6323 O.2     1  UNL1       -0.3370
     23 C          -2.4313  -17.4520   20.9510 C.ar    1  UNL1        0.1205
     24 C          -0.9616  -17.7231   20.8225 C.ar    1  UNL1        0.0255
     25 C          -0.3411  -17.8643   19.4642 C.ar    1  UNL1        0.0399
     26 C          -1.1901  -17.7345   18.2345 C.ar    1  UNL1        0.1528
     27 O          -0.5695  -17.8757   16.8762 O.3     1  UNL1       -0.5039
     28 C          -2.6598  -17.4634   18.3630 C.ar    1  UNL1        0.1354
     29 N          -3.2804  -17.3221   19.7213 N.ar    1  UNL1       -0.2375
     30 H           0.3486  -18.0451   16.7959 H       1  UNL1        0.2923
@<TRIPOS>UNITY_ATOM_ATTR
15 1
charge -1
@<TRIPOS>BOND
     1     1     2    1
     2     2     3    1
     3     2    17    1
     4    17    18    1
     5    18    19   ar
     6    19    20   ar
     7    20    23    1
     8    23    24   ar
     9    24    25   ar
    10    25    26   ar
    11    26    27    1
    12    26    28   ar
    13    28    29   ar
    14    20    21   ar
    15    21    22   ar
    16     2     4    1
    17     4     5    2
    18     4     6   am
    19     6     8    1
    20     8     9    2
    21     9    14    1
    22    14    15   ar
    23    14    16   ar
    24     9    10    1
    25    10    11    1
    26    11    12    1
    27    12    13    1
    28    22    18   ar
    29    13     8    1
    30    29    23   ar
    31    27    30    1
    32     6     7    1
@<TRIPOS>MOLECULE
*****
 30 32 0 0 0
SMALL
GASTEIGER

@<TRIPOS>ATOM
      1 C          -7.7468  -15.8413   26.3606 C.3     1  UNL1        0.0096
      2 C          -7.3650  -16.0154   24.9205 C.3     1  UNL1        0.0780
      3 C          -6.9832  -16.1894   23.4804 C.3     1  UNL1        0.0096
      4 C          -8.8084  -16.2093   24.5613 C.2     1  UNL1        0.2254
      5 O          -9.7931  -15.1005   24.7871 O.2     1  UNL1       -0.2748
      6 N          -9.2671  -17.5121   23.9762 N.am    1  UNL1       -0.2876
      7 H          -8.6209  -18.2399   23.8280 H       1  UNL1        0.1545
      8 C         -10.7106  -17.7061   23.6169 C.2     1  UNL1        0.0245
      9 C         -11.1895  -17.3800   22.2334 C.2     1  UNL1        0.0011
     10 C         -12.6328  -17.5740   21.8742 C.3     1  UNL1        0.0284
     11 C         -13.5973  -18.0942   22.8986 C.3     1  UNL1        0.0051
     12 C         -13.1184  -18.4203   24.2821 C.3     1  UNL1        0.0063
     13 C         -11.6750  -18.2263   24.6413 C.3     1  UNL1        0.0409
     14 C         -10.2250  -16.8598   21.2090 C.2     1  UNL1        0.0698
     15 O         -10.4954  -15.5561   20.5182 O.co2   1  UNL1       -0.5449
     16 O          -8.9902  -17.6433   20.8756 O.co2   1  UNL1       -0.5449
     17 C          -5.9217  -15.8214   25.2797 C.3     1  UNL1        0.0966
     18 C          -4.8565  -16.5719   24.5367 C.ar    1  UNL1        0.2371
     19 N          -4.4743  -16.3697   23.1004 N.ar    1  UNL1       -0.1895
     20 C          -3.3681  -17.3292   22.7755 C.ar    1  UNL1        0.2210
     21 N          -3.0665  -18.1245   24.0111 N.ar    1  UNL1       -0.0544
     22 O          -3.9864  -17.6565   25.0996 O.2     1  UNL1       -0.3370
     23 C          -2.6835  -17.4690   21.4481 C.ar    1  UNL1        0.1205
     24 C          -1.3184  -16.8822   21.2428 C.ar    1  UNL1        0.0255
     25 C          -0.6340  -17.0219   19.9154 C.ar    1  UNL1        0.0399
     26 C          -1.3145  -17.7485   18.7934 C.ar    1  UNL1        0.1528
     27 O          -0.6300  -17.8882   17.4660 O.3     1  UNL1       -0.5039
     28 C          -2.6796  -18.3353   18.9987 C.ar    1  UNL1        0.1354
     29 N          -3.3641  -18.1955   20.3261 N.ar    1  UNL1       -0.2375
     30 H           0.2228  -17.5217   17.3377 H       1  UNL1        0.2923
@<TRIPOS>UNITY_ATOM_ATTR
15 1
charge -1
@<TRIPOS>BOND
     1     1     2    1
     2     2     3    1
     3     2    17    1
     4    17    18    1
     5    18    19   ar
     6    19    20   ar
     7    20    23    1
     8    23    24   ar
     9    24    25   ar
    10    25    26   ar
    11    26    27    1
    12    26    28   ar
    13    28    29   ar
    14    20    21   ar
    15    21    22   ar
    16     2     4    1
    17     4     5    2
    18     4     6   am
    19     6     8    1
    20     8     9    2
    21     9    14    1
    22    14    15   ar
    23    14    16   ar
    24     9    10    1
    25    10    11    1
    26    11    12    1
    27    12    13    1
    28    22    18   ar
    29    13     8    1
    30    29    23   ar
    31    27    30    1
    32     6     7    1
@<TRIPOS>MOLECULE
*****
 30 32 0 0 0
SMALL
GASTEIGER

@<TRIPOS>ATOM
      1 C           8.2236   -8.2231   26.0850 C.3     1  UNL1        0.0096
      2 C           8.5357   -8.0104   27.5367 C.3     1  UNL1        0.0780
      3 C           8.8479   -7.7977   28.9883 C.3     1  UNL1        0.0096
      4 C           7.8376   -6.6835   27.4924 C.2     1  UNL1        0.2254
      5 O           6.6573   -6.4869   26.5878 O.2     1  UNL1       -0.2748
      6 N           8.3197   -5.5533   28.3527 N.am    1  UNL1       -0.2876
      7 H           9.0944   -5.6824   28.9464 H       1  UNL1        0.1545
      8 C           7.6216   -4.2264   28.3085 C.2     1  UNL1        0.0245
      9 C           6.9183   -3.7079   29.5277 C.2     1  UNL1        0.0011
     10 C           6.2202   -2.3810   29.4834 C.3     1  UNL1        0.0284
     11 C           6.2254   -1.5726   28.2199 C.3     1  UNL1        0.0051
     12 C           6.9287   -2.0910   27.0007 C.3     1  UNL1        0.0063
     13 C           7.6268   -3.4179   27.0450 C.3     1  UNL1        0.0409
     14 C           6.9130   -4.5163   30.7912 C.2     1  UNL1        0.0698
     15 O           6.7725   -6.0083   30.7264 O.co2   1  UNL1       -0.5449
     16 O           7.0483   -3.8327   32.1194 O.co2   1  UNL1       -0.5449
     17 C           9.2338   -9.3373   27.5810 C.3     1  UNL1        0.0966
     18 C           8.4450  -10.5926   27.8089 C.ar    1  UNL1        0.2371
     19 N           6.9528  -10.6866   27.9293 N.ar    1  UNL1       -0.1895
     20 C           6.5955  -12.1263   28.1513 C.ar    1  UNL1        0.2210
     21 N           7.8668  -12.9222   28.1681 N.ar    1  UNL1       -0.0544
     22 O           9.0099  -11.9743   27.9565 O.2     1  UNL1       -0.3370
     23 C           5.2100  -12.6741   28.3258 C.ar    1  UNL1        0.1205
     24 C           4.2621  -12.0235   29.2892 C.ar    1  UNL1        0.0255
     25 C           2.8767  -12.5714   29.4637 C.ar    1  UNL1        0.0399
     26 C           2.4391  -13.7698   28.6748 C.ar    1  UNL1        0.1528
     27 O           1.0536  -14.3176   28.8494 O.3     1  UNL1       -0.5039
     28 C           3.3870  -14.4204   27.7114 C.ar    1  UNL1        0.1354
     29 N           4.7724  -13.8726   27.5369 N.ar    1  UNL1       -0.2375
     30 H           0.4615  -13.9111   29.4512 H       1  UNL1        0.2923
@<TRIPOS>UNITY_ATOM_ATTR
15 1
charge -1
@<TRIPOS>BOND
     1     1     2    1
     2     2     3    1
     3     2    17    1
     4    17    18    1
     5    18    19   ar
     6    19    20   ar
     7    20    23    1
     8    23    24   ar
     9    24    25   ar
    10    25    26   ar
    11    26    27    1
    12    26    28   ar
    13    28    29   ar
    14    20    21   ar
    15    21    22   ar
    16     2     4    1
    17     4     5    2
    18     4     6   am
    19     6     8    1
    20     8     9    2
    21     9    14    1
    22    14    15   ar
    23    14    16   ar
    24     9    10    1
    25    10    11    1
    26    11    12    1
    27    12    13    1
    28    22    18   ar
    29    13     8    1
    30    29    23   ar
    31    27    30    1
    32     6     7    1
@<TRIPOS>MOLECULE
*****
 30 32 0 0 0
SMALL
GASTEIGER

@<TRIPOS>ATOM
      1 C           7.3406   -7.0859   27.1900 C.3     1  UNL1        0.0096
      2 C           8.4301   -7.6033   28.0818 C.3     1  UNL1        0.0780
      3 C           9.5196   -8.1206   28.9736 C.3     1  UNL1        0.0096
      4 C           8.2821   -6.3978   28.9620 C.2     1  UNL1        0.2254
      5 O           9.4849   -5.8124   29.6407 O.2     1  UNL1       -0.2748
      6 N           6.9312   -5.7776   29.1635 N.am    1  UNL1       -0.2876
      7 H           6.1418   -6.1618   28.7181 H       1  UNL1        0.1545
      8 C           6.7831   -4.5720   30.0438 C.2     1  UNL1        0.0245
      9 C           6.6580   -3.2079   29.4326 C.2     1  UNL1        0.0011
     10 C           6.5099   -2.0024   30.3128 C.3     1  UNL1        0.0284
     11 C           6.4870   -2.1610   31.8042 C.3     1  UNL1        0.0051
     12 C           6.6121   -3.5251   32.4154 C.3     1  UNL1        0.0063
     13 C           6.7602   -4.7306   31.5352 C.3     1  UNL1        0.0409
     14 C           6.6810   -3.0493   27.9411 C.2     1  UNL1        0.0698
     15 O           5.4620   -2.5543   27.2207 O.co2   1  UNL1       -0.5449
     16 O           7.9228   -3.3858   27.1702 O.co2   1  UNL1       -0.5449
     17 C           8.5781   -8.8088   27.2016 C.3     1  UNL1        0.0966
     18 C           7.9394  -10.1077   27.5951 C.ar    1  UNL1        0.2371
     19 N           6.4660  -10.3802   27.6652 N.ar    1  UNL1       -0.1895
     20 C           6.2780  -11.8031   28.1010 C.ar    1  UNL1        0.2210
     21 N           7.6351  -12.4101   28.3002 N.ar    1  UNL1       -0.0544
     22 O           8.6620  -11.3623   27.9876 O.2     1  UNL1       -0.3370
     23 C           4.9635  -12.4972   28.3022 C.ar    1  UNL1        0.1205
     24 C           3.9820  -11.9684   29.3057 C.ar    1  UNL1        0.0255
     25 C           2.6676  -12.6625   29.5068 C.ar    1  UNL1        0.0399
     26 C           2.3347  -13.8854   28.7045 C.ar    1  UNL1        0.1528
     27 O           1.0202  -14.5795   28.9057 O.3     1  UNL1       -0.5039
     28 C           3.3162  -14.4142   27.7011 C.ar    1  UNL1        0.1354
     29 N           4.6306  -13.7201   27.4999 N.ar    1  UNL1       -0.2375
     30 H           0.4071  -14.2492   29.5326 H       1  UNL1        0.2923
@<TRIPOS>UNITY_ATOM_ATTR
15 1
charge -1
@<TRIPOS>BOND
     1     1     2    1
     2     2     3    1
     3     2    17    1
     4    17    18    1
     5    18    19   ar
     6    19    20   ar
     7    20    23    1
     8    23    24   ar
     9    24    25   ar
    10    25    26   ar
    11    26    27    1
    12    26    28   ar
    13    28    29   ar
    14    20    21   ar
    15    21    22   ar
    16     2     4    1
    17     4     5    2
    18     4     6   am
    19     6     8    1
    20     8     9    2
    21     9    14    1
    22    14    15   ar
    23    14    16   ar
    24     9    10    1
    25    10    11    1
    26    11    12    1
    27    12    13    1
    28    22    18   ar
    29    13     8    1
    30    29    23   ar
    31    27    30    1
    32     6     7    1
@<TRIPOS>MOLECULE
*****
 30 32 0 0 0
SMALL
GASTEIGER

@<TRIPOS>ATOM
      1 C           7.6760   -1.6540   20.7050 C.3     1  UNL1        0.0096
      2 C           6.7407   -2.7773   20.3688 C.3     1  UNL1        0.0780
      3 C           5.8053   -3.9007   20.0325 C.3     1  UNL1        0.0096
      4 C           5.5964   -1.8089   20.3161 C.2     1  UNL1        0.2254
      5 O           5.7094   -0.4768   20.9965 O.2     1  UNL1       -0.2748
      6 N           4.3392   -2.1725   19.5832 N.am    1  UNL1       -0.2876
      7 H           4.2651   -3.0468   19.1367 H       1  UNL1        0.1545
      8 C           3.1949   -1.2040   19.5305 C.2     1  UNL1        0.0245
      9 C           3.0754   -0.2460   18.3825 C.2     1  UNL1        0.0011
     10 C           1.9311    0.7224   18.3299 C.3     1  UNL1        0.0284
     11 C           0.9064    0.7329   19.4253 C.3     1  UNL1        0.0051
     12 C           1.0260   -0.2251   20.5733 C.3     1  UNL1        0.0063
     13 C           2.1702   -1.1935   20.6260 C.3     1  UNL1        0.0409
     14 C           4.1001   -0.2565   17.2871 C.2     1  UNL1        0.0698
     15 O           3.9037   -1.1315   16.0847 O.co2   1  UNL1       -0.5449
     16 O           5.3211    0.6081   17.3941 O.co2   1  UNL1       -0.5449
     17 C           7.8849   -3.7458   20.4214 C.3     1  UNL1        0.0966
     18 C           8.0010   -4.7080   21.5663 C.ar    1  UNL1        0.2371
     19 N           7.6830   -4.4125   23.0021 N.ar    1  UNL1       -0.1895
     20 C           7.9410   -5.6564   23.7995 C.ar    1  UNL1        0.2210
     21 N           8.4185   -6.7208   22.8566 N.ar    1  UNL1       -0.0544
     22 O           8.4556   -6.1347   21.4763 O.2     1  UNL1       -0.3370
     23 C           7.7544   -5.8093   25.2800 C.ar    1  UNL1        0.1205
     24 C           8.5697   -6.8138   26.0390 C.ar    1  UNL1        0.0255
     25 C           8.3830   -6.9666   27.5195 C.ar    1  UNL1        0.0399
     26 C           7.3810   -6.1149   28.2409 C.ar    1  UNL1        0.1528
     27 O           7.1943   -6.2677   29.7215 O.3     1  UNL1       -0.5039
     28 C           6.5656   -5.1104   27.4819 C.ar    1  UNL1        0.1354
     29 N           6.7523   -4.9576   26.0015 N.ar    1  UNL1       -0.2375
     30 H           7.7036   -6.8952   30.1956 H       1  UNL1        0.2923
@<TRIPOS>UNITY_ATOM_ATTR
15 1
charge -1
@<TRIPOS>BOND
     1     1     2    1
     2     2     3    1
     3     2    17    1
     4    17    18    1
     5    18    19   ar
     6    19    20   ar
     7    20    23    1
     8    23    24   ar
     9    24    25   ar
    10    25    26   ar
    11    26    27    1
    12    26    28   ar
    13    28    29   ar
    14    20    21   ar
    15    21    22   ar
    16     2     4    1
    17     4     5    2
    18     4     6   am
    19     6     8    1
    20     8     9    2
    21     9    14    1
    22    14    15   ar
    23    14    16   ar
    24     9    10    1
    25    10    11    1
    26    11    12    1
    27    12    13    1
    28    22    18   ar
    29    13     8    1
    30    29    23   ar
    31    27    30    1
    32     6     7    1
@<TRIPOS>MOLECULE
*****
 30 32 0 0 0
SMALL
GASTEIGER

@<TRIPOS>ATOM
      1 C          -5.0455  -14.8551   23.6462 C.3     1  UNL1        0.0096
      2 C          -4.5016  -16.1558   24.1584 C.3     1  UNL1        0.0780
      3 C          -3.9578  -17.4565   24.6705 C.3     1  UNL1        0.0096
      4 C          -3.7008  -16.3164   22.9002 C.2     1  UNL1        0.2254
      5 O          -3.1967  -15.1055   22.1724 O.2     1  UNL1       -0.2748
      6 N          -3.4041  -17.6878   22.3700 N.am    1  UNL1       -0.2876
      7 H          -3.7350  -18.4825   22.8477 H       1  UNL1        0.1545
      8 C          -2.6033  -17.8484   21.1118 C.2     1  UNL1        0.0245
      9 C          -3.1557  -18.6459   19.9678 C.2     1  UNL1        0.0011
     10 C          -2.3549  -18.8065   18.7097 C.3     1  UNL1        0.0284
     11 C          -1.0016  -18.1696   18.5956 C.3     1  UNL1        0.0051
     12 C          -0.4492  -17.3720   19.7396 C.3     1  UNL1        0.0063
     13 C          -1.2500  -17.2114   20.9977 C.3     1  UNL1        0.0409
     14 C          -4.5090  -19.2829   20.0819 C.2     1  UNL1        0.0698
     15 O          -4.6458  -20.7741   19.9950 O.co2   1  UNL1       -0.5449
     16 O          -5.7254  -18.4286   20.2829 O.co2   1  UNL1       -0.5449
     17 C          -5.3024  -15.9952   25.4165 C.3     1  UNL1        0.0966
     18 C          -6.8008  -15.9655   25.3532 C.ar    1  UNL1        0.2371
     19 N          -7.6497  -16.5660   24.2721 N.ar    1  UNL1       -0.1895
     20 C          -9.0869  -16.3017   24.6106 C.ar    1  UNL1        0.2210
     21 N          -9.1263  -15.5379   25.9009 N.ar    1  UNL1       -0.0544
     22 O          -7.7134  -15.3301   26.3599 O.2     1  UNL1       -0.3370
     23 C         -10.2760  -16.7266   23.8009 C.ar    1  UNL1        0.1205
     24 C         -10.9512  -18.0346   24.0895 C.ar    1  UNL1        0.0255
     25 C         -12.1402  -18.4594   23.2798 C.ar    1  UNL1        0.0399
     26 C         -12.6541  -17.5764   22.1815 C.ar    1  UNL1        0.1528
     27 O         -13.8432  -18.0013   21.3718 O.3     1  UNL1       -0.5039
     28 C         -11.9788  -16.2684   21.8929 C.ar    1  UNL1        0.1354
     29 N         -10.7898  -15.8436   22.7026 N.ar    1  UNL1       -0.2375
     30 H         -14.2650  -18.8184   21.5521 H       1  UNL1        0.2923
@<TRIPOS>UNITY_ATOM_ATTR
15 1
charge -1
@<TRIPOS>BOND
     1     1     2    1
     2     2     3    1
     3     2    17    1
     4    17    18    1
     5    18    19   ar
     6    19    20   ar
     7    20    23    1
     8    23    24   ar
     9    24    25   ar
    10    25    26   ar
    11    26    27    1
    12    26    28   ar
    13    28    29   ar
    14    20    21   ar
    15    21    22   ar
    16     2     4    1
    17     4     5    2
    18     4     6   am
    19     6     8    1
    20     8     9    2
    21     9    14    1
    22    14    15   ar
    23    14    16   ar
    24     9    10    1
    25    10    11    1
    26    11    12    1
    27    12    13    1
    28    22    18   ar
    29    13     8    1
    30    29    23   ar
    31    27    30    1
    32     6     7    1
@<TRIPOS>MOLECULE
*****
 30 32 0 0 0
SMALL
GASTEIGER

@<TRIPOS>ATOM
      1 C           2.9213    3.2541   19.4580 C.3     1  UNL1        0.0096
      2 C           2.0423    2.2041   18.8458 C.3     1  UNL1        0.0780
      3 C           1.1634    1.1541   18.2336 C.3     1  UNL1        0.0096
      4 C           2.9354    1.1337   19.3996 C.2     1  UNL1        0.2254
      5 O           3.9835    1.4822   20.4144 O.2     1  UNL1       -0.2748
      6 N           2.7802   -0.2852   18.9385 N.am    1  UNL1       -0.2876
      7 H           2.0923   -0.5139   18.2724 H       1  UNL1        0.1545
      8 C           3.6733   -1.3557   19.4922 C.2     1  UNL1        0.0245
      9 C           4.8559   -1.8297   18.7005 C.2     1  UNL1        0.0011
     10 C           5.7489   -2.9001   19.2543 C.3     1  UNL1        0.0284
     11 C           5.4593   -3.4966   20.5998 C.3     1  UNL1        0.0051
     12 C           4.2767   -3.0226   21.3916 C.3     1  UNL1        0.0063
     13 C           3.3837   -1.9522   20.8378 C.3     1  UNL1        0.0409
     14 C           5.1455   -1.2332   17.3550 C.2     1  UNL1        0.0698
     15 O           4.0319   -1.0233   16.3723 O.co2   1  UNL1       -0.5449
     16 O           6.5486   -0.8467   16.9923 O.co2   1  UNL1       -0.5449
     17 C           1.1493    3.2745   18.2920 C.3     1  UNL1        0.0966
     18 C          -0.2378    3.4494   18.8355 C.ar    1  UNL1        0.2371
     19 N          -0.6511    3.2828   20.2678 N.ar    1  UNL1       -0.1895
     20 C          -2.1238    3.5521   20.3597 C.ar    1  UNL1        0.2210
     21 N          -2.6208    3.8853   18.9841 N.ar    1  UNL1       -0.0544
     22 O          -1.4552    3.8218   18.0422 O.2     1  UNL1       -0.3370
     23 C          -2.9539    3.4978   21.6079 C.ar    1  UNL1        0.1205
     24 C          -4.4277    3.2336   21.5177 C.ar    1  UNL1        0.0255
     25 C          -5.2577    3.1793   22.7659 C.ar    1  UNL1        0.0399
     26 C          -4.6140    3.3893   24.1044 C.ar    1  UNL1        0.1528
     27 O          -5.4441    3.3350   25.3526 O.3     1  UNL1       -0.5039
     28 C          -3.1402    3.6535   24.1946 C.ar    1  UNL1        0.1354
     29 N          -2.3102    3.7078   22.9464 N.ar    1  UNL1       -0.2375
     30 H          -6.3647    3.1700   25.2962 H       1  UNL1        0.2923
@<TRIPOS>UNITY_ATOM_ATTR
15 1
charge -1
@<TRIPOS>BOND
     1     1     2    1
     2     2     3    1
     3     2    17    1
     4    17    18    1
     5    18    19   ar
     6    19    20   ar
     7    20    23    1
     8    23    24   ar
     9    24    25   ar
    10    25    26   ar
    11    26    27    1
    12    26    28   ar
    13    28    29   ar
    14    20    21   ar
    15    21    22   ar
    16     2     4    1
    17     4     5    2
    18     4     6   am
    19     6     8    1
    20     8     9    2
    21     9    14    1
    22    14    15   ar
    23    14    16   ar
    24     9    10    1
    25    10    11    1
    26    11    12    1
    27    12    13    1
    28    22    18   ar
    29    13     8    1
    30    29    23   ar
    31    27    30    1
    32     6     7    1
@<TRIPOS>MOLECULE
*****
 30 32 0 0 0
SMALL
GASTEIGER

@<TRIPOS>ATOM
      1 C           7.9704   -8.2864   26.2446 C.3     1  UNL1        0.0096
      2 C           8.5250   -8.0795   27.6228 C.3     1  UNL1        0.0780
      3 C           9.0795   -7.8727   29.0011 C.3     1  UNL1        0.0096
      4 C           7.8653   -6.7339   27.6863 C.2     1  UNL1        0.2254
      5 O           7.5318   -6.1240   29.0155 O.2     1  UNL1       -0.2748
      6 N           7.5392   -5.9981   26.4205 N.am    1  UNL1       -0.2876
      7 H           7.7582   -6.3983   25.5481 H       1  UNL1        0.1545
      8 C           6.8796   -4.6523   26.4839 C.2     1  UNL1        0.0245
      9 C           6.6916   -3.8494   25.2310 C.2     1  UNL1        0.0011
     10 C           6.0320   -2.5037   25.2944 C.3     1  UNL1        0.0284
     11 C           5.5603   -1.9610   26.6108 C.3     1  UNL1        0.0051
     12 C           5.7482   -2.7640   27.8638 C.3     1  UNL1        0.0063
     13 C           6.4078   -4.1096   27.8004 C.3     1  UNL1        0.0409
     14 C           7.1634   -4.3921   23.9145 C.2     1  UNL1        0.0698
     15 O           6.2325   -4.4219   22.7387 O.co2   1  UNL1       -0.5449
     16 O           8.5659   -4.9049   23.7740 O.co2   1  UNL1       -0.5449
     17 C           9.1846   -9.4252   27.5594 C.3     1  UNL1        0.0966
     18 C           8.3826  -10.6665   27.8163 C.ar    1  UNL1        0.2371
     19 N           6.8899  -10.7411   27.9437 N.ar    1  UNL1       -0.1895
     20 C           6.5173  -12.1718   28.1971 C.ar    1  UNL1        0.2210
     21 N           7.7797  -12.9814   28.2263 N.ar    1  UNL1       -0.0544
     22 O           8.9326  -12.0511   27.9910 O.2     1  UNL1       -0.3370
     23 C           5.1264  -12.7002   28.3878 C.ar    1  UNL1        0.1205
     24 C           4.1748  -11.9929   29.3066 C.ar    1  UNL1        0.0255
     25 C           2.7840  -12.5213   29.4973 C.ar    1  UNL1        0.0399
     26 C           2.3448  -13.7570   28.7692 C.ar    1  UNL1        0.1528
     27 O           0.9539  -14.2854   28.9599 O.3     1  UNL1       -0.5039
     28 C           3.2963  -14.4643   27.8504 C.ar    1  UNL1        0.1354
     29 N           4.6871  -13.9359   27.6597 N.ar    1  UNL1       -0.2375
     30 H           0.3595  -13.8435   29.5339 H       1  UNL1        0.2923
@<TRIPOS>UNITY_ATOM_ATTR
15 1
charge -1
@<TRIPOS>BOND
     1     1     2    1
     2     2     3    1
     3     2    17    1
     4    17    18    1
     5    18    19   ar
     6    19    20   ar
     7    20    23    1
     8    23    24   ar
     9    24    25   ar
    10    25    26   ar
    11    26    27    1
    12    26    28   ar
    13    28    29   ar
    14    20    21   ar
    15    21    22   ar
    16     2     4    1
    17     4     5    2
    18     4     6   am
    19     6     8    1
    20     8     9    2
    21     9    14    1
    22    14    15   ar
    23    14    16   ar
    24     9    10    1
    25    10    11    1
    26    11    12    1
    27    12    13    1
    28    22    18   ar
    29    13     8    1
    30    29    23   ar
    31    27    30    1
    32     6     7    1
@<TRIPOS>MOLECULE
*****
 30 32 0 0 0
SMALL
GASTEIGER

@<TRIPOS>ATOM
      1 C           6.7935   -5.9798   26.5197 C.3     1  UNL1        0.0096
      2 C           8.0720   -5.2779   26.1696 C.3     1  UNL1        0.0780
      3 C           9.3505   -4.5760   25.8194 C.3     1  UNL1        0.0096
      4 C           7.8942   -4.3664   27.3475 C.2     1  UNL1        0.2254
      5 O           8.8742   -3.2575   27.5925 O.2     1  UNL1       -0.2748
      6 N           6.7365   -4.5639   28.2806 N.am    1  UNL1       -0.2876
      7 H           6.0933   -5.2917   28.1198 H       1  UNL1        0.1545
      8 C           6.5587   -3.6524   29.4586 C.2     1  UNL1        0.0245
      9 C           6.8240   -4.1587   30.8454 C.2     1  UNL1        0.0011
     10 C           6.6462   -3.2473   32.0234 C.3     1  UNL1        0.0284
     11 C           6.2030   -1.8295   31.8146 C.3     1  UNL1        0.0051
     12 C           5.9377   -1.3232   30.4277 C.3     1  UNL1        0.0063
     13 C           6.1155   -2.2347   29.2498 C.3     1  UNL1        0.0409
     14 C           7.2671   -5.5765   31.0543 C.2     1  UNL1        0.0698
     15 O           6.6052   -6.4227   32.1011 O.co2   1  UNL1       -0.5449
     16 O           8.3721   -6.1480   30.2163 O.co2   1  UNL1       -0.5449
     17 C           8.2498   -6.1893   24.9916 C.3     1  UNL1        0.0966
     18 C           8.3115   -5.6199   23.6053 C.ar    1  UNL1        0.2371
     19 N           7.1596   -5.0429   22.8370 N.ar    1  UNL1       -0.1895
     20 C           7.6721   -4.5939   21.5007 C.ar    1  UNL1        0.2210
     21 N           9.1408   -4.8933   21.4431 N.ar    1  UNL1       -0.0544
     22 O           9.5360   -5.5274   22.7438 O.2     1  UNL1       -0.3370
     23 C           6.8588   -3.9571   20.4130 C.ar    1  UNL1        0.1205
     24 C           7.3865   -2.7548   19.6879 C.ar    1  UNL1        0.0255
     25 C           6.5732   -2.1182   18.6002 C.ar    1  UNL1        0.0399
     26 C           5.2321   -2.6838   18.2376 C.ar    1  UNL1        0.1528
     27 O           4.4187   -2.0471   17.1499 O.3     1  UNL1       -0.5039
     28 C           4.7043   -3.8861   18.9627 C.ar    1  UNL1        0.1354
     29 N           5.5176   -4.5228   20.0504 N.ar    1  UNL1       -0.2375
     30 H           4.7484   -1.2960   16.6969 H       1  UNL1        0.2923
@<TRIPOS>UNITY_ATOM_ATTR
15 1
charge -1
@<TRIPOS>BOND
     1     1     2    1
     2     2     3    1
     3     2    17    1
     4    17    18    1
     5    18    19   ar
     6    19    20   ar
     7    20    23    1
     8    23    24   ar
     9    24    25   ar
    10    25    26   ar
    11    26    27    1
    12    26    28   ar
    13    28    29   ar
    14    20    21   ar
    15    21    22   ar
    16     2     4    1
    17     4     5    2
    18     4     6   am
    19     6     8    1
    20     8     9    2
    21     9    14    1
    22    14    15   ar
    23    14    16   ar
    24     9    10    1
    25    10    11    1
    26    11    12    1
    27    12    13    1
    28    22    18   ar
    29    13     8    1
    30    29    23   ar
    31    27    30    1
    32     6     7    1
