@<TRIPOS>MOLECULE
*****
 23 26 0 0 0
SMALL
GASTEIGER

@<TRIPOS>ATOM
      1 C          -6.6220  -20.2279   20.7651 C.ar    1  UNL1        0.1387
      2 C          -7.2748  -20.2281   19.4146 C.ar    1  UNL1        0.0366
      3 C          -8.6612  -19.6790   19.2516 C.ar    1  UNL1       -0.0014
      4 C          -9.3947  -19.1297   20.4393 C.ar    1  UNL1       -0.0245
      5 C          -8.7419  -19.1296   21.7896 C.ar    1  UNL1       -0.0217
      6 C          -7.3555  -19.6786   21.9526 C.ar    1  UNL1        0.0324
      7 C          -9.2917  -18.6337   23.0942 C.3     1  UNL1        0.0434
      8 C         -10.6302  -18.0154   23.3704 C.3     1  UNL1        0.0768
      9 N         -11.7493  -17.7405   22.4104 N.3     1  UNL1       -0.2721
     10 C         -11.8066  -18.0158   20.9369 C.3     1  UNL1        0.0768
     11 C         -10.7586  -18.6340   20.0597 C.3     1  UNL1        0.0433
     12 O          -5.2357  -20.7770   20.9280 O.3     1  UNL1       -0.4707
     13 C          -4.1222  -20.2723   20.0588 C.3     1  UNL1        0.2320
     14 C          -1.7961  -16.6180   21.2776 C.ar    1  UNL1       -0.0000
     15 C          -1.6931  -17.1392   19.8749 C.ar    1  UNL1       -0.0002
     16 C          -2.4685  -18.3573   19.4686 C.ar    1  UNL1       -0.0007
     17 C          -3.3468  -19.0542   20.4650 C.ar    1  UNL1        0.0212
     18 C          -3.4497  -18.5330   21.8677 C.ar    1  UNL1       -0.0007
     19 C          -2.6744  -17.3149   22.2741 C.ar    1  UNL1       -0.0002
     20 C         -12.9733  -17.1064   23.0019 C.3     1  UNL1        0.0721
     21 C         -13.7923  -17.8547   24.0115 C.3     1  UNL1        0.0160
     22 C         -15.0823  -18.5072   24.4114 C.3     1  UNL1        0.0014
     23 C         -13.9208  -18.4983   25.3604 C.3     1  UNL1        0.0014
@<TRIPOS>BOND
     1    14    15   ar
     2    15    16   ar
     3    16    17   ar
     4    17    13    1
     5    13    12    1
     6    12     1    1
     7     1     2   ar
     8     2     3   ar
     9     3     4   ar
    10     4     5   ar
    11     5     6   ar
    12     5     7    1
    13     7     8    1
    14     8     9    1
    15     9    20    1
    16    20    21    1
    17    21    22    1
    18    22    23    1
    19     9    10    1
    20    10    11    1
    21    17    18   ar
    22    18    19   ar
    23    19    14   ar
    24     6     1   ar
    25    23    21    1
    26    11     4    1
@<TRIPOS>MOLECULE
*****
 23 26 0 0 0
SMALL
GASTEIGER

@<TRIPOS>ATOM
      1 C          -8.6911  -16.2869   23.9316 C.ar    1  UNL1        0.1387
      2 C          -7.8020  -15.2480   24.5483 C.ar    1  UNL1        0.0366
      3 C          -6.3152  -15.3304   24.3677 C.ar    1  UNL1       -0.0014
      4 C          -5.7175  -16.4517   23.5704 C.ar    1  UNL1       -0.0245
      5 C          -6.6066  -17.4904   22.9538 C.ar    1  UNL1       -0.0217
      6 C          -8.0934  -17.4081   23.1343 C.ar    1  UNL1        0.0324
      7 C          -6.2201  -18.6814   22.1278 C.3     1  UNL1        0.0434
      8 C          -4.8488  -19.1277   21.7146 C.3     1  UNL1        0.0768
      9 N          -3.5257  -18.4933   22.0253 N.3     1  UNL1       -0.2721
     10 C          -3.2468  -17.2558   22.8259 C.3     1  UNL1        0.0768
     11 C          -4.2222  -16.3472   23.5135 C.3     1  UNL1        0.0433
     12 O         -10.1779  -16.2044   24.1122 O.3     1  UNL1       -0.4707
     13 C         -11.0861  -16.3392   22.9260 C.3     1  UNL1        0.2320
     14 C         -10.7743  -19.9450   20.2519 C.ar    1  UNL1       -0.0000
     15 C         -11.0505  -20.1187   21.7159 C.ar    1  UNL1       -0.0002
     16 C         -11.1545  -18.9168   22.6073 C.ar    1  UNL1       -0.0007
     17 C         -10.9822  -17.5412   22.0346 C.ar    1  UNL1        0.0212
     18 C         -10.7059  -17.3675   20.5706 C.ar    1  UNL1       -0.0007
     19 C         -10.6020  -18.5694   19.6792 C.ar    1  UNL1       -0.0002
     20 C          -2.3222  -19.1882   21.4607 C.3     1  UNL1        0.0721
     21 C          -1.5362  -18.5478   20.3551 C.3     1  UNL1        0.0160
     22 C          -0.2298  -18.0564   19.8061 C.3     1  UNL1        0.0014
     23 C          -1.4815  -17.9300   18.9893 C.3     1  UNL1        0.0014
@<TRIPOS>BOND
     1    14    15   ar
     2    15    16   ar
     3    16    17   ar
     4    17    13    1
     5    13    12    1
     6    12     1    1
     7     1     2   ar
     8     2     3   ar
     9     3     4   ar
    10     4     5   ar
    11     5     6   ar
    12     5     7    1
    13     7     8    1
    14     8     9    1
    15     9    20    1
    16    20    21    1
    17    21    22    1
    18    22    23    1
    19     9    10    1
    20    10    11    1
    21    17    18   ar
    22    18    19   ar
    23    19    14   ar
    24     6     1   ar
    25    23    21    1
    26    11     4    1
@<TRIPOS>MOLECULE
*****
 23 26 0 0 0
SMALL
GASTEIGER

@<TRIPOS>ATOM
      1 C          -6.4346  -19.8101   20.6172 C.ar    1  UNL1        0.1387
      2 C          -5.9109  -18.9874   21.7569 C.ar    1  UNL1        0.0366
      3 C          -6.8588  -18.1950   22.6076 C.ar    1  UNL1       -0.0014
      4 C          -8.3304  -18.2254   22.3186 C.ar    1  UNL1       -0.0245
      5 C          -8.8540  -19.0480   21.1789 C.ar    1  UNL1       -0.0217
      6 C          -7.9062  -19.8404   20.3282 C.ar    1  UNL1        0.0324
      7 C         -10.2727  -19.2171   20.7218 C.3     1  UNL1        0.0434
      8 C         -11.5181  -18.6050   21.2917 C.3     1  UNL1        0.0768
      9 N         -11.6523  -17.6730   22.4591 N.3     1  UNL1       -0.2721
     10 C         -10.5744  -17.1226   23.3453 C.3     1  UNL1        0.0768
     11 C          -9.0960  -17.3684   23.2827 C.3     1  UNL1        0.0433
     12 O          -5.4867  -20.6024   19.7665 O.3     1  UNL1       -0.4707
     13 C          -4.0505  -20.7435   20.1759 C.3     1  UNL1        0.2320
     14 C          -1.3616  -17.1356   20.2298 C.ar    1  UNL1       -0.0000
     15 C          -1.4000  -18.0601   21.4104 C.ar    1  UNL1       -0.0002
     16 C          -2.2963  -19.2627   21.3924 C.ar    1  UNL1       -0.0007
     17 C          -3.1542  -19.5408   20.1938 C.ar    1  UNL1        0.0212
     18 C          -3.1158  -18.6164   19.0133 C.ar    1  UNL1       -0.0007
     19 C          -2.2195  -17.4138   19.0312 C.ar    1  UNL1       -0.0002
     20 C         -13.0491  -17.2330   22.7835 C.3     1  UNL1        0.0721
     21 C         -13.8045  -17.8952   23.8975 C.3     1  UNL1        0.0160
     22 C         -15.0803  -18.4651   24.4428 C.3     1  UNL1        0.0014
     23 C         -13.8369  -18.4721   25.2817 C.3     1  UNL1        0.0014
@<TRIPOS>BOND
     1    14    15   ar
     2    15    16   ar
     3    16    17   ar
     4    17    13    1
     5    13    12    1
     6    12     1    1
     7     1     2   ar
     8     2     3   ar
     9     3     4   ar
    10     4     5   ar
    11     5     6   ar
    12     5     7    1
    13     7     8    1
    14     8     9    1
    15     9    20    1
    16    20    21    1
    17    21    22    1
    18    22    23    1
    19     9    10    1
    20    10    11    1
    21    17    18   ar
    22    18    19   ar
    23    19    14   ar
    24     6     1   ar
    25    23    21    1
    26    11     4    1
@<TRIPOS>MOLECULE
*****
 23 26 0 0 0
SMALL
GASTEIGER

@<TRIPOS>ATOM
      1 C         -11.4013   -6.9841   18.4694 C.ar    1  UNL1        0.1387
      2 C         -11.4500   -7.4556   17.0462 C.ar    1  UNL1        0.0366
      3 C         -12.7726   -7.6650   16.3703 C.ar    1  UNL1       -0.0014
      4 C         -14.0466   -7.4029   17.1177 C.ar    1  UNL1       -0.0245
      5 C         -13.9978   -6.9315   18.5408 C.ar    1  UNL1       -0.0217
      6 C         -12.6752   -6.7221   19.2167 C.ar    1  UNL1        0.0324
      7 C         -15.1395   -6.6138   19.4604 C.3     1  UNL1        0.0434
      8 C         -16.6120   -6.6891   19.1839 C.3     1  UNL1        0.0768
      9 N         -17.3062   -7.1006   17.9197 N.3     1  UNL1       -0.2721
     10 C         -16.6997   -7.5386   16.6195 C.3     1  UNL1        0.0768
     11 C         -15.2490   -7.6731   16.2626 C.3     1  UNL1        0.0433
     12 O         -10.0786   -6.7748   19.1452 O.3     1  UNL1       -0.4707
     13 C          -9.5498   -5.3853   19.3442 C.3     1  UNL1        0.2320
     14 C         -10.4484   -2.1805   16.3158 C.ar    1  UNL1       -0.0000
     15 C         -11.1603   -2.1855   17.6360 C.ar    1  UNL1       -0.0002
     16 C         -10.8608   -3.2537   18.6455 C.ar    1  UNL1       -0.0007
     17 C          -9.8494   -4.3170   18.3347 C.ar    1  UNL1        0.0212
     18 C          -9.1375   -4.3119   17.0145 C.ar    1  UNL1       -0.0007
     19 C          -9.4370   -3.2437   16.0049 C.ar    1  UNL1       -0.0002
     20 C         -18.8053   -7.0702   17.9609 C.3     1  UNL1        0.0721
     21 C         -19.5389   -7.7504   19.0787 C.3     1  UNL1        0.0160
     22 C         -20.0187   -7.7623   20.4997 C.3     1  UNL1        0.0014
     23 C         -20.3296   -8.9165   19.5935 C.3     1  UNL1        0.0014
@<TRIPOS>BOND
     1    14    15   ar
     2    15    16   ar
     3    16    17   ar
     4    17    13    1
     5    13    12    1
     6    12     1    1
     7     1     2   ar
     8     2     3   ar
     9     3     4   ar
    10     4     5   ar
    11     5     6   ar
    12     5     7    1
    13     7     8    1
    14     8     9    1
    15     9    20    1
    16    20    21    1
    17    21    22    1
    18    22    23    1
    19     9    10    1
    20    10    11    1
    21    17    18   ar
    22    18    19   ar
    23    19    14   ar
    24     6     1   ar
    25    23    21    1
    26    11     4    1
@<TRIPOS>MOLECULE
*****
 23 26 0 0 0
SMALL
GASTEIGER

@<TRIPOS>ATOM
      1 C         -13.1597   -3.4769   19.4337 C.ar    1  UNL1        0.1387
      2 C         -14.2295   -2.4280   19.5064 C.ar    1  UNL1        0.0366
      3 C         -15.6736   -2.8315   19.5511 C.ar    1  UNL1       -0.0014
      4 C         -16.0477   -4.2839   19.5232 C.ar    1  UNL1       -0.0245
      5 C         -14.9779   -5.3326   19.4505 C.ar    1  UNL1       -0.0217
      6 C         -13.5339   -4.9292   19.4058 C.ar    1  UNL1        0.0324
      7 C         -15.1315   -6.8243   19.4127 C.3     1  UNL1        0.0434
      8 C         -16.3931   -7.6355   19.4383 C.3     1  UNL1        0.0768
      9 N         -17.8123   -7.1554   19.5080 N.3     1  UNL1       -0.2721
     10 C         -18.3208   -5.7455   19.5693 C.3     1  UNL1        0.0768
     11 C         -17.5355   -4.4676   19.5760 C.3     1  UNL1        0.0433
     12 O         -11.7157   -3.0734   19.3890 O.3     1  UNL1       -0.4707
     13 C         -10.8275   -3.5854   18.2941 C.3     1  UNL1        0.2320
     14 C         -10.1457   -8.0096   17.8337 C.ar    1  UNL1       -0.0000
     15 C         -11.0224   -7.2805   16.8593 C.ar    1  UNL1       -0.0002
     16 C         -11.2497   -5.8058   17.0127 C.ar    1  UNL1       -0.0007
     17 C         -10.6002   -5.0602   18.1406 C.ar    1  UNL1        0.0212
     18 C          -9.7234   -5.7893   19.1151 C.ar    1  UNL1       -0.0007
     19 C          -9.4962   -7.2640   18.9617 C.ar    1  UNL1       -0.0002
     20 C         -18.8621   -8.2268   19.5176 C.3     1  UNL1        0.0721
     21 C         -18.7193   -9.4249   18.6263 C.3     1  UNL1        0.0160
     22 C         -19.2504  -10.2976   17.5282 C.3     1  UNL1        0.0014
     23 C         -17.9407  -10.6271   18.1809 C.3     1  UNL1        0.0014
@<TRIPOS>BOND
     1    14    15   ar
     2    15    16   ar
     3    16    17   ar
     4    17    13    1
     5    13    12    1
     6    12     1    1
     7     1     2   ar
     8     2     3   ar
     9     3     4   ar
    10     4     5   ar
    11     5     6   ar
    12     5     7    1
    13     7     8    1
    14     8     9    1
    15     9    20    1
    16    20    21    1
    17    21    22    1
    18    22    23    1
    19     9    10    1
    20    10    11    1
    21    17    18   ar
    22    18    19   ar
    23    19    14   ar
    24     6     1   ar
    25    23    21    1
    26    11     4    1
@<TRIPOS>MOLECULE
*****
 23 26 0 0 0
SMALL
GASTEIGER

@<TRIPOS>ATOM
      1 C           4.5634    1.1499   35.5474 C.ar    1  UNL1        0.1387
      2 C           5.1678   -0.1917   35.2564 C.ar    1  UNL1        0.0366
      3 C           4.8155   -0.9143   33.9900 C.ar    1  UNL1       -0.0014
      4 C           3.8587   -0.2952   33.0146 C.ar    1  UNL1       -0.0245
      5 C           3.2543    1.0463   33.3056 C.ar    1  UNL1       -0.0217
      6 C           3.6066    1.7690   34.5719 C.ar    1  UNL1        0.0324
      7 C           2.2865    1.8361   32.4751 C.3     1  UNL1        0.0434
      8 C           1.6841    1.4792   31.1485 C.3     1  UNL1        0.0768
      9 N           1.9008    0.2446   30.3248 N.3     1  UNL1       -0.2721
     10 C           2.7733   -0.9383   30.6242 C.3     1  UNL1        0.0768
     11 C           3.6447   -1.1786   31.8213 C.3     1  UNL1        0.0433
     12 O           4.9158    1.8725   36.8137 O.3     1  UNL1       -0.4707
     13 C           3.9205    2.7953   37.4525 C.3     1  UNL1        0.2320
     14 C           0.3619    1.1077   39.6294 C.ar    1  UNL1       -0.0000
     15 C           1.5744    0.2550   39.4000 C.ar    1  UNL1       -0.0002
     16 C           2.7606    0.8174   38.6743 C.ar    1  UNL1       -0.0007
     17 C           2.7343    2.2327   38.1781 C.ar    1  UNL1        0.0212
     18 C           1.5218    3.0855   38.4076 C.ar    1  UNL1       -0.0007
     19 C           0.3356    2.5231   39.1332 C.ar    1  UNL1       -0.0002
     20 C           1.1450    0.1847   29.0305 C.3     1  UNL1        0.0721
     21 C          -0.3355   -0.0568   29.0369 C.3     1  UNL1        0.0160
     22 C          -1.5160   -0.8987   28.6529 C.3     1  UNL1        0.0014
     23 C          -1.7191    0.3669   29.4320 C.3     1  UNL1        0.0014
@<TRIPOS>BOND
     1    14    15   ar
     2    15    16   ar
     3    16    17   ar
     4    17    13    1
     5    13    12    1
     6    12     1    1
     7     1     2   ar
     8     2     3   ar
     9     3     4   ar
    10     4     5   ar
    11     5     6   ar
    12     5     7    1
    13     7     8    1
    14     8     9    1
    15     9    20    1
    16    20    21    1
    17    21    22    1
    18    22    23    1
    19     9    10    1
    20    10    11    1
    21    17    18   ar
    22    18    19   ar
    23    19    14   ar
    24     6     1   ar
    25    23    21    1
    26    11     4    1
@<TRIPOS>MOLECULE
*****
 23 26 0 0 0
SMALL
GASTEIGER

@<TRIPOS>ATOM
      1 C          -9.7849   -4.6508   18.3932 C.ar    1  UNL1        0.1387
      2 C          -9.1637   -4.3603   17.0592 C.ar    1  UNL1        0.0366
      3 C          -9.5467   -3.1199   16.3076 C.ar    1  UNL1       -0.0014
      4 C         -10.5509   -2.1700   16.8902 C.ar    1  UNL1       -0.0245
      5 C         -11.1720   -2.4605   18.2242 C.ar    1  UNL1       -0.0217
      6 C         -10.7891   -3.7008   18.9758 C.ar    1  UNL1        0.0324
      7 C         -12.1855   -1.6530   18.9797 C.3     1  UNL1        0.0434
      8 C         -12.8281   -0.3554   18.5877 C.3     1  UNL1        0.0768
      9 N         -12.6159    0.4549   17.3435 N.3     1  UNL1       -0.2721
     10 C         -11.7087    0.1680   16.1838 C.3     1  UNL1        0.0768
     11 C         -10.7897   -1.0003   15.9821 C.3     1  UNL1        0.0433
     12 O          -9.4019   -5.8911   19.1447 O.3     1  UNL1       -0.4707
     13 C          -9.9932   -7.2145   18.7587 C.3     1  UNL1        0.2320
     14 C         -14.0418   -7.3849   16.8016 C.ar    1  UNL1       -0.0000
     15 C         -13.9276   -7.0606   18.2616 C.ar    1  UNL1       -0.0002
     16 C         -12.5781   -7.0038   18.9140 C.ar    1  UNL1       -0.0007
     17 C         -11.3428   -7.2713   18.1063 C.ar    1  UNL1        0.0212
     18 C         -11.4570   -7.5956   16.6463 C.ar    1  UNL1       -0.0007
     19 C         -12.8064   -7.6524   15.9939 C.ar    1  UNL1       -0.0002
     20 C         -13.4167    1.7194   17.2459 C.3     1  UNL1        0.0721
     21 C         -14.5478    1.9665   18.1998 C.3     1  UNL1        0.0160
     22 C         -15.6543    1.4425   19.0662 C.3     1  UNL1        0.0014
     23 C         -15.4000    2.9186   18.9855 C.3     1  UNL1        0.0014
@<TRIPOS>BOND
     1    14    15   ar
     2    15    16   ar
     3    16    17   ar
     4    17    13    1
     5    13    12    1
     6    12     1    1
     7     1     2   ar
     8     2     3   ar
     9     3     4   ar
    10     4     5   ar
    11     5     6   ar
    12     5     7    1
    13     7     8    1
    14     8     9    1
    15     9    20    1
    16    20    21    1
    17    21    22    1
    18    22    23    1
    19     9    10    1
    20    10    11    1
    21    17    18   ar
    22    18    19   ar
    23    19    14   ar
    24     6     1   ar
    25    23    21    1
    26    11     4    1
@<TRIPOS>MOLECULE
*****
 23 26 0 0 0
SMALL
GASTEIGER

@<TRIPOS>ATOM
      1 C         -12.4006   -6.3283   18.6529 C.ar    1  UNL1        0.1387
      2 C         -10.9831   -5.8905   18.8745 C.ar    1  UNL1        0.0366
      3 C         -10.6424   -4.4297   18.8856 C.ar    1  UNL1       -0.0014
      4 C         -11.7193   -3.4068   18.6751 C.ar    1  UNL1       -0.0245
      5 C         -13.1366   -3.8447   18.4535 C.ar    1  UNL1       -0.0217
      6 C         -13.4774   -5.3054   18.4424 C.ar    1  UNL1        0.0324
      7 C         -14.3527   -2.9966   18.2254 C.3     1  UNL1        0.0434
      8 C         -14.4516   -1.5011   18.1624 C.3     1  UNL1        0.0768
      9 N         -13.3590   -0.4846   18.3121 N.3     1  UNL1       -0.2721
     10 C         -11.8975   -0.7122   18.5617 C.3     1  UNL1        0.0768
     11 C         -11.1677   -2.0127   18.7233 C.3     1  UNL1        0.0433
     12 O         -12.7412   -7.7891   18.6418 O.3     1  UNL1       -0.4707
     13 C         -13.8469   -8.2947   17.7632 C.3     1  UNL1        0.2320
     14 C         -17.6800   -9.7752   19.5975 C.ar    1  UNL1       -0.0000
     15 C         -17.1455   -8.4231   19.9660 C.ar    1  UNL1       -0.0002
     16 C         -15.8678   -7.9295   19.3546 C.ar    1  UNL1       -0.0007
     17 C         -15.1246   -8.7882   18.3746 C.ar    1  UNL1        0.0212
     18 C         -15.6591  -10.1404   18.0061 C.ar    1  UNL1       -0.0007
     19 C         -16.9368  -10.6339   18.6175 C.ar    1  UNL1       -0.0002
     20 C         -13.7839    0.9494   18.1970 C.3     1  UNL1        0.0721
     21 C         -14.9636    1.4471   18.9786 C.3     1  UNL1        0.0160
     22 C         -16.1751    1.1714   19.8187 C.3     1  UNL1        0.0014
     23 C         -15.7951    2.5851   19.4919 C.3     1  UNL1        0.0014
@<TRIPOS>BOND
     1    14    15   ar
     2    15    16   ar
     3    16    17   ar
     4    17    13    1
     5    13    12    1
     6    12     1    1
     7     1     2   ar
     8     2     3   ar
     9     3     4   ar
    10     4     5   ar
    11     5     6   ar
    12     5     7    1
    13     7     8    1
    14     8     9    1
    15     9    20    1
    16    20    21    1
    17    21    22    1
    18    22    23    1
    19     9    10    1
    20    10    11    1
    21    17    18   ar
    22    18    19   ar
    23    19    14   ar
    24     6     1   ar
    25    23    21    1
    26    11     4    1
@<TRIPOS>MOLECULE
*****
 23 26 0 0 0
SMALL
GASTEIGER

@<TRIPOS>ATOM
      1 C           7.7064   -5.5412   23.5914 C.ar    1  UNL1        0.1387
      2 C           8.5277   -6.7819   23.7811 C.ar    1  UNL1        0.0366
      3 C           8.7564   -7.3265   25.1600 C.ar    1  UNL1       -0.0014
      4 C           8.1637   -6.6301   26.3491 C.ar    1  UNL1       -0.0245
      5 C           7.3425   -5.3894   26.1593 C.ar    1  UNL1       -0.0217
      6 C           7.1138   -4.8449   24.7805 C.ar    1  UNL1        0.0324
      7 C           6.6661   -4.5473   27.2002 C.3     1  UNL1        0.0434
      8 C           6.6440   -4.7380   28.6880 C.3     1  UNL1        0.0768
      9 N           7.2928   -5.8178   29.5021 N.3     1  UNL1       -0.2721
     10 C           8.1239   -6.9737   29.0298 C.3     1  UNL1        0.0768
     11 C           8.5115   -7.3353   27.6266 C.3     1  UNL1        0.0433
     12 O           7.4778   -4.9967   22.2125 O.3     1  UNL1       -0.4707
     13 C           6.9219   -3.6149   22.0345 C.3     1  UNL1        0.2320
     14 C           3.4061   -2.9381   19.3085 C.ar    1  UNL1       -0.0000
     15 C           4.4275   -3.9829   18.9697 C.ar    1  UNL1       -0.0002
     16 C           5.5995   -4.2086   19.8783 C.ar    1  UNL1       -0.0007
     17 C           5.7500   -3.3893   21.1258 C.ar    1  UNL1        0.0212
     18 C           4.7285   -2.3444   21.4646 C.ar    1  UNL1       -0.0007
     19 C           3.5566   -2.1188   20.5560 C.ar    1  UNL1       -0.0002
     20 C           7.0827   -5.7302   30.9847 C.3     1  UNL1        0.0721
     21 C           6.9742   -4.3896   31.6490 C.3     1  UNL1        0.0160
     22 C           7.6127   -3.1136   32.1115 C.3     1  UNL1        0.0014
     23 C           6.1477   -3.3438   32.3370 C.3     1  UNL1        0.0014
@<TRIPOS>BOND
     1    14    15   ar
     2    15    16   ar
     3    16    17   ar
     4    17    13    1
     5    13    12    1
     6    12     1    1
     7     1     2   ar
     8     2     3   ar
     9     3     4   ar
    10     4     5   ar
    11     5     6   ar
    12     5     7    1
    13     7     8    1
    14     8     9    1
    15     9    20    1
    16    20    21    1
    17    21    22    1
    18    22    23    1
    19     9    10    1
    20    10    11    1
    21    17    18   ar
    22    18    19   ar
    23    19    14   ar
    24     6     1   ar
    25    23    21    1
    26    11     4    1
