@<TRIPOS>MOLECULE
*****
 30 34 0 0 0
SMALL
GASTEIGER

@<TRIPOS>ATOM
      1 C         -16.2837   -5.7471   18.9687 C.ar    1  UNL1        0.2014
      2 N         -17.2853   -6.6381   19.6417 N.ar    1  UNL1       -0.2136
      3 C         -16.9853   -8.0538   19.2470 C.ar    1  UNL1        0.0999
      4 C         -17.6397   -9.3555   19.6040 C.ar    1  UNL1        0.0207
      5 C         -17.1070  -10.6411   19.0441 C.ar    1  UNL1        0.0016
      6 C         -15.9200  -10.6250   18.1272 C.ar    1  UNL1        0.0016
      7 C         -15.2657   -9.3233   17.7701 C.ar    1  UNL1        0.0188
      8 C         -15.7983   -8.0378   18.3300 C.ar    1  UNL1        0.0801
      9 N         -15.3647   -6.6121   18.1581 N.ar    1  UNL1       -0.2954
     10 C         -16.0730   -1.2658   19.3201 C.3     1  UNL1        0.0787
     11 C         -15.1630   -2.1264   20.1455 C.3     1  UNL1        0.0414
     12 C         -15.2333   -3.6202   20.0283 C.3     1  UNL1        0.0953
     13 N         -16.2135   -4.2533   19.0859 N.pl3   1  UNL1       -0.2794
     14 C         -17.1234   -3.3927   18.2605 C.3     1  UNL1        0.0953
     15 C         -17.0532   -1.8989   18.3777 C.3     1  UNL1        0.0414
     16 O         -18.0306    0.1960   21.0611 O.2     1  UNL1       -0.2749
     17 C         -16.9815    0.9589   20.3077 C.2     1  UNL1        0.2256
     18 C         -16.9113    2.4527   20.4248 C.3     1  UNL1        0.0853
     19 C         -15.8622    3.2155   19.6715 C.3     1  UNL1        0.0113
     20 C         -14.8834    2.4846   18.8011 C.3     1  UNL1        0.0220
     21 C         -14.9537    0.9908   18.6840 C.3     1  UNL1        0.0933
     22 N         -16.0027    0.2280   19.4373 N.am    1  UNL1       -0.2811
     23 C         -14.2141   -6.1353   17.3222 C.3     1  UNL1        0.1354
     24 C         -12.8403   -6.0472   17.9176 C.ar    1  UNL1        0.0006
     25 C         -11.9914   -7.2788   18.0305 C.ar    1  UNL1       -0.0001
     26 C         -10.6175   -7.1909   18.6259 C.ar    1  UNL1        0.0294
     27 C         -10.0923   -5.8712   19.1085 C.ar    1  UNL1        0.1401
     28 F          -8.7184   -5.7832   19.7039 F       1  UNL1       -0.2042
     29 C         -10.9411   -4.6397   18.9956 C.ar    1  UNL1        0.0294
     30 C         -12.3151   -4.7276   18.4002 C.ar    1  UNL1       -0.0001
@<TRIPOS>BOND
     1    16    17    2
     2    17    18    1
     3    18    19    1
     4    19    20    1
     5    20    21    1
     6    21    22    1
     7    22    10    1
     8    10    11    1
     9    11    12    1
    10    12    13    1
    11    13     1    1
    12     1     2   ar
    13     2     3   ar
    14     3     4   ar
    15     4     5   ar
    16     5     6   ar
    17     6     7   ar
    18     7     8   ar
    19     8     9   ar
    20     9    23    1
    21    23    24    1
    22    24    25   ar
    23    25    26   ar
    24    26    27   ar
    25    27    28    1
    26    27    29   ar
    27    29    30   ar
    28    13    14    1
    29    14    15    1
    30    22    17   am
    31    15    10    1
    32     9     1   ar
    33    30    24   ar
    34     8     3   ar
@<TRIPOS>MOLECULE
*****
 30 34 0 0 0
SMALL
GASTEIGER

@<TRIPOS>ATOM
      1 C         -16.0039   -5.4817   17.8939 C.ar    1  UNL1        0.2014
      2 N         -17.1705   -6.1356   17.2145 N.ar    1  UNL1       -0.2136
      3 C         -17.3095   -7.5238   17.7656 C.ar    1  UNL1        0.0999
      4 C         -18.2804   -8.6283   17.4704 C.ar    1  UNL1        0.0207
      5 C         -18.1707   -9.9369   18.1952 C.ar    1  UNL1        0.0016
      6 C         -17.0901  -10.1410   19.2153 C.ar    1  UNL1        0.0016
      7 C         -16.1191   -9.0364   19.5105 C.ar    1  UNL1        0.0188
      8 C         -16.2288   -7.7278   18.7857 C.ar    1  UNL1        0.0801
      9 N         -15.4220   -6.4658   18.8650 N.ar    1  UNL1       -0.2954
     10 C         -14.5122   -1.3019   17.1498 C.3     1  UNL1        0.0787
     11 C         -15.3101   -1.6050   18.3832 C.3     1  UNL1        0.0414
     12 C         -15.8074   -2.9983   18.6312 C.3     1  UNL1        0.0953
     13 N         -15.5067   -4.0885   17.6459 N.pl3   1  UNL1       -0.2794
     14 C         -14.7087   -3.7854   16.4124 C.3     1  UNL1        0.0953
     15 C         -14.2115   -2.3921   16.1644 C.3     1  UNL1        0.0414
     16 O         -11.7408   -0.5254   17.9964 O.2     1  UNL1       -0.2749
     17 C         -12.6293    0.4796   17.3250 C.2     1  UNL1        0.2256
     18 C         -12.1320    1.8729   17.0770 C.3     1  UNL1        0.0853
     19 C         -13.0204    2.8779   16.4056 C.3     1  UNL1        0.0113
     20 C         -14.4060    2.4896   15.9823 C.3     1  UNL1        0.0220
     21 C         -14.9033    1.0963   16.2303 C.3     1  UNL1        0.0933
     22 N         -14.0149    0.0914   16.9017 N.am    1  UNL1       -0.2811
     23 C         -14.2406   -6.2293   19.7585 C.3     1  UNL1        0.1354
     24 C         -12.8933   -5.9485   19.1620 C.ar    1  UNL1        0.0006
     25 C         -12.3239   -4.5617   19.2150 C.ar    1  UNL1       -0.0001
     26 C         -10.9766   -4.2807   18.6185 C.ar    1  UNL1        0.0294
     27 C         -10.1987   -5.3866   17.9689 C.ar    1  UNL1        0.1401
     28 F          -8.8514   -5.1056   17.3724 F       1  UNL1       -0.2042
     29 C         -10.7680   -6.7733   17.9159 C.ar    1  UNL1        0.0294
     30 C         -12.1153   -7.0542   18.5124 C.ar    1  UNL1       -0.0001
@<TRIPOS>BOND
     1    16    17    2
     2    17    18    1
     3    18    19    1
     4    19    20    1
     5    20    21    1
     6    21    22    1
     7    22    10    1
     8    10    11    1
     9    11    12    1
    10    12    13    1
    11    13     1    1
    12     1     2   ar
    13     2     3   ar
    14     3     4   ar
    15     4     5   ar
    16     5     6   ar
    17     6     7   ar
    18     7     8   ar
    19     8     9   ar
    20     9    23    1
    21    23    24    1
    22    24    25   ar
    23    25    26   ar
    24    26    27   ar
    25    27    28    1
    26    27    29   ar
    27    29    30   ar
    28    13    14    1
    29    14    15    1
    30    22    17   am
    31    15    10    1
    32     9     1   ar
    33    30    24   ar
    34     8     3   ar
@<TRIPOS>MOLECULE
*****
 30 34 0 0 0
SMALL
GASTEIGER

@<TRIPOS>ATOM
      1 C          -1.9412    3.0047   21.0667 C.ar    1  UNL1        0.2014
      2 N          -3.3230    2.9570   20.4850 N.ar    1  UNL1       -0.2136
      3 C          -4.2710    3.5339   21.4942 C.ar    1  UNL1        0.0999
      4 C          -5.7561    3.7433   21.4712 C.ar    1  UNL1        0.0207
      5 C          -6.4454    4.3570   22.6536 C.ar    1  UNL1        0.0016
      6 C          -5.6495    4.7612   23.8591 C.ar    1  UNL1        0.0016
      7 C          -4.1644    4.5518   23.8821 C.ar    1  UNL1        0.0188
      8 C          -3.4752    3.9381   22.6996 C.ar    1  UNL1        0.0801
      9 N          -2.0353    3.6111   22.4354 N.ar    1  UNL1       -0.2954
     10 C           1.8249    1.5790   19.0583 C.3     1  UNL1        0.0787
     11 C           1.0478    2.7199   18.4716 C.3     1  UNL1        0.0414
     12 C          -0.2076    3.1951   19.1410 C.3     1  UNL1        0.0953
     13 N          -0.6858    2.5295   20.3972 N.pl3   1  UNL1       -0.2794
     14 C           0.0913    1.3886   20.9840 C.3     1  UNL1        0.0953
     15 C           1.3467    0.9133   20.3146 C.3     1  UNL1        0.0414
     16 O           4.3395    3.2028   19.2601 O.2     1  UNL1       -0.2749
     17 C           4.3376    1.9156   18.4897 C.2     1  UNL1        0.2256
     18 C           5.5929    1.4404   17.8203 C.3     1  UNL1        0.0853
     19 C           5.5911    0.1533   17.0500 C.3     1  UNL1        0.0113
     20 C           4.3339   -0.6585   16.9492 C.3     1  UNL1        0.0220
     21 C           3.0785   -0.1833   17.6186 C.3     1  UNL1        0.0933
     22 N           3.0803    1.1038   18.3889 N.am    1  UNL1       -0.2811
     23 C          -0.8904    3.8487   23.3751 C.3     1  UNL1        0.1354
     24 C          -0.7337    2.9939   24.5976 C.ar    1  UNL1        0.0006
     25 C          -1.4789    3.3372   25.8534 C.ar    1  UNL1       -0.0001
     26 C          -1.3222    2.4825   27.0760 C.ar    1  UNL1        0.0294
     27 C          -0.4202    1.2843   27.0428 C.ar    1  UNL1        0.1401
     28 F          -0.2635    0.4296   28.2655 F       1  UNL1       -0.2042
     29 C           0.3250    0.9411   25.7871 C.ar    1  UNL1        0.0294
     30 C           0.1682    1.7958   24.5645 C.ar    1  UNL1       -0.0001
@<TRIPOS>BOND
     1    16    17    2
     2    17    18    1
     3    18    19    1
     4    19    20    1
     5    20    21    1
     6    21    22    1
     7    22    10    1
     8    10    11    1
     9    11    12    1
    10    12    13    1
    11    13     1    1
    12     1     2   ar
    13     2     3   ar
    14     3     4   ar
    15     4     5   ar
    16     5     6   ar
    17     6     7   ar
    18     7     8   ar
    19     8     9   ar
    20     9    23    1
    21    23    24    1
    22    24    25   ar
    23    25    26   ar
    24    26    27   ar
    25    27    28    1
    26    27    29   ar
    27    29    30   ar
    28    13    14    1
    29    14    15    1
    30    22    17   am
    31    15    10    1
    32     9     1   ar
    33    30    24   ar
    34     8     3   ar
@<TRIPOS>MOLECULE
*****
 30 34 0 0 0
SMALL
GASTEIGER

@<TRIPOS>ATOM
      1 C           7.5229   -1.2899   19.8747 C.ar    1  UNL1        0.2014
      2 N           8.6119   -0.2951   19.6021 N.ar    1  UNL1       -0.2136
      3 C           8.2205    0.5011   18.3926 C.ar    1  UNL1        0.0999
      4 C           8.9040    1.6188   17.6624 C.ar    1  UNL1        0.0207
      5 C           8.2565    2.2339   16.4573 C.ar    1  UNL1        0.0016
      6 C           6.9255    1.7312   15.9823 C.ar    1  UNL1        0.0016
      7 C           6.2419    0.6134   16.7126 C.ar    1  UNL1        0.0188
      8 C           6.8894   -0.0016   17.9177 C.ar    1  UNL1        0.0801
      9 N           6.4583   -1.1085   18.8337 N.ar    1  UNL1       -0.2954
     10 C           7.4604   -4.2913   23.2269 C.3     1  UNL1        0.0787
     11 C           8.7324   -3.5725   22.8874 C.3     1  UNL1        0.0414
     12 C           8.7532   -2.5721   21.7700 C.3     1  UNL1        0.0953
     13 N           7.5020   -2.2904   20.9921 N.pl3   1  UNL1       -0.2794
     14 C           6.2300   -3.0092   21.3316 C.3     1  UNL1        0.0953
     15 C           6.2092   -4.0097   22.4490 C.3     1  UNL1        0.0414
     16 O           8.5407   -7.0551   22.7861 O.2     1  UNL1       -0.2749
     17 C           7.9797   -6.6737   24.1239 C.2     1  UNL1        0.2256
     18 C           7.9589   -7.6742   25.2413 C.3     1  UNL1        0.0853
     19 C           7.3979   -7.2928   26.5791 C.3     1  UNL1        0.0113
     20 C           6.8577   -5.9109   26.7996 C.3     1  UNL1        0.0220
     21 C           6.8786   -4.9104   25.6821 C.3     1  UNL1        0.0933
     22 N           7.4396   -5.2918   24.3443 N.am    1  UNL1       -0.2811
     23 C           5.1859   -1.8958   18.7273 C.3     1  UNL1        0.1354
     24 C           3.8710   -1.2406   19.0297 C.ar    1  UNL1        0.0006
     25 C           3.1873   -1.5002   20.3394 C.ar    1  UNL1       -0.0001
     26 C           1.8723   -0.8450   20.6419 C.ar    1  UNL1        0.0294
     27 C           1.2410    0.0699   19.6347 C.ar    1  UNL1        0.1401
     28 F          -0.0740    0.7251   19.9372 F       1  UNL1       -0.2042
     29 C           1.9246    0.3295   18.3251 C.ar    1  UNL1        0.0294
     30 C           3.2396   -0.3257   18.0225 C.ar    1  UNL1       -0.0001
@<TRIPOS>BOND
     1    16    17    2
     2    17    18    1
     3    18    19    1
     4    19    20    1
     5    20    21    1
     6    21    22    1
     7    22    10    1
     8    10    11    1
     9    11    12    1
    10    12    13    1
    11    13     1    1
    12     1     2   ar
    13     2     3   ar
    14     3     4   ar
    15     4     5   ar
    16     5     6   ar
    17     6     7   ar
    18     7     8   ar
    19     8     9   ar
    20     9    23    1
    21    23    24    1
    22    24    25   ar
    23    25    26   ar
    24    26    27   ar
    25    27    28    1
    26    27    29   ar
    27    29    30   ar
    28    13    14    1
    29    14    15    1
    30    22    17   am
    31    15    10    1
    32     9     1   ar
    33    30    24   ar
    34     8     3   ar
@<TRIPOS>MOLECULE
*****
 30 34 0 0 0
SMALL
GASTEIGER

@<TRIPOS>ATOM
      1 C           7.2867   -4.6411   23.8220 C.ar    1  UNL1        0.2014
      2 N           7.6019   -6.1035   23.7118 N.ar    1  UNL1       -0.2136
      3 C           8.2714   -6.5306   24.9844 C.ar    1  UNL1        0.0999
      4 C           8.8040   -7.8559   25.4425 C.ar    1  UNL1        0.0207
      5 C           9.4351   -7.9827   26.7973 C.ar    1  UNL1        0.0016
      6 C           9.5335   -6.7843   27.6940 C.ar    1  UNL1        0.0016
      7 C           9.0009   -5.4590   27.2359 C.ar    1  UNL1        0.0188
      8 C           8.3698   -5.3322   25.8811 C.ar    1  UNL1        0.0801
      9 N           7.7613   -4.1645   25.1627 N.ar    1  UNL1       -0.2954
     10 C           5.2710   -2.1259   20.6819 C.3     1  UNL1        0.0787
     11 C           6.7488   -2.0024   20.9069 C.3     1  UNL1        0.0414
     12 C           7.4207   -2.8408   21.9537 C.3     1  UNL1        0.0953
     13 N           6.6148   -3.8027   22.7753 N.pl3   1  UNL1       -0.2794
     14 C           5.1369   -3.9262   22.5502 C.3     1  UNL1        0.0953
     15 C           4.4651   -3.0878   21.5035 C.3     1  UNL1        0.0414
     16 O           5.4995   -2.8747   17.7858 O.2     1  UNL1       -0.2749
     17 C           4.7133   -1.6618   18.1871 C.2     1  UNL1        0.2256
     18 C           4.0415   -0.8234   17.1404 C.3     1  UNL1        0.0853
     19 C           3.2553    0.3894   17.5417 C.3     1  UNL1        0.0113
     20 C           3.1411    0.7638   18.9897 C.3     1  UNL1        0.0220
     21 C           3.8130   -0.0746   20.0364 C.3     1  UNL1        0.0933
     22 N           4.5991   -1.2874   19.6351 N.am    1  UNL1       -0.2811
     23 C           7.6473   -2.7656   25.6921 C.3     1  UNL1        0.1354
     24 C           6.3506   -2.2877   26.2752 C.ar    1  UNL1        0.0006
     25 C           6.1523   -2.2859   27.7621 C.ar    1  UNL1       -0.0001
     26 C           4.8556   -1.8079   28.3453 C.ar    1  UNL1        0.0294
     27 C           3.7572   -1.3317   27.4416 C.ar    1  UNL1        0.1401
     28 F           2.4605   -0.8537   28.0248 F       1  UNL1       -0.2042
     29 C           3.9555   -1.3335   25.9548 C.ar    1  UNL1        0.0294
     30 C           5.2521   -1.8115   25.3716 C.ar    1  UNL1       -0.0001
@<TRIPOS>BOND
     1    16    17    2
     2    17    18    1
     3    18    19    1
     4    19    20    1
     5    20    21    1
     6    21    22    1
     7    22    10    1
     8    10    11    1
     9    11    12    1
    10    12    13    1
    11    13     1    1
    12     1     2   ar
    13     2     3   ar
    14     3     4   ar
    15     4     5   ar
    16     5     6   ar
    17     6     7   ar
    18     7     8   ar
    19     8     9   ar
    20     9    23    1
    21    23    24    1
    22    24    25   ar
    23    25    26   ar
    24    26    27   ar
    25    27    28    1
    26    27    29   ar
    27    29    30   ar
    28    13    14    1
    29    14    15    1
    30    22    17   am
    31    15    10    1
    32     9     1   ar
    33    30    24   ar
    34     8     3   ar
@<TRIPOS>MOLECULE
*****
 30 34 0 0 0
SMALL
GASTEIGER

@<TRIPOS>ATOM
      1 C           6.4523   -2.9995   31.6925 C.ar    1  UNL1        0.2014
      2 N           6.9208   -4.4071   31.9141 N.ar    1  UNL1       -0.2136
      3 C           7.3646   -4.9615   30.5928 C.ar    1  UNL1        0.0999
      4 C           7.9205   -6.2984   30.2010 C.ar    1  UNL1        0.0207
      5 C           8.2820   -6.5703   28.7709 C.ar    1  UNL1        0.0016
      6 C           8.0878   -5.5053   27.7326 C.ar    1  UNL1        0.0016
      7 C           7.5319   -4.1684   28.1244 C.ar    1  UNL1        0.0188
      8 C           7.1703   -3.8965   29.5545 C.ar    1  UNL1        0.0801
      9 N           6.6065   -2.6840   30.2342 N.ar    1  UNL1       -0.2954
     10 C           4.8631   -0.2128   34.8483 C.3     1  UNL1        0.0787
     11 C           6.1816    0.0712   34.1919 C.3     1  UNL1        0.0414
     12 C           6.7113   -0.8577   33.1399 C.3     1  UNL1        0.0953
     13 N           5.9226   -2.0706   32.7444 N.pl3   1  UNL1       -0.2794
     14 C           4.6041   -2.3547   33.4008 C.3     1  UNL1        0.0953
     15 C           4.0744   -1.4258   34.4527 C.3     1  UNL1        0.0414
     16 O           2.8662    1.9021   34.1140 O.2     1  UNL1       -0.2749
     17 C           3.3350    1.7735   35.5331 C.2     1  UNL1        0.2256
     18 C           2.8053    2.7024   36.5850 C.3     1  UNL1        0.0853
     19 C           3.2740    2.5738   38.0040 C.3     1  UNL1        0.0113
     20 C           4.2725    1.5164   38.3711 C.3     1  UNL1        0.0220
     21 C           4.8022    0.5875   37.3192 C.3     1  UNL1        0.0933
     22 N           4.3334    0.7160   35.9002 N.am    1  UNL1       -0.2811
     23 C           6.2580   -1.3840   29.5718 C.3     1  UNL1        0.1354
     24 C           4.8265   -1.0593   29.2636 C.ar    1  UNL1        0.0006
     25 C           3.9188   -0.5646   30.3506 C.ar    1  UNL1       -0.0001
     26 C           2.4872   -0.2399   30.0425 C.ar    1  UNL1        0.0294
     27 C           1.9631   -0.4098   28.6473 C.ar    1  UNL1        0.1401
     28 F           0.5315   -0.0851   28.3392 F       1  UNL1       -0.2042
     29 C           2.8707   -0.9045   27.5604 C.ar    1  UNL1        0.0294
     30 C           4.3023   -1.2292   27.8685 C.ar    1  UNL1       -0.0001
@<TRIPOS>BOND
     1    16    17    2
     2    17    18    1
     3    18    19    1
     4    19    20    1
     5    20    21    1
     6    21    22    1
     7    22    10    1
     8    10    11    1
     9    11    12    1
    10    12    13    1
    11    13     1    1
    12     1     2   ar
    13     2     3   ar
    14     3     4   ar
    15     4     5   ar
    16     5     6   ar
    17     6     7   ar
    18     7     8   ar
    19     8     9   ar
    20     9    23    1
    21    23    24    1
    22    24    25   ar
    23    25    26   ar
    24    26    27   ar
    25    27    28    1
    26    27    29   ar
    27    29    30   ar
    28    13    14    1
    29    14    15    1
    30    22    17   am
    31    15    10    1
    32     9     1   ar
    33    30    24   ar
    34     8     3   ar
@<TRIPOS>MOLECULE
*****
 30 34 0 0 0
SMALL
GASTEIGER

@<TRIPOS>ATOM
      1 C         -15.7627   -4.3059   18.2812 C.ar    1  UNL1        0.2014
      2 N         -16.7534   -5.2742   17.7060 N.ar    1  UNL1       -0.2136
      3 C         -16.1767   -6.6537   17.8259 C.ar    1  UNL1        0.0999
      4 C         -16.7042   -8.0002   17.4278 C.ar    1  UNL1        0.0207
      5 C         -15.8845   -9.2310   17.6790 C.ar    1  UNL1        0.0016
      6 C         -14.5373   -9.1153   18.3283 C.ar    1  UNL1        0.0016
      7 C         -14.0098   -7.7688   18.7264 C.ar    1  UNL1        0.0188
      8 C         -14.8294   -6.5380   18.4753 C.ar    1  UNL1        0.0801
      9 N         -14.5736   -5.0869   18.7566 N.ar    1  UNL1       -0.2954
     10 C         -16.2687    0.1583   18.5357 C.3     1  UNL1        0.0787
     11 C         -16.4789   -0.6910   19.7540 C.3     1  UNL1        0.0414
     12 C         -16.3102   -2.1790   19.6692 C.3     1  UNL1        0.0953
     13 N         -15.9314   -2.8178   18.3660 N.pl3   1  UNL1       -0.2794
     14 C         -15.7212   -1.9685   17.1476 C.3     1  UNL1        0.0953
     15 C         -15.8899   -0.4804   17.2325 C.3     1  UNL1        0.0414
     16 O         -13.8612    1.9280   18.8042 O.2     1  UNL1       -0.2749
     17 C         -15.2337    2.5312   18.7548 C.2     1  UNL1        0.2256
     18 C         -15.4024    4.0193   18.8396 C.3     1  UNL1        0.0853
     19 C         -16.7748    4.6225   18.7902 C.3     1  UNL1        0.0113
     20 C         -17.9786    3.7377   18.6560 C.3     1  UNL1        0.0220
     21 C         -17.8099    2.2496   18.5711 C.3     1  UNL1        0.0933
     22 N         -16.4374    1.6464   18.6205 N.am    1  UNL1       -0.2811
     23 C         -13.3444   -4.5171   19.4003 C.3     1  UNL1        0.1354
     24 C         -12.0723   -4.3990   18.6145 C.ar    1  UNL1        0.0006
     25 C         -10.8993   -5.2715   18.9507 C.ar    1  UNL1       -0.0001
     26 C          -9.6271   -5.1535   18.1649 C.ar    1  UNL1        0.0294
     27 C          -9.5278   -4.1629   17.0428 C.ar    1  UNL1        0.1401
     28 F          -8.2556   -4.0449   16.2570 F       1  UNL1       -0.2042
     29 C         -10.7008   -3.2904   16.7067 C.ar    1  UNL1        0.0294
     30 C         -11.9730   -3.4085   17.4925 C.ar    1  UNL1       -0.0001
@<TRIPOS>BOND
     1    16    17    2
     2    17    18    1
     3    18    19    1
     4    19    20    1
     5    20    21    1
     6    21    22    1
     7    22    10    1
     8    10    11    1
     9    11    12    1
    10    12    13    1
    11    13     1    1
    12     1     2   ar
    13     2     3   ar
    14     3     4   ar
    15     4     5   ar
    16     5     6   ar
    17     6     7   ar
    18     7     8   ar
    19     8     9   ar
    20     9    23    1
    21    23    24    1
    22    24    25   ar
    23    25    26   ar
    24    26    27   ar
    25    27    28    1
    26    27    29   ar
    27    29    30   ar
    28    13    14    1
    29    14    15    1
    30    22    17   am
    31    15    10    1
    32     9     1   ar
    33    30    24   ar
    34     8     3   ar
@<TRIPOS>MOLECULE
*****
 30 34 0 0 0
SMALL
GASTEIGER

@<TRIPOS>ATOM
      1 C          -0.9190    2.5263   20.8971 C.ar    1  UNL1        0.2014
      2 N          -2.1549    2.6436   20.0552 N.ar    1  UNL1       -0.2136
      3 C          -3.1034    3.5740   20.7514 C.ar    1  UNL1        0.0999
      4 C          -4.4747    4.0636   20.3913 C.ar    1  UNL1        0.0207
      5 C          -5.1964    5.0109   21.3033 C.ar    1  UNL1        0.0016
      6 C          -4.5467    5.4686   22.5755 C.ar    1  UNL1        0.0016
      7 C          -3.1754    4.9790   22.9356 C.ar    1  UNL1        0.0188
      8 C          -2.4537    4.0317   22.0236 C.ar    1  UNL1        0.0801
      9 N          -1.1037    3.3842   22.1136 N.ar    1  UNL1       -0.2954
     10 C           2.7063    0.0376   19.9412 C.3     1  UNL1        0.0787
     11 C           1.3911   -0.6285   20.2182 C.3     1  UNL1        0.0414
     12 C           0.1827    0.2011   20.5369 C.3     1  UNL1        0.0953
     13 N           0.2894    1.6967   20.5785 N.pl3   1  UNL1       -0.2794
     14 C           1.6046    2.3627   20.3015 C.3     1  UNL1        0.0953
     15 C           2.8130    1.5331   19.9828 C.3     1  UNL1        0.0414
     16 O           3.3796   -0.5977   17.0876 O.2     1  UNL1       -0.2749
     17 C           4.2514   -1.1096   18.1958 C.2     1  UNL1        0.2256
     18 C           5.4598   -1.9392   17.8771 C.3     1  UNL1        0.0853
     19 C           6.3315   -2.4512   18.9852 C.3     1  UNL1        0.0113
     20 C           5.9948   -2.1335   20.4120 C.3     1  UNL1        0.0220
     21 C           4.7864   -1.3040   20.7306 C.3     1  UNL1        0.0933
     22 N           3.9147   -0.7920   19.6225 N.am    1  UNL1       -0.2811
     23 C          -0.1124    3.5631   23.2251 C.3     1  UNL1        0.1354
     24 C          -0.3714    2.9465   24.5676 C.ar    1  UNL1        0.0006
     25 C          -1.2391    3.6565   25.5643 C.ar    1  UNL1       -0.0001
     26 C          -1.4982    3.0399   26.9069 C.ar    1  UNL1        0.0294
     27 C          -0.8896    1.7132   27.2529 C.ar    1  UNL1        0.1401
     28 F          -1.1487    1.0966   28.5956 F       1  UNL1       -0.2042
     29 C          -0.0220    1.0033   26.2563 C.ar    1  UNL1        0.0294
     30 C           0.2371    1.6199   24.9137 C.ar    1  UNL1       -0.0001
@<TRIPOS>BOND
     1    16    17    2
     2    17    18    1
     3    18    19    1
     4    19    20    1
     5    20    21    1
     6    21    22    1
     7    22    10    1
     8    10    11    1
     9    11    12    1
    10    12    13    1
    11    13     1    1
    12     1     2   ar
    13     2     3   ar
    14     3     4   ar
    15     4     5   ar
    16     5     6   ar
    17     6     7   ar
    18     7     8   ar
    19     8     9   ar
    20     9    23    1
    21    23    24    1
    22    24    25   ar
    23    25    26   ar
    24    26    27   ar
    25    27    28    1
    26    27    29   ar
    27    29    30   ar
    28    13    14    1
    29    14    15    1
    30    22    17   am
    31    15    10    1
    32     9     1   ar
    33    30    24   ar
    34     8     3   ar
@<TRIPOS>MOLECULE
*****
 30 34 0 0 0
SMALL
GASTEIGER

@<TRIPOS>ATOM
      1 C           4.9382   -0.5427   19.5667 C.ar    1  UNL1        0.2014
      2 N           6.2413   -0.3457   18.8505 N.ar    1  UNL1       -0.2136
      3 C           7.1900   -1.4119   19.3123 C.ar    1  UNL1        0.0999
      4 C           8.6139   -1.7139   18.9501 C.ar    1  UNL1        0.0207
      5 C           9.3210   -2.8719   19.5897 C.ar    1  UNL1        0.0016
      6 C           8.6041   -3.7279   20.5914 C.ar    1  UNL1        0.0016
      7 C           7.1802   -3.4259   20.9535 C.ar    1  UNL1        0.0188
      8 C           6.4731   -2.2679   20.3140 C.ar    1  UNL1        0.0801
      9 N           5.0815   -1.7307   20.4712 N.ar    1  UNL1       -0.2954
     10 C           1.2471    1.9861   19.0864 C.3     1  UNL1        0.0787
     11 C           2.4334    2.5243   19.8299 C.3     1  UNL1        0.0414
     12 C           3.6638    1.6814   19.9901 C.3     1  UNL1        0.0953
     13 N           3.7078    0.3002   19.4066 N.pl3   1  UNL1       -0.2794
     14 C           2.5215   -0.2380   18.6630 C.3     1  UNL1        0.0953
     15 C           1.2912    0.6050   18.5029 C.3     1  UNL1        0.0414
     16 O          -0.7755    2.1232   21.2977 O.2     1  UNL1       -0.2749
     17 C          -0.9946    2.8976   20.0319 C.2     1  UNL1        0.2256
     18 C          -2.2249    3.7406   19.8717 C.3     1  UNL1        0.0853
     19 C          -2.4440    4.5150   18.6060 C.3     1  UNL1        0.0113
     20 C          -1.4327    4.4465   17.5003 C.3     1  UNL1        0.0220
     21 C          -0.2023    3.6035   17.6604 C.3     1  UNL1        0.0933
     22 N           0.0168    2.8291   18.9262 N.am    1  UNL1       -0.2811
     23 C           4.0195   -2.2844   21.3744 C.3     1  UNL1        0.1354
     24 C           3.7632   -1.6485   22.7085 C.ar    1  UNL1        0.0006
     25 C           2.7721   -0.5289   22.8277 C.ar    1  UNL1       -0.0001
     26 C           2.5157    0.1071   24.1618 C.ar    1  UNL1        0.0294
     27 C           3.2505   -0.3766   25.3768 C.ar    1  UNL1        0.1401
     28 F           2.9942    0.2593   26.7109 F       1  UNL1       -0.2042
     29 C           4.2416   -1.4962   25.2576 C.ar    1  UNL1        0.0294
     30 C           4.4980   -2.1321   23.9235 C.ar    1  UNL1       -0.0001
@<TRIPOS>BOND
     1    16    17    2
     2    17    18    1
     3    18    19    1
     4    19    20    1
     5    20    21    1
     6    21    22    1
     7    22    10    1
     8    10    11    1
     9    11    12    1
    10    12    13    1
    11    13     1    1
    12     1     2   ar
    13     2     3   ar
    14     3     4   ar
    15     4     5   ar
    16     5     6   ar
    17     6     7   ar
    18     7     8   ar
    19     8     9   ar
    20     9    23    1
    21    23    24    1
    22    24    25   ar
    23    25    26   ar
    24    26    27   ar
    25    27    28    1
    26    27    29   ar
    27    29    30   ar
    28    13    14    1
    29    14    15    1
    30    22    17   am
    31    15    10    1
    32     9     1   ar
    33    30    24   ar
    34     8     3   ar
