@<TRIPOS>MOLECULE
*****
 40 44 0 0 0
SMALL
GASTEIGER

@<TRIPOS>ATOM
      1 C           8.6069   -4.8215   22.8572 C.2     1  UNL1        0.0905
      2 C           8.7431   -6.2675   23.2318 C.2     1  UNL1        0.1173
      3 O           9.0072   -7.2952   22.1716 O.2     1  UNL1       -0.5097
      4 C           8.6152   -6.6858   24.6666 C.3     1  UNL1        0.1035
      5 C           8.3511   -5.6581   25.7268 C.3     1  UNL1        0.1435
      6 O           8.2149   -4.2120   25.3521 O.3     1  UNL1       -0.4524
      7 C           8.3428   -3.7937   23.9173 C.2     1  UNL1        0.3400
      8 O           8.2065   -2.3476   23.5427 O.2     1  UNL1       -0.2451
      9 H           9.0871   -7.0339   21.2754 H       1  UNL1        0.2917
     10 C           8.4017   -6.8967   26.5715 C.3     1  UNL1        0.0372
     11 C           9.3287   -7.1396   27.7254 C.3     1  UNL1        0.0035
     12 C           9.0342   -8.5027   28.2777 C.3     1  UNL1        0.0001
     13 C           7.9251   -9.1023   27.4650 C.3     1  UNL1        0.0001
     14 C           7.5342   -8.1097   26.4105 C.3     1  UNL1        0.0035
     15 C           8.7348   -4.4032   21.4224 C.3     1  UNL1        0.1032
     16 C           3.6770    0.4416   17.8771 C.3     1  UNL1        0.0522
     17 C           4.2652   -0.7960   18.4873 C.ar    1  UNL1        0.0637
     18 C           3.4675   -2.0656   18.5251 C.ar    1  UNL1        0.0296
     19 C           4.0557   -3.3032   19.1354 C.ar    1  UNL1        0.0651
     20 C           3.2578   -4.5729   19.1731 C.3     1  UNL1        0.0523
     21 N           5.4418   -3.2711   19.7078 N.ar    1  UNL1       -0.1994
     22 N           6.2794   -4.3254   20.3688 N.ar    1  UNL1       -0.1476
     23 C           7.5949   -3.7072   20.7396 C.ar    1  UNL1        0.1669
     24 N           7.5703   -2.2710   20.3077 N.ar    1  UNL1       -0.1930
     25 C           6.2396   -2.0014   19.6700 C.ar    1  UNL1        0.2536
     26 N           5.6513   -0.7639   19.0597 N.ar    1  UNL1       -0.2143
     27 C           8.1045   -5.0605   27.0803 C.3     1  UNL1        0.0452
     28 C           6.8249   -4.3275   27.3547 C.3     1  UNL1        0.0300
     29 C           6.5926   -3.7009   28.6975 C.ar    1  UNL1       -0.0199
     30 C           6.2031   -2.2555   28.7935 C.ar    1  UNL1       -0.0044
     31 C           5.9707   -1.6289   30.1363 C.ar    1  UNL1       -0.0014
     32 C           6.1280   -2.4476   31.3833 C.ar    1  UNL1        0.0178
     33 C           6.5175   -3.8929   31.2874 C.ar    1  UNL1        0.1368
     34 F           6.6748   -4.7117   32.5344 F       1  UNL1       -0.2045
     35 C           6.7499   -4.5196   29.9445 C.ar    1  UNL1        0.0251
     36 C           5.8957   -1.8210   32.7263 C.3     1  UNL1        0.1001
     37 C           7.3492   -1.4599   32.8092 C.3     1  UNL1        0.0197
     38 C           4.4421   -2.1821   32.6433 C.3     1  UNL1        0.0197
     39 C           5.6633   -1.1945   34.0692 C.1     1  UNL1        0.0753
     40 N           5.4308   -0.5680   35.4122 N.1     1  UNL1       -0.1956
@<TRIPOS>BOND
     1    16    17    1
     2    17    18   ar
     3    18    19   ar
     4    19    20    1
     5    19    21   ar
     6    21    22   ar
     7    22    23   ar
     8    23    15    1
     9    15     1    1
    10     1     2    2
    11     2     3    1
    12     2     4    1
    13     4     5    1
    14     5    27    1
    15    27    28    1
    16    28    29    1
    17    29    30   ar
    18    30    31   ar
    19    31    32   ar
    20    32    36    1
    21    36    37    1
    22    36    38    1
    23    36    39    1
    24    39    40    3
    25    32    33   ar
    26    33    34    1
    27    33    35   ar
    28     5    10    1
    29    10    11    1
    30    11    12    1
    31    12    13    1
    32    13    14    1
    33     5     6    1
    34     6     7    1
    35     7     8    2
    36    23    24   ar
    37    24    25   ar
    38    25    26   ar
    39    26    17   ar
    40    25    21   ar
    41     7     1    1
    42    35    29   ar
    43    14    10    1
    44     3     9    1
@<TRIPOS>MOLECULE
*****
 40 44 0 0 0
SMALL
GASTEIGER

@<TRIPOS>ATOM
      1 C           7.1810   -3.7255   31.1512 C.2     1  UNL1        0.0905
      2 C           6.9659   -5.1951   30.9416 C.2     1  UNL1        0.1173
      3 O           6.4461   -6.0445   32.0634 O.2     1  UNL1       -0.5097
      4 C           7.2705   -5.8153   29.6102 C.3     1  UNL1        0.1035
      5 C           7.7903   -4.9659   28.4884 C.3     1  UNL1        0.1435
      6 O           8.0054   -3.4963   28.6981 O.3     1  UNL1       -0.4524
      7 C           7.7008   -2.8760   30.0295 C.2     1  UNL1        0.3400
      8 O           7.9160   -1.4064   30.2391 O.2     1  UNL1       -0.2451
      9 H           6.2559   -5.6570   32.8950 H       1  UNL1        0.2917
     10 C           7.7508   -6.3017   27.8071 C.3     1  UNL1        0.0372
     11 C           6.9605   -6.6416   26.5784 C.3     1  UNL1        0.0035
     12 C           7.2159   -8.0820   26.2467 C.3     1  UNL1        0.0001
     13 C           8.1642   -8.6322   27.2705 C.3     1  UNL1        0.0001
     14 C           8.4948   -7.5320   28.2348 C.3     1  UNL1        0.0035
     15 C           6.8765   -3.1053   32.4826 C.3     1  UNL1        0.1032
     16 C           2.1418    2.8711   34.3503 C.3     1  UNL1        0.0522
     17 C           2.7561    1.7314   33.5928 C.ar    1  UNL1        0.0637
     18 C           2.2013    1.3326   32.2576 C.ar    1  UNL1        0.0296
     19 C           2.8156    0.1929   31.5001 C.ar    1  UNL1        0.0651
     20 C           2.2606   -0.2059   30.1648 C.3     1  UNL1        0.0523
     21 N           3.9847   -0.5481   32.0780 N.ar    1  UNL1       -0.1994
     22 N           4.7926   -1.7039   31.5668 N.ar    1  UNL1       -0.1476
     23 C           5.8467   -2.0195   32.5862 C.ar    1  UNL1        0.1669
     24 N           5.6904   -1.0587   33.7274 N.ar    1  UNL1       -0.1930
     25 C           4.5396   -0.1492   33.4134 C.ar    1  UNL1        0.2536
     26 N           3.9253    0.9905   34.1707 N.ar    1  UNL1       -0.2143
     27 C           8.2963   -4.5804   27.1301 C.3     1  UNL1        0.0452
     28 C           7.9364   -3.2463   26.5464 C.3     1  UNL1        0.0300
     29 C           7.5687   -3.1365   25.0964 C.ar    1  UNL1       -0.0199
     30 C           8.5498   -2.5672   24.1149 C.ar    1  UNL1       -0.0044
     31 C           8.1822   -2.4574   22.6648 C.ar    1  UNL1       -0.0014
     32 C           6.8333   -2.9169   22.1962 C.ar    1  UNL1        0.0178
     33 C           5.8522   -3.4862   23.1777 C.ar    1  UNL1        0.1368
     34 F           4.5034   -3.9457   22.7091 F       1  UNL1       -0.2045
     35 C           6.2199   -3.5960   24.6278 C.ar    1  UNL1        0.0251
     36 C           6.4656   -2.8072   20.7462 C.3     1  UNL1        0.1001
     37 C           7.0435   -4.1687   20.4965 C.3     1  UNL1        0.0197
     38 C           5.8876   -1.4457   20.9958 C.3     1  UNL1        0.0197
     39 C           6.0978   -2.6973   19.2961 C.1     1  UNL1        0.0753
     40 N           5.7300   -2.5875   17.8460 N.1     1  UNL1       -0.1956
@<TRIPOS>BOND
     1    16    17    1
     2    17    18   ar
     3    18    19   ar
     4    19    20    1
     5    19    21   ar
     6    21    22   ar
     7    22    23   ar
     8    23    15    1
     9    15     1    1
    10     1     2    2
    11     2     3    1
    12     2     4    1
    13     4     5    1
    14     5    27    1
    15    27    28    1
    16    28    29    1
    17    29    30   ar
    18    30    31   ar
    19    31    32   ar
    20    32    36    1
    21    36    37    1
    22    36    38    1
    23    36    39    1
    24    39    40    3
    25    32    33   ar
    26    33    34    1
    27    33    35   ar
    28     5    10    1
    29    10    11    1
    30    11    12    1
    31    12    13    1
    32    13    14    1
    33     5     6    1
    34     6     7    1
    35     7     8    2
    36    23    24   ar
    37    24    25   ar
    38    25    26   ar
    39    26    17   ar
    40    25    21   ar
    41     7     1    1
    42    35    29   ar
    43    14    10    1
    44     3     9    1
@<TRIPOS>MOLECULE
*****
 40 44 0 0 0
SMALL
GASTEIGER

@<TRIPOS>ATOM
      1 C           7.0497   -3.0832   20.4049 C.2     1  UNL1        0.0905
      2 C           7.3746   -1.6194   20.4457 C.2     1  UNL1        0.1173
      3 O           8.7246   -1.1637   20.9148 O.2     1  UNL1       -0.5097
      4 C           6.3498   -0.6114   20.0174 C.3     1  UNL1        0.1035
      5 C           4.9999   -1.0671   19.5483 C.3     1  UNL1        0.1435
      6 O           4.6749   -2.5310   19.5075 O.3     1  UNL1       -0.4524
      7 C           5.6997   -3.5390   19.9359 C.2     1  UNL1        0.3400
      8 O           5.3747   -5.0028   19.8951 O.2     1  UNL1       -0.2451
      9 H           9.3648   -1.7934   21.1823 H       1  UNL1        0.2917
     10 C           4.8364    0.4175   19.4094 C.3     1  UNL1        0.0372
     11 C           4.3448    1.1401   18.1903 C.3     1  UNL1        0.0035
     12 C           4.3404    2.6093   18.4926 C.3     1  UNL1        0.0001
     13 C           4.8294    2.7947   19.8984 C.3     1  UNL1        0.0001
     14 C           5.1359    1.4401   20.4651 C.3     1  UNL1        0.0035
     15 C           8.0745   -4.0913   20.8333 C.3     1  UNL1        0.1032
     16 C           8.0368   -8.7354   27.1621 C.3     1  UNL1        0.0522
     17 C           7.8712   -7.5276   26.2879 C.ar    1  UNL1        0.0637
     18 C           7.3524   -6.2462   26.8696 C.ar    1  UNL1        0.0296
     19 C           7.1867   -5.0385   25.9955 C.ar    1  UNL1        0.0651
     20 C           6.6678   -3.7569   26.5773 C.3     1  UNL1        0.0523
     21 N           7.5400   -5.1124   24.5396 N.ar    1  UNL1       -0.1994
     22 N           7.4827   -4.0938   23.4399 N.ar    1  UNL1       -0.1476
     23 C           7.9662   -4.7458   22.1786 C.ar    1  UNL1        0.1669
     24 N           8.3223   -6.1674   22.4986 N.ar    1  UNL1       -0.1930
     25 C           8.0589   -6.3939   23.9578 C.ar    1  UNL1        0.2536
     26 N           8.2245   -7.6015   24.8320 N.ar    1  UNL1       -0.2143
     27 C           3.5933   -1.0073   19.0310 C.3     1  UNL1        0.0452
     28 C           2.4462   -1.3468   19.9360 C.3     1  UNL1        0.0300
     29 C           2.2015   -0.5355   21.1735 C.ar    1  UNL1       -0.0199
     30 C           1.3461    0.6948   21.1069 C.ar    1  UNL1       -0.0044
     31 C           1.1014    1.5062   22.3445 C.ar    1  UNL1       -0.0014
     32 C           1.7123    1.0873   23.6489 C.ar    1  UNL1        0.0178
     33 C           2.5677   -0.1430   23.7156 C.ar    1  UNL1        0.1368
     34 F           3.1786   -0.5620   25.0200 F       1  UNL1       -0.2045
     35 C           2.8124   -0.9544   22.4779 C.ar    1  UNL1        0.0251
     36 C           1.4677    1.8986   24.8866 C.3     1  UNL1        0.1001
     37 C           0.2014    1.1345   25.1373 C.3     1  UNL1        0.0197
     38 C           2.7339    2.6628   24.6360 C.3     1  UNL1        0.0197
     39 C           1.2231    2.7100   26.1243 C.1     1  UNL1        0.0753
     40 N           0.9786    3.5215   27.3620 N.1     1  UNL1       -0.1956
@<TRIPOS>BOND
     1    16    17    1
     2    17    18   ar
     3    18    19   ar
     4    19    20    1
     5    19    21   ar
     6    21    22   ar
     7    22    23   ar
     8    23    15    1
     9    15     1    1
    10     1     2    2
    11     2     3    1
    12     2     4    1
    13     4     5    1
    14     5    27    1
    15    27    28    1
    16    28    29    1
    17    29    30   ar
    18    30    31   ar
    19    31    32   ar
    20    32    36    1
    21    36    37    1
    22    36    38    1
    23    36    39    1
    24    39    40    3
    25    32    33   ar
    26    33    34    1
    27    33    35   ar
    28     5    10    1
    29    10    11    1
    30    11    12    1
    31    12    13    1
    32    13    14    1
    33     5     6    1
    34     6     7    1
    35     7     8    2
    36    23    24   ar
    37    24    25   ar
    38    25    26   ar
    39    26    17   ar
    40    25    21   ar
    41     7     1    1
    42    35    29   ar
    43    14    10    1
    44     3     9    1
@<TRIPOS>MOLECULE
*****
 40 44 0 0 0
SMALL
GASTEIGER

@<TRIPOS>ATOM
      1 C           1.3055    0.2928   28.3860 C.2     1  UNL1        0.0905
      2 C          -0.0954    0.8073   28.5372 C.2     1  UNL1        0.1173
      3 O          -0.8748    0.5055   29.7828 O.2     1  UNL1       -0.5097
      4 C          -0.7168    1.6236   27.4430 C.3     1  UNL1        0.1035
      5 C           0.0626    1.9254   26.1974 C.3     1  UNL1        0.1435
      6 O           1.4635    1.4109   26.0462 O.3     1  UNL1       -0.4524
      7 C           2.0850    0.5946   27.1405 C.2     1  UNL1        0.3400
      8 O           3.4858    0.0802   26.9892 O.2     1  UNL1       -0.2451
      9 H          -0.4866   -0.0044   30.4664 H       1  UNL1        0.2917
     10 C          -1.2227    2.6296   25.8775 C.3     1  UNL1        0.0372
     11 C          -2.1774    3.2175   26.8739 C.3     1  UNL1        0.0035
     12 C          -3.3236    3.8208   26.1174 C.3     1  UNL1        0.0001
     13 C          -3.0772    3.6057   24.6535 C.3     1  UNL1        0.0001
     14 C          -1.7788    2.8695   24.5052 C.3     1  UNL1        0.0035
     15 C           1.9269   -0.5234   29.4803 C.3     1  UNL1        0.1032
     16 C           2.4067    3.7546   36.0447 C.3     1  UNL1        0.0522
     17 C           2.6712    2.6865   35.0252 C.ar    1  UNL1        0.0637
     18 C           3.7133    1.6403   35.2881 C.ar    1  UNL1        0.0296
     19 C           3.9779    0.5723   34.2685 C.ar    1  UNL1        0.0651
     20 C           5.0201   -0.4741   34.5316 C.3     1  UNL1        0.0523
     21 N           3.2002    0.5506   32.9861 N.ar    1  UNL1       -0.1994
     22 N           3.2405   -0.3711   31.8033 N.ar    1  UNL1       -0.1476
     23 C           2.2232    0.1057   30.8094 C.ar    1  UNL1        0.1669
     24 N           1.5542    1.3219   31.3779 N.ar    1  UNL1       -0.1930
     25 C           2.1580    1.5969   32.7232 C.ar    1  UNL1        0.2536
     26 N           1.8935    2.6649   33.7427 N.ar    1  UNL1       -0.2143
     27 C           0.3957    2.4717   24.8408 C.3     1  UNL1        0.0452
     28 C           1.8158    2.4659   24.3579 C.3     1  UNL1        0.0300
     29 C           2.1509    1.8747   23.0207 C.ar    1  UNL1       -0.0199
     30 C           3.4764    2.1671   22.3823 C.ar    1  UNL1       -0.0044
     31 C           3.8115    1.5759   21.0451 C.ar    1  UNL1       -0.0014
     32 C           2.8211    0.6923   20.3462 C.ar    1  UNL1        0.0178
     33 C           1.4956    0.3999   20.9846 C.ar    1  UNL1        0.1368
     34 F           0.5052   -0.4837   20.2858 F       1  UNL1       -0.2045
     35 C           1.1605    0.9911   22.3219 C.ar    1  UNL1        0.0251
     36 C           3.1562    0.1010   19.0090 C.3     1  UNL1        0.1001
     37 C           3.6980   -1.1230   19.6860 C.3     1  UNL1        0.0197
     38 C           2.6143    1.3250   18.3321 C.3     1  UNL1        0.0197
     39 C           3.4912   -0.4901   17.6717 C.1     1  UNL1        0.0753
     40 N           3.8261   -1.0812   16.3344 N.1     1  UNL1       -0.1956
@<TRIPOS>BOND
     1    16    17    1
     2    17    18   ar
     3    18    19   ar
     4    19    20    1
     5    19    21   ar
     6    21    22   ar
     7    22    23   ar
     8    23    15    1
     9    15     1    1
    10     1     2    2
    11     2     3    1
    12     2     4    1
    13     4     5    1
    14     5    27    1
    15    27    28    1
    16    28    29    1
    17    29    30   ar
    18    30    31   ar
    19    31    32   ar
    20    32    36    1
    21    36    37    1
    22    36    38    1
    23    36    39    1
    24    39    40    3
    25    32    33   ar
    26    33    34    1
    27    33    35   ar
    28     5    10    1
    29    10    11    1
    30    11    12    1
    31    12    13    1
    32    13    14    1
    33     5     6    1
    34     6     7    1
    35     7     8    2
    36    23    24   ar
    37    24    25   ar
    38    25    26   ar
    39    26    17   ar
    40    25    21   ar
    41     7     1    1
    42    35    29   ar
    43    14    10    1
    44     3     9    1
@<TRIPOS>MOLECULE
*****
 40 44 0 0 0
SMALL
GASTEIGER

@<TRIPOS>ATOM
      1 C           3.1156    1.9081   18.6240 C.2     1  UNL1        0.0905
      2 C           2.3962    0.5970   18.5088 C.2     1  UNL1        0.1173
      3 O           0.9245    0.5720   18.2197 O.2     1  UNL1       -0.5097
      4 C           3.1483   -0.6891   18.6826 C.3     1  UNL1        0.1035
      5 C           4.6200   -0.6641   18.9716 C.3     1  UNL1        0.1435
      6 O           5.3395    0.6471   19.0869 O.3     1  UNL1       -0.4524
      7 C           4.5873    1.9332   18.9131 C.2     1  UNL1        0.3400
      8 O           5.3068    3.2443   19.0283 O.2     1  UNL1       -0.2451
      9 H           0.4546    1.3753   18.1112 H       1  UNL1        0.2917
     10 C           4.3830   -2.1451   18.9547 C.3     1  UNL1        0.0372
     11 C           5.3015   -3.1784   18.3727 C.3     1  UNL1        0.0035
     12 C           4.6721   -4.5248   18.5751 C.3     1  UNL1        0.0001
     13 C           3.3646   -4.3237   19.2821 C.3     1  UNL1        0.0001
     14 C           3.1859   -2.8530   19.5167 C.3     1  UNL1        0.0035
     15 C           2.3634    3.1942   18.4502 C.3     1  UNL1        0.1032
     16 C          -4.7503    3.1131   21.7685 C.3     1  UNL1        0.0522
     17 C          -3.6615    3.2861   20.7513 C.ar    1  UNL1        0.0637
     18 C          -3.9950    3.7669   19.3702 C.ar    1  UNL1        0.0296
     19 C          -2.9062    3.9399   18.3529 C.ar    1  UNL1        0.0651
     20 C          -3.2397    4.4207   16.9717 C.3     1  UNL1        0.0523
     21 N          -1.4839    3.6321   18.7170 N.ar    1  UNL1       -0.1994
     22 N          -0.2082    3.7067   17.9315 N.ar    1  UNL1       -0.1476
     23 C           0.9137    3.2720   18.8273 C.ar    1  UNL1        0.1669
     24 N           0.3313    2.9288   20.1664 N.ar    1  UNL1       -0.1930
     25 C          -1.1505    3.1514   20.0982 C.ar    1  UNL1        0.2536
     26 N          -2.2393    2.9784   21.1153 N.ar    1  UNL1       -0.2143
     27 C           6.0093   -1.1534   19.2548 C.3     1  UNL1        0.0452
     28 C           6.7401   -0.6724   20.4732 C.3     1  UNL1        0.0300
     29 C           6.0764   -0.7289   21.8171 C.ar    1  UNL1       -0.0199
     30 C           5.4246   -1.9984   22.2789 C.ar    1  UNL1       -0.0044
     31 C           4.7608   -2.0550   23.6228 C.ar    1  UNL1       -0.0014
     32 C           4.7488   -0.8418   24.5050 C.ar    1  UNL1        0.0178
     33 C           5.4005    0.4278   24.0432 C.ar    1  UNL1        0.1368
     34 F           5.3885    1.6410   24.9253 F       1  UNL1       -0.2045
     35 C           6.0644    0.4843   22.6992 C.ar    1  UNL1        0.0251
     36 C           4.0850   -0.8982   25.8490 C.3     1  UNL1        0.1001
     37 C           5.2974   -1.5724   26.4195 C.3     1  UNL1        0.0197
     38 C           2.8725   -0.2240   25.2784 C.3     1  UNL1        0.0197
     39 C           3.4211   -0.9546   27.1929 C.1     1  UNL1        0.0753
     40 N           2.7572   -1.0110   28.5368 N.1     1  UNL1       -0.1956
@<TRIPOS>BOND
     1    16    17    1
     2    17    18   ar
     3    18    19   ar
     4    19    20    1
     5    19    21   ar
     6    21    22   ar
     7    22    23   ar
     8    23    15    1
     9    15     1    1
    10     1     2    2
    11     2     3    1
    12     2     4    1
    13     4     5    1
    14     5    27    1
    15    27    28    1
    16    28    29    1
    17    29    30   ar
    18    30    31   ar
    19    31    32   ar
    20    32    36    1
    21    36    37    1
    22    36    38    1
    23    36    39    1
    24    39    40    3
    25    32    33   ar
    26    33    34    1
    27    33    35   ar
    28     5    10    1
    29    10    11    1
    30    11    12    1
    31    12    13    1
    32    13    14    1
    33     5     6    1
    34     6     7    1
    35     7     8    2
    36    23    24   ar
    37    24    25   ar
    38    25    26   ar
    39    26    17   ar
    40    25    21   ar
    41     7     1    1
    42    35    29   ar
    43    14    10    1
    44     3     9    1
@<TRIPOS>MOLECULE
*****
 40 44 0 0 0
SMALL
GASTEIGER

@<TRIPOS>ATOM
      1 C           3.1048    1.9334   18.5692 C.2     1  UNL1        0.0905
      2 C           2.3980    0.6140   18.4722 C.2     1  UNL1        0.1173
      3 O           0.9271    0.5708   18.1811 O.2     1  UNL1       -0.5097
      4 C           3.1619   -0.6623   18.6663 C.3     1  UNL1        0.1035
      5 C           4.6327   -0.6191   18.9575 C.3     1  UNL1        0.1435
      6 O           5.3396    0.7004   19.0545 O.3     1  UNL1       -0.4524
      7 C           4.5757    1.9766   18.8604 C.2     1  UNL1        0.3400
      8 O           5.2826    3.2960   18.9574 O.2     1  UNL1       -0.2451
      9 H           0.4499    1.3680   18.0599 H       1  UNL1        0.2917
     10 C           4.4097   -2.1024   18.9621 C.3     1  UNL1        0.0372
     11 C           3.2288   -2.8145   19.5523 C.3     1  UNL1        0.0035
     12 C           3.4175   -4.2862   19.3324 C.3     1  UNL1        0.0001
     13 C           4.7151   -4.4836   18.6063 C.3     1  UNL1        0.0001
     14 C           5.3283   -3.1340   18.3774 C.3     1  UNL1        0.0035
     15 C           2.3409    3.2096   18.3751 C.3     1  UNL1        0.1032
     16 C          -4.7491    3.1210   21.7436 C.3     1  UNL1        0.0522
     17 C          -3.6683    3.2911   20.7174 C.ar    1  UNL1        0.0637
     18 C          -4.0136    3.7592   19.3349 C.ar    1  UNL1        0.0296
     19 C          -2.9328    3.9293   18.3087 C.ar    1  UNL1        0.0651
     20 C          -3.2782    4.3975   16.9261 C.3     1  UNL1        0.0523
     21 N          -1.5066    3.6313   18.6653 N.ar    1  UNL1       -0.1994
     22 N          -0.2367    3.7057   17.8704 N.ar    1  UNL1       -0.1476
     23 C           0.8934    3.2835   18.7617 C.ar    1  UNL1        0.1669
     24 N           0.3221    2.9481   20.1075 N.ar    1  UNL1       -0.1930
     25 C          -1.1613    3.1631   20.0479 C.ar    1  UNL1        0.2536
     26 N          -2.2421    2.9930   21.0739 N.ar    1  UNL1       -0.2143
     27 C           6.0261   -1.0910   19.2502 C.3     1  UNL1        0.0452
     28 C           6.7893   -0.5069   20.4018 C.3     1  UNL1        0.0300
     29 C           6.7683   -1.1878   21.7381 C.ar    1  UNL1       -0.0199
     30 C           8.0404   -1.7194   22.3291 C.ar    1  UNL1       -0.0044
     31 C           8.0194   -2.4004   23.6655 C.ar    1  UNL1       -0.0014
     32 C           6.7262   -2.5498   24.4108 C.ar    1  UNL1        0.0178
     33 C           5.4542   -2.0183   23.8198 C.ar    1  UNL1        0.1368
     34 F           4.1610   -2.1677   24.5652 F       1  UNL1       -0.2045
     35 C           5.4752   -1.3373   22.4835 C.ar    1  UNL1        0.0251
     36 C           6.7051   -3.2308   25.7472 C.3     1  UNL1        0.1001
     37 C           6.7031   -1.8943   26.4282 C.3     1  UNL1        0.0197
     38 C           6.7071   -4.5673   25.0661 C.3     1  UNL1        0.0197
     39 C           6.6840   -3.9119   27.0835 C.1     1  UNL1        0.0753
     40 N           6.6628   -4.5929   28.4198 N.1     1  UNL1       -0.1956
@<TRIPOS>BOND
     1    16    17    1
     2    17    18   ar
     3    18    19   ar
     4    19    20    1
     5    19    21   ar
     6    21    22   ar
     7    22    23   ar
     8    23    15    1
     9    15     1    1
    10     1     2    2
    11     2     3    1
    12     2     4    1
    13     4     5    1
    14     5    27    1
    15    27    28    1
    16    28    29    1
    17    29    30   ar
    18    30    31   ar
    19    31    32   ar
    20    32    36    1
    21    36    37    1
    22    36    38    1
    23    36    39    1
    24    39    40    3
    25    32    33   ar
    26    33    34    1
    27    33    35   ar
    28     5    10    1
    29    10    11    1
    30    11    12    1
    31    12    13    1
    32    13    14    1
    33     5     6    1
    34     6     7    1
    35     7     8    2
    36    23    24   ar
    37    24    25   ar
    38    25    26   ar
    39    26    17   ar
    40    25    21   ar
    41     7     1    1
    42    35    29   ar
    43    14    10    1
    44     3     9    1
@<TRIPOS>MOLECULE
*****
 40 44 0 0 0
SMALL
GASTEIGER

@<TRIPOS>ATOM
      1 C           2.5482    2.2366   18.7444 C.2     1  UNL1        0.0905
      2 C           2.0406    0.8563   18.4495 C.2     1  UNL1        0.1173
      3 O           0.6552    0.6668   17.9065 O.2     1  UNL1       -0.5097
      4 C           2.9183   -0.3346   18.6976 C.3     1  UNL1        0.1035
      5 C           4.3037   -0.1451   19.2407 C.3     1  UNL1        0.1435
      6 O           4.8113    1.2353   19.5356 O.3     1  UNL1       -0.4524
      7 C           3.9336    2.4261   19.2875 C.2     1  UNL1        0.3400
      8 O           4.4413    3.8064   19.5825 O.2     1  UNL1       -0.2451
      9 H           0.1070    1.4107   17.7515 H       1  UNL1        0.2917
     10 C           4.2734   -1.6399   19.1197 C.3     1  UNL1        0.0372
     11 C           5.3060   -2.4906   18.4413 C.3     1  UNL1        0.0035
     12 C           4.8761   -3.9229   18.5582 C.3     1  UNL1        0.0001
     13 C           3.5779   -3.9574   19.3088 C.3     1  UNL1        0.0001
     14 C           3.2054   -2.5465   19.6558 C.3     1  UNL1        0.0035
     15 C           1.6705    3.4274   18.4964 C.3     1  UNL1        0.1032
     16 C          -5.0585    3.2180   22.5335 C.3     1  UNL1        0.0522
     17 C          -4.0913    3.3473   21.3942 C.ar    1  UNL1        0.0637
     18 C          -4.5960    3.6309   20.0105 C.ar    1  UNL1        0.0296
     19 C          -3.6288    3.7603   18.8712 C.ar    1  UNL1        0.0651
     20 C          -4.1335    4.0439   17.4874 C.3     1  UNL1        0.0523
     21 N          -2.1569    3.6059   19.1158 N.ar    1  UNL1       -0.1994
     22 N          -0.9736    3.6798   18.1969 N.ar    1  UNL1       -0.1476
     23 C           0.2623    3.4419   19.0129 C.ar    1  UNL1        0.1669
     24 N          -0.1571    3.2209   20.4360 N.ar    1  UNL1       -0.1930
     25 C          -1.6523    3.3223   20.4996 C.ar    1  UNL1        0.2536
     26 N          -2.6195    3.1930   21.6388 N.ar    1  UNL1       -0.2143
     27 C           5.6785   -0.4747   19.7417 C.3     1  UNL1        0.0452
     28 C           6.0034   -0.3192   21.1978 C.3     1  UNL1        0.0300
     29 C           4.9163    0.0078   22.1782 C.ar    1  UNL1       -0.0199
     30 C           4.0221   -1.0791   22.6967 C.ar    1  UNL1       -0.0044
     31 C           2.9350   -0.7521   23.6771 C.ar    1  UNL1       -0.0014
     32 C           2.7421    0.6620   24.1390 C.ar    1  UNL1        0.0178
     33 C           3.6363    1.7489   23.6204 C.ar    1  UNL1        0.1368
     34 F           3.4434    3.1630   24.0823 F       1  UNL1       -0.2045
     35 C           4.7234    1.4219   22.6400 C.ar    1  UNL1        0.0251
     36 C           1.6550    0.9891   25.1194 C.3     1  UNL1        0.1001
     37 C           2.5950    0.7106   26.2547 C.3     1  UNL1        0.0197
     38 C           0.7149    1.2676   23.9841 C.3     1  UNL1        0.0197
     39 C           0.5678    1.3163   26.0997 C.1     1  UNL1        0.0753
     40 N          -0.5194    1.6433   27.0801 N.1     1  UNL1       -0.1956
@<TRIPOS>BOND
     1    16    17    1
     2    17    18   ar
     3    18    19   ar
     4    19    20    1
     5    19    21   ar
     6    21    22   ar
     7    22    23   ar
     8    23    15    1
     9    15     1    1
    10     1     2    2
    11     2     3    1
    12     2     4    1
    13     4     5    1
    14     5    27    1
    15    27    28    1
    16    28    29    1
    17    29    30   ar
    18    30    31   ar
    19    31    32   ar
    20    32    36    1
    21    36    37    1
    22    36    38    1
    23    36    39    1
    24    39    40    3
    25    32    33   ar
    26    33    34    1
    27    33    35   ar
    28     5    10    1
    29    10    11    1
    30    11    12    1
    31    12    13    1
    32    13    14    1
    33     5     6    1
    34     6     7    1
    35     7     8    2
    36    23    24   ar
    37    24    25   ar
    38    25    26   ar
    39    26    17   ar
    40    25    21   ar
    41     7     1    1
    42    35    29   ar
    43    14    10    1
    44     3     9    1
@<TRIPOS>MOLECULE
*****
 40 44 0 0 0
SMALL
GASTEIGER

@<TRIPOS>ATOM
      1 C           6.7469   -2.9355   20.7350 C.2     1  UNL1        0.0905
      2 C           5.3113   -3.2017   20.3915 C.2     1  UNL1        0.1173
      3 O           4.8095   -4.6128   20.3076 O.2     1  UNL1       -0.5097
      4 C           4.3774   -2.0569   20.1320 C.3     1  UNL1        0.1035
      5 C           4.8792   -0.6458   20.2159 C.3     1  UNL1        0.1435
      6 O           6.3150   -0.3796   20.5594 O.3     1  UNL1       -0.4524
      7 C           7.2488   -1.5244   20.8189 C.2     1  UNL1        0.3400
      8 O           8.6845   -1.2581   21.1624 O.2     1  UNL1       -0.2451
      9 H           5.3929   -5.3279   20.4698 H       1  UNL1        0.2917
     10 C           3.4449   -0.3914   19.8584 C.3     1  UNL1        0.0372
     11 C           2.2471   -0.8758   20.6205 C.3     1  UNL1        0.0035
     12 C           1.0183   -0.3918   19.9093 C.3     1  UNL1        0.0001
     13 C           1.4567    0.3918   18.7078 C.3     1  UNL1        0.0001
     14 C           2.9563    0.3921   18.6763 C.3     1  UNL1        0.0035
     15 C           7.6808   -4.0803   20.9945 C.3     1  UNL1        0.1032
     16 C           8.2575   -8.7891   27.2489 C.3     1  UNL1        0.0522
     17 C           7.9799   -7.5816   26.4033 C.ar    1  UNL1        0.0637
     18 C           7.4358   -6.3338   27.0331 C.ar    1  UNL1        0.0296
     19 C           7.1582   -5.1264   26.1875 C.ar    1  UNL1        0.0651
     20 C           6.6140   -3.8785   26.8174 C.3     1  UNL1        0.0523
     21 N           7.4248   -5.1668   24.7119 N.ar    1  UNL1       -0.1994
     22 N           7.2506   -4.1405   23.6320 N.ar    1  UNL1       -0.1476
     23 C           7.6871   -4.7540   22.3347 C.ar    1  UNL1        0.1669
     24 N           8.1311   -6.1595   22.6128 N.ar    1  UNL1       -0.1930
     25 C           7.9690   -6.4147   24.0820 C.ar    1  UNL1        0.2536
     26 N           8.2465   -7.6221   24.9277 N.ar    1  UNL1       -0.2143
     27 C           4.8830    0.8535   20.1757 C.3     1  UNL1        0.0452
     28 C           5.1500    1.6368   21.4268 C.3     1  UNL1        0.0300
     29 C           4.1659    1.6016   22.5582 C.ar    1  UNL1       -0.0199
     30 C           3.1805    2.7194   22.7301 C.ar    1  UNL1       -0.0044
     31 C           2.1963    2.6843   23.8616 C.ar    1  UNL1       -0.0014
     32 C           2.1976    1.5313   24.8211 C.ar    1  UNL1        0.0178
     33 C           3.1830    0.4135   24.6492 C.ar    1  UNL1        0.1368
     34 F           3.1843   -0.7394   25.6088 F       1  UNL1       -0.2045
     35 C           4.1672    0.4487   23.5177 C.ar    1  UNL1        0.0251
     36 C           1.2135    1.4961   25.9526 C.3     1  UNL1        0.1001
     37 C           2.2727    1.9966   26.8894 C.3     1  UNL1        0.0197
     38 C           0.1543    0.9955   25.0158 C.3     1  UNL1        0.0197
     39 C           0.2293    1.4608   27.0840 C.1     1  UNL1        0.0753
     40 N          -0.7549    1.4255   28.2155 N.1     1  UNL1       -0.1956
@<TRIPOS>BOND
     1    16    17    1
     2    17    18   ar
     3    18    19   ar
     4    19    20    1
     5    19    21   ar
     6    21    22   ar
     7    22    23   ar
     8    23    15    1
     9    15     1    1
    10     1     2    2
    11     2     3    1
    12     2     4    1
    13     4     5    1
    14     5    27    1
    15    27    28    1
    16    28    29    1
    17    29    30   ar
    18    30    31   ar
    19    31    32   ar
    20    32    36    1
    21    36    37    1
    22    36    38    1
    23    36    39    1
    24    39    40    3
    25    32    33   ar
    26    33    34    1
    27    33    35   ar
    28     5    10    1
    29    10    11    1
    30    11    12    1
    31    12    13    1
    32    13    14    1
    33     5     6    1
    34     6     7    1
    35     7     8    2
    36    23    24   ar
    37    24    25   ar
    38    25    26   ar
    39    26    17   ar
    40    25    21   ar
    41     7     1    1
    42    35    29   ar
    43    14    10    1
    44     3     9    1
@<TRIPOS>MOLECULE
*****
 40 44 0 0 0
SMALL
GASTEIGER

@<TRIPOS>ATOM
      1 C           3.0631    1.8079   18.7953 C.2     1  UNL1        0.0905
      2 C           2.3699    0.4932   18.5931 C.2     1  UNL1        0.1173
      3 O           0.9126    0.4604   18.2393 O.2     1  UNL1       -0.5097
      4 C           3.1338   -0.7888   18.7448 C.3     1  UNL1        0.1035
      5 C           4.5912   -0.7560   19.0986 C.3     1  UNL1        0.1435
      6 O           5.2844    0.5588   19.3008 O.3     1  UNL1       -0.4524
      7 C           4.5204    1.8407   19.1492 C.2     1  UNL1        0.3400
      8 O           5.2137    3.1554   19.3514 O.2     1  UNL1       -0.2451
      9 H           0.4353    1.2612   18.1446 H       1  UNL1        0.2917
     10 C           4.3782   -2.2380   19.0084 C.3     1  UNL1        0.0372
     11 C           3.1660   -2.9849   19.4802 C.3     1  UNL1        0.0035
     12 C           3.3786   -4.4419   19.1940 C.3     1  UNL1        0.0001
     13 C           4.7223   -4.5954   18.5454 C.3     1  UNL1        0.0001
     14 C           5.3402   -3.2335   18.4307 C.3     1  UNL1        0.0035
     15 C           2.2991    3.0898   18.6437 C.3     1  UNL1        0.1032
     16 C          -5.2962    3.8423   20.4789 C.3     1  UNL1        0.0522
     17 C          -3.8089    3.7086   20.6216 C.ar    1  UNL1        0.0637
     18 C          -3.1852    3.6880   21.9855 C.ar    1  UNL1        0.0296
     19 C          -1.6979    3.5543   22.1282 C.ar    1  UNL1        0.0651
     20 C          -1.0742    3.5337   23.4923 C.3     1  UNL1        0.0523
     21 N          -0.8345    3.4412   20.9069 N.ar    1  UNL1       -0.1994
     22 N           0.6490    3.2993   20.7361 N.ar    1  UNL1       -0.1476
     23 C           0.9420    3.2323   19.2665 C.ar    1  UNL1        0.1669
     24 N          -0.3604    3.3327   18.5291 N.ar    1  UNL1       -0.1930
     25 C          -1.4583    3.4618   19.5429 C.ar    1  UNL1        0.2536
     26 N          -2.9455    3.5955   19.4002 N.ar    1  UNL1       -0.2143
     27 C           5.9745   -1.2378   19.4211 C.3     1  UNL1        0.0452
     28 C           6.6287   -0.8327   20.7088 C.3     1  UNL1        0.0300
     29 C           6.7577   -1.8224   21.8284 C.ar    1  UNL1       -0.0199
     30 C           5.5621   -2.6114   22.2736 C.ar    1  UNL1       -0.0044
     31 C           5.6911   -3.6011   23.3933 C.ar    1  UNL1       -0.0014
     32 C           7.0158   -3.8019   24.0679 C.ar    1  UNL1        0.0178
     33 C           8.2113   -3.0129   23.6227 C.ar    1  UNL1        0.1368
     34 F           9.5360   -3.2137   24.2973 F       1  UNL1       -0.2045
     35 C           8.0823   -2.0232   22.5030 C.ar    1  UNL1        0.0251
     36 C           7.1449   -4.7916   25.1876 C.3     1  UNL1        0.1001
     37 C           6.6012   -3.7758   26.1481 C.3     1  UNL1        0.0197
     38 C           7.6886   -5.8074   24.2271 C.3     1  UNL1        0.0197
     39 C           7.2740   -5.7814   26.3073 C.1     1  UNL1        0.0753
     40 N           7.4032   -6.7713   27.4269 N.1     1  UNL1       -0.1956
@<TRIPOS>BOND
     1    16    17    1
     2    17    18   ar
     3    18    19   ar
     4    19    20    1
     5    19    21   ar
     6    21    22   ar
     7    22    23   ar
     8    23    15    1
     9    15     1    1
    10     1     2    2
    11     2     3    1
    12     2     4    1
    13     4     5    1
    14     5    27    1
    15    27    28    1
    16    28    29    1
    17    29    30   ar
    18    30    31   ar
    19    31    32   ar
    20    32    36    1
    21    36    37    1
    22    36    38    1
    23    36    39    1
    24    39    40    3
    25    32    33   ar
    26    33    34    1
    27    33    35   ar
    28     5    10    1
    29    10    11    1
    30    11    12    1
    31    12    13    1
    32    13    14    1
    33     5     6    1
    34     6     7    1
    35     7     8    2
    36    23    24   ar
    37    24    25   ar
    38    25    26   ar
    39    26    17   ar
    40    25    21   ar
    41     7     1    1
    42    35    29   ar
    43    14    10    1
    44     3     9    1
