@<TRIPOS>MOLECULE
*****
 36 39 0 0 0
SMALL
GASTEIGER

@<TRIPOS>ATOM
      1 N           2.4238    0.8949   22.9216 N.ar    1  UNL1       -0.2459
      2 C           2.7792    0.5258   24.3313 C.ar    1  UNL1        0.1116
      3 C           1.5906    0.8142   25.1997 C.ar    1  UNL1        0.0908
      4 C           0.5006    1.3615   24.3266 C.ar    1  UNL1        0.1363
      5 N           1.0155    1.4114   22.9187 N.ar    1  UNL1       -0.1661
      6 N           1.5067    0.5939   26.6811 N.am    1  UNL1       -0.2753
      7 C           2.0725    1.6139   27.6242 C.2     1  UNL1        0.2870
      8 O           2.7221    2.8542   27.0859 O.2     1  UNL1       -0.2664
      9 H           1.0804   -0.2201   27.0343 H       1  UNL1        0.1554
     10 C           1.9887    1.3936   29.1055 C.ar    1  UNL1        0.2302
     11 C           3.0571    0.7916   29.9693 C.ar    1  UNL1        0.0689
     12 C           2.5504    0.7626   31.3808 C.ar    1  UNL1        0.1407
     13 N           1.1688    1.3467   31.3894 N.ar    1  UNL1       -0.0752
     14 O           0.8216    1.7367   29.9832 O.2     1  UNL1       -0.3487
     15 C           3.2946    0.2411   32.5742 C.ar    1  UNL1        0.1022
     16 C           3.6898    1.1757   33.6789 C.ar    1  UNL1        0.0208
     17 C           4.4340    0.6542   34.8722 C.ar    1  UNL1        0.0032
     18 C           4.7831   -0.8019   34.9609 C.ar    1  UNL1        0.0207
     19 C           4.3880   -1.7365   33.8562 C.ar    1  UNL1        0.0989
     20 N           3.6437   -1.2150   32.6628 N.ar    1  UNL1       -0.2422
     21 C           3.9462    1.9935   21.1256 C.3     1  UNL1        0.0312
     22 C           3.3194    0.7696   21.7248 C.3     1  UNL1        0.1274
     23 C           3.5882   -0.5798   21.1273 C.ar    1  UNL1        0.0038
     24 C           4.7027   -1.4288   21.6631 C.ar    1  UNL1       -0.0025
     25 C           4.9714   -2.7781   21.0656 C.ar    1  UNL1        0.0036
     26 C           4.1257   -3.2784   19.9322 C.ar    1  UNL1        0.0714
     27 C           3.0113   -2.4294   19.3964 C.ar    1  UNL1        0.0074
     28 C           2.7425   -1.0801   19.9939 C.ar    1  UNL1        0.0692
     29 C           4.3945   -4.6278   19.3347 C.3     1  UNL1        0.4186
     30 F           4.6634   -5.9771   18.7372 F       1  UNL1       -0.1659
     31 F           2.9237   -4.8237   19.1153 F       1  UNL1       -0.1659
     32 F           5.8654   -4.4319   19.5541 F       1  UNL1       -0.1659
     33 C           1.6280   -0.2310   19.4581 C.3     1  UNL1        0.4183
     34 F           0.5136    0.6180   18.9224 F       1  UNL1       -0.1659
     35 F           0.6816   -0.8524   20.4421 F       1  UNL1       -0.1659
     36 F           2.5744    0.3904   18.4742 F       1  UNL1       -0.1659
@<TRIPOS>BOND
     1    22    21    1
     2    22    23    1
     3    23    24   ar
     4    24    25   ar
     5    25    26   ar
     6    26    29    1
     7    29    30    1
     8    29    31    1
     9    29    32    1
    10    26    27   ar
    11    27    28   ar
    12    28    33    1
    13    33    34    1
    14    33    35    1
    15    33    36    1
    16    22     1    1
    17     1     2   ar
    18     2     3   ar
    19     3     6    1
    20     6     7   am
    21     7     8    2
    22     7    10    1
    23    10    11   ar
    24    11    12   ar
    25    12    15    1
    26    15    16   ar
    27    16    17   ar
    28    17    18   ar
    29    18    19   ar
    30    19    20   ar
    31    12    13   ar
    32    13    14   ar
    33     3     4   ar
    34     4     5   ar
    35    28    23   ar
    36     5     1   ar
    37    14    10   ar
    38    20    15   ar
    39     6     9    1
@<TRIPOS>MOLECULE
*****
 36 39 0 0 0
SMALL
GASTEIGER

@<TRIPOS>ATOM
      1 N           6.9246   -3.8520   22.3190 N.ar    1  UNL1       -0.2459
      2 C           6.3625   -3.4800   23.6591 C.ar    1  UNL1        0.1116
      3 C           6.8022   -4.5165   24.6502 C.ar    1  UNL1        0.0908
      4 C           7.6360   -5.5292   23.9227 C.ar    1  UNL1        0.1363
      5 N           7.7117   -5.1185   22.4820 N.ar    1  UNL1       -0.1661
      6 N           6.4669   -4.5368   26.1121 N.am    1  UNL1       -0.2753
      7 C           7.5010   -4.1418   27.1242 C.2     1  UNL1        0.2870
      8 O           8.8704   -3.7265   26.6745 O.2     1  UNL1       -0.2664
      9 H           5.5681   -4.8094   26.4072 H       1  UNL1        0.1554
     10 C           7.1656   -4.1621   28.5861 C.ar    1  UNL1        0.2302
     11 C           6.8373   -2.9677   29.4321 C.ar    1  UNL1        0.0689
     12 C           6.5685   -3.4478   30.8275 C.ar    1  UNL1        0.1407
     13 N           6.7308   -4.9389   30.8440 N.ar    1  UNL1       -0.0752
     14 O           7.0999   -5.3804   29.4587 O.2     1  UNL1       -0.3487
     15 C           6.2019   -2.5878   32.0005 C.ar    1  UNL1        0.1022
     16 C           7.1930   -1.6040   32.5481 C.ar    1  UNL1        0.0208
     17 C           6.8264   -0.7440   33.7211 C.ar    1  UNL1        0.0032
     18 C           5.4686   -0.8677   34.3465 C.ar    1  UNL1        0.0207
     19 C           4.4775   -1.8514   33.7989 C.ar    1  UNL1        0.0989
     20 N           4.8441   -2.7115   32.6259 N.ar    1  UNL1       -0.2422
     21 C           7.8111   -3.0942   19.9975 C.3     1  UNL1        0.0312
     22 C           6.7332   -3.0912   21.0406 C.3     1  UNL1        0.1274
     23 C           5.4639   -2.3273   20.8052 C.ar    1  UNL1        0.0038
     24 C           5.2964   -0.9542   21.3853 C.ar    1  UNL1       -0.0025
     25 C           4.0271   -0.1904   21.1499 C.ar    1  UNL1        0.0036
     26 C           2.9253   -0.7997   20.3345 C.ar    1  UNL1        0.0714
     27 C           3.0928   -2.1727   19.7545 C.ar    1  UNL1        0.0074
     28 C           4.3621   -2.9366   19.9898 C.ar    1  UNL1        0.0692
     29 C           1.6559   -0.0358   20.0992 C.3     1  UNL1        0.4186
     30 F           0.3867    0.7281   19.8639 F       1  UNL1       -0.1659
     31 F           0.8876   -1.3235   20.0630 F       1  UNL1       -0.1659
     32 F           2.4243    1.2520   20.1354 F       1  UNL1       -0.1659
     33 C           4.5297   -4.3097   19.4098 C.3     1  UNL1        0.4183
     34 F           4.6972   -5.6828   18.8298 F       1  UNL1       -0.1659
     35 F           3.9270   -4.9059   20.6472 F       1  UNL1       -0.1659
     36 F           5.1324   -3.7135   18.1724 F       1  UNL1       -0.1659
@<TRIPOS>BOND
     1    22    21    1
     2    22    23    1
     3    23    24   ar
     4    24    25   ar
     5    25    26   ar
     6    26    29    1
     7    29    30    1
     8    29    31    1
     9    29    32    1
    10    26    27   ar
    11    27    28   ar
    12    28    33    1
    13    33    34    1
    14    33    35    1
    15    33    36    1
    16    22     1    1
    17     1     2   ar
    18     2     3   ar
    19     3     6    1
    20     6     7   am
    21     7     8    2
    22     7    10    1
    23    10    11   ar
    24    11    12   ar
    25    12    15    1
    26    15    16   ar
    27    16    17   ar
    28    17    18   ar
    29    18    19   ar
    30    19    20   ar
    31    12    13   ar
    32    13    14   ar
    33     3     4   ar
    34     4     5   ar
    35    28    23   ar
    36     5     1   ar
    37    14    10   ar
    38    20    15   ar
    39     6     9    1
@<TRIPOS>MOLECULE
*****
 36 39 0 0 0
SMALL
GASTEIGER

@<TRIPOS>ATOM
      1 N           4.2006    1.1431   33.7788 N.ar    1  UNL1       -0.2459
      2 C           4.9484   -0.1535   33.6798 C.ar    1  UNL1        0.1116
      3 C           4.3666   -0.9385   32.5417 C.ar    1  UNL1        0.0908
      4 C           3.2592   -0.1271   31.9373 C.ar    1  UNL1        0.1363
      5 N           3.1566    1.1593   32.7018 N.ar    1  UNL1       -0.1661
      6 N           4.8137   -2.2964   32.0878 N.am    1  UNL1       -0.2753
      7 C           6.1125   -2.4518   31.3535 C.2     1  UNL1        0.2870
      8 O           6.9641   -1.2492   31.0732 O.2     1  UNL1       -0.2664
      9 H           4.2548   -3.0857   32.2718 H       1  UNL1        0.1554
     10 C           6.5596   -3.8097   30.8996 C.ar    1  UNL1        0.2302
     11 C           6.8835   -4.2056   29.4895 C.ar    1  UNL1        0.0689
     12 C           7.2854   -5.6508   29.4945 C.ar    1  UNL1        0.1407
     13 N           7.2099   -6.1480   30.9077 N.ar    1  UNL1       -0.0752
     14 O           6.7613   -5.0101   31.7761 O.2     1  UNL1       -0.3487
     15 C           7.6915   -6.4571   28.2967 C.ar    1  UNL1        0.1022
     16 C           7.0723   -6.1774   26.9593 C.ar    1  UNL1        0.0208
     17 C           7.4784   -6.9837   25.7614 C.ar    1  UNL1        0.0032
     18 C           8.5037   -8.0697   25.9008 C.ar    1  UNL1        0.0207
     19 C           9.1228   -8.3494   27.2381 C.ar    1  UNL1        0.0989
     20 N           8.7167   -7.5431   28.4361 N.ar    1  UNL1       -0.2422
     21 C           5.5137    3.2595   34.5179 C.3     1  UNL1        0.0312
     22 C           4.4525    2.2321   34.7791 C.3     1  UNL1        0.1274
     23 C           3.6431    2.2937   36.0405 C.ar    1  UNL1        0.0038
     24 C           2.5007    3.2592   36.1522 C.ar    1  UNL1       -0.0025
     25 C           1.6914    3.3207   37.4136 C.ar    1  UNL1        0.0036
     26 C           2.0246    2.4168   38.5634 C.ar    1  UNL1        0.0714
     27 C           3.1670    1.4513   38.4517 C.ar    1  UNL1        0.0074
     28 C           3.9763    1.3897   37.1903 C.ar    1  UNL1        0.0692
     29 C           1.2152    2.4783   39.8248 C.3     1  UNL1        0.4186
     30 F           0.4059    2.5400   41.0862 F       1  UNL1       -0.1659
     31 F           0.2169    1.5295   39.2307 F       1  UNL1       -0.1659
     32 F           2.2135    3.4272   40.4190 F       1  UNL1       -0.1659
     33 C           5.1189    0.4242   37.0785 C.3     1  UNL1        0.4183
     34 F           6.2614   -0.5413   36.9668 F       1  UNL1       -0.1659
     35 F           6.0614    1.4827   37.5694 F       1  UNL1       -0.1659
     36 F           4.1763   -0.6344   36.5876 F       1  UNL1       -0.1659
@<TRIPOS>BOND
     1    22    21    1
     2    22    23    1
     3    23    24   ar
     4    24    25   ar
     5    25    26   ar
     6    26    29    1
     7    29    30    1
     8    29    31    1
     9    29    32    1
    10    26    27   ar
    11    27    28   ar
    12    28    33    1
    13    33    34    1
    14    33    35    1
    15    33    36    1
    16    22     1    1
    17     1     2   ar
    18     2     3   ar
    19     3     6    1
    20     6     7   am
    21     7     8    2
    22     7    10    1
    23    10    11   ar
    24    11    12   ar
    25    12    15    1
    26    15    16   ar
    27    16    17   ar
    28    17    18   ar
    29    18    19   ar
    30    19    20   ar
    31    12    13   ar
    32    13    14   ar
    33     3     4   ar
    34     4     5   ar
    35    28    23   ar
    36     5     1   ar
    37    14    10   ar
    38    20    15   ar
    39     6     9    1
@<TRIPOS>MOLECULE
*****
 36 39 0 0 0
SMALL
GASTEIGER

@<TRIPOS>ATOM
      1 N           2.6930    0.9424   22.8213 N.ar    1  UNL1       -0.2459
      2 C           1.2524    1.3557   22.8822 C.ar    1  UNL1        0.1116
      3 C           0.8303    1.3545   24.3216 C.ar    1  UNL1        0.0908
      4 C           2.0101    0.9404   25.1503 C.ar    1  UNL1        0.1363
      5 N           3.1613    0.6857   24.2230 N.ar    1  UNL1       -0.1661
      6 N          -0.5324    1.7057   24.8411 N.am    1  UNL1       -0.2753
      7 C          -0.9437    3.1436   24.9556 C.2     1  UNL1        0.2870
      8 O           0.0076    4.2303   24.5506 O.2     1  UNL1       -0.2664
      9 H          -1.1567    0.9924   25.1069 H       1  UNL1        0.1554
     10 C          -2.3063    3.4948   25.4751 C.ar    1  UNL1        0.2302
     11 C          -3.4456    4.0387   24.6650 C.ar    1  UNL1        0.0689
     12 C          -4.6123    4.2438   25.5852 C.ar    1  UNL1        0.1407
     13 N          -4.1941    3.8266   26.9640 N.ar    1  UNL1       -0.0752
     14 O          -2.7689    3.3637   26.8960 O.2     1  UNL1       -0.3487
     15 C          -5.9604    4.7731   25.1951 C.ar    1  UNL1        0.1022
     16 C          -6.6408    5.7982   26.0532 C.ar    1  UNL1        0.0208
     17 C          -7.9889    6.3275   25.6631 C.ar    1  UNL1        0.0032
     18 C          -8.6569    5.8318   24.4148 C.ar    1  UNL1        0.0207
     19 C          -7.9765    4.8067   23.5567 C.ar    1  UNL1        0.0989
     20 N          -6.6283    4.2773   23.9468 N.ar    1  UNL1       -0.2422
     21 C           4.1114    2.0292   20.9353 C.3     1  UNL1        0.0312
     22 C           3.5202    0.8092   21.5770 C.3     1  UNL1        0.1274
     23 C           3.7560   -0.5442   20.9746 C.ar    1  UNL1        0.0038
     24 C           4.9295   -1.3675   21.4162 C.ar    1  UNL1       -0.0025
     25 C           5.1653   -2.7208   20.8137 C.ar    1  UNL1        0.0036
     26 C           4.2277   -3.2508   19.7697 C.ar    1  UNL1        0.0714
     27 C           3.0542   -2.4274   19.3281 C.ar    1  UNL1        0.0074
     28 C           2.8184   -1.0741   19.9306 C.ar    1  UNL1        0.0692
     29 C           4.4636   -4.6041   19.1673 C.3     1  UNL1        0.4186
     30 F           4.6994   -5.9574   18.5649 F       1  UNL1       -0.1659
     31 F           5.3470   -3.9860   18.1245 F       1  UNL1       -0.1659
     32 F           3.5801   -5.2222   20.2100 F       1  UNL1       -0.1659
     33 C           1.6449   -0.2507   19.4890 C.3     1  UNL1        0.4183
     34 F           0.4714    0.5726   19.0475 F       1  UNL1       -0.1659
     35 F           2.4967    0.4009   18.4404 F       1  UNL1       -0.1659
     36 F           0.7930   -0.9024   20.5377 F       1  UNL1       -0.1659
@<TRIPOS>BOND
     1    22    21    1
     2    22    23    1
     3    23    24   ar
     4    24    25   ar
     5    25    26   ar
     6    26    29    1
     7    29    30    1
     8    29    31    1
     9    29    32    1
    10    26    27   ar
    11    27    28   ar
    12    28    33    1
    13    33    34    1
    14    33    35    1
    15    33    36    1
    16    22     1    1
    17     1     2   ar
    18     2     3   ar
    19     3     6    1
    20     6     7   am
    21     7     8    2
    22     7    10    1
    23    10    11   ar
    24    11    12   ar
    25    12    15    1
    26    15    16   ar
    27    16    17   ar
    28    17    18   ar
    29    18    19   ar
    30    19    20   ar
    31    12    13   ar
    32    13    14   ar
    33     3     4   ar
    34     4     5   ar
    35    28    23   ar
    36     5     1   ar
    37    14    10   ar
    38    20    15   ar
    39     6     9    1
@<TRIPOS>MOLECULE
*****
 36 39 0 0 0
SMALL
GASTEIGER

@<TRIPOS>ATOM
      1 N           5.0237   -3.6959   21.2953 N.ar    1  UNL1       -0.2459
      2 C           4.7109   -3.5004   22.7492 C.ar    1  UNL1        0.1116
      3 C           5.9526   -3.8015   23.5351 C.ar    1  UNL1        0.0908
      4 C           7.0328   -4.1831   22.5668 C.ar    1  UNL1        0.1363
      5 N           6.4587   -4.1178   21.1826 N.ar    1  UNL1       -0.1661
      6 N           6.0899   -3.7331   25.0272 N.am    1  UNL1       -0.2753
      7 C           6.5233   -2.4554   25.6826 C.2     1  UNL1        0.2870
      8 O           6.8194   -1.2461   24.8459 O.2     1  UNL1       -0.2664
      9 H           5.8956   -4.5268   25.5763 H       1  UNL1        0.1554
     10 C           6.6606   -2.3870   27.1748 C.ar    1  UNL1        0.2302
     11 C           5.5919   -1.9679   28.1402 C.ar    1  UNL1        0.0689
     12 C           6.1616   -2.0475   29.5256 C.ar    1  UNL1        0.1407
     13 N           7.5824   -2.5158   29.4163 N.ar    1  UNL1       -0.0752
     14 O           7.8909   -2.7256   27.9633 O.2     1  UNL1       -0.3487
     15 C           5.4375   -1.7169   30.7969 C.ar    1  UNL1        0.1022
     16 C           5.7211   -2.4973   32.0463 C.ar    1  UNL1        0.0208
     17 C           4.9971   -2.1667   33.3176 C.ar    1  UNL1        0.0032
     18 C           3.9894   -1.0557   33.3398 C.ar    1  UNL1        0.0207
     19 C           3.7058   -0.2754   32.0905 C.ar    1  UNL1        0.0989
     20 N           4.4299   -0.6060   30.8191 N.ar    1  UNL1       -0.2422
     21 C           3.5306   -4.6938   19.4179 C.3     1  UNL1        0.0312
     22 C           4.0691   -3.5033   20.1544 C.3     1  UNL1        0.1274
     23 C           3.6531   -2.1200   19.7500 C.ar    1  UNL1        0.0038
     24 C           2.3404   -1.5648   20.2176 C.ar    1  UNL1       -0.0025
     25 C           1.9244   -0.1816   19.8132 C.ar    1  UNL1        0.0036
     26 C           2.8211    0.6465   18.9412 C.ar    1  UNL1        0.0714
     27 C           4.1337    0.0913   18.4736 C.ar    1  UNL1        0.0074
     28 C           4.5497   -1.2919   18.8780 C.ar    1  UNL1        0.0692
     29 C           2.4050    2.0298   18.5368 C.3     1  UNL1        0.4186
     30 F           1.9889    3.4130   18.1325 F       1  UNL1       -0.1659
     31 F           3.7355    2.5602   18.9822 F       1  UNL1       -0.1659
     32 F           1.0745    1.4993   18.0914 F       1  UNL1       -0.1659
     33 C           5.8624   -1.8472   18.4104 C.3     1  UNL1        0.4183
     34 F           7.1751   -2.4024   17.9428 F       1  UNL1       -0.1659
     35 F           6.5434   -1.2395   19.6007 F       1  UNL1       -0.1659
     36 F           5.1814   -2.4548   17.2200 F       1  UNL1       -0.1659
@<TRIPOS>BOND
     1    22    21    1
     2    22    23    1
     3    23    24   ar
     4    24    25   ar
     5    25    26   ar
     6    26    29    1
     7    29    30    1
     8    29    31    1
     9    29    32    1
    10    26    27   ar
    11    27    28   ar
    12    28    33    1
    13    33    34    1
    14    33    35    1
    15    33    36    1
    16    22     1    1
    17     1     2   ar
    18     2     3   ar
    19     3     6    1
    20     6     7   am
    21     7     8    2
    22     7    10    1
    23    10    11   ar
    24    11    12   ar
    25    12    15    1
    26    15    16   ar
    27    16    17   ar
    28    17    18   ar
    29    18    19   ar
    30    19    20   ar
    31    12    13   ar
    32    13    14   ar
    33     3     4   ar
    34     4     5   ar
    35    28    23   ar
    36     5     1   ar
    37    14    10   ar
    38    20    15   ar
    39     6     9    1
@<TRIPOS>MOLECULE
*****
 36 39 0 0 0
SMALL
GASTEIGER

@<TRIPOS>ATOM
      1 N           5.1993   -3.5812   21.5152 N.ar    1  UNL1       -0.2459
      2 C           4.8020   -3.4834   22.9583 C.ar    1  UNL1        0.1116
      3 C           6.0416   -3.6250   23.7910 C.ar    1  UNL1        0.0908
      4 C           7.2050   -3.8102   22.8625 C.ar    1  UNL1        0.1363
      5 N           6.6844   -3.7832   21.4560 N.ar    1  UNL1       -0.1661
      6 N           6.1064   -3.5878   25.2892 N.am    1  UNL1       -0.2753
      7 C           6.6958   -4.7427   26.0432 C.2     1  UNL1        0.2870
      8 O           7.2204   -5.9348   25.2992 O.2     1  UNL1       -0.2664
      9 H           5.7620   -2.8053   25.7775 H       1  UNL1        0.1554
     10 C           6.7606   -4.7055   27.5414 C.ar    1  UNL1        0.2302
     11 C           6.8333   -3.4711   28.3904 C.ar    1  UNL1        0.0689
     12 C           6.8816   -3.8989   29.8273 C.ar    1  UNL1        0.1407
     13 N           6.8388   -5.3978   29.8663 N.ar    1  UNL1       -0.0752
     14 O           6.7640   -5.8964   28.4535 O.2     1  UNL1       -0.3487
     15 C           6.9592   -2.9878   31.0163 C.ar    1  UNL1        0.1022
     16 C           5.7016   -2.5312   31.6947 C.ar    1  UNL1        0.0208
     17 C           5.7791   -1.6202   32.8837 C.ar    1  UNL1        0.0032
     18 C           7.1143   -1.1656   33.3945 C.ar    1  UNL1        0.0207
     19 C           8.3718   -1.6222   32.7162 C.ar    1  UNL1        0.0989
     20 N           8.2943   -2.5333   31.5271 N.ar    1  UNL1       -0.2422
     21 C           3.8288   -4.7424   19.6382 C.3     1  UNL1        0.0312
     22 C           4.2739   -3.4926   20.3380 C.3     1  UNL1        0.1274
     23 C           3.7936   -2.1541   19.8607 C.ar    1  UNL1        0.0038
     24 C           2.4647   -1.6281   20.3160 C.ar    1  UNL1       -0.0025
     25 C           1.9845   -0.2896   19.8387 C.ar    1  UNL1        0.0036
     26 C           2.8331    0.5228   18.9060 C.ar    1  UNL1        0.0714
     27 C           4.1620   -0.0032   18.4507 C.ar    1  UNL1        0.0074
     28 C           4.6422   -1.3417   18.9281 C.ar    1  UNL1        0.0692
     29 C           2.3528    1.8613   18.4287 C.3     1  UNL1        0.4186
     30 F           1.8725    3.1998   17.9514 F       1  UNL1       -0.1659
     31 F           0.9843    1.2900   18.2035 F       1  UNL1       -0.1659
     32 F           3.7213    2.4326   18.6539 F       1  UNL1       -0.1659
     33 C           5.9712   -1.8677   18.4728 C.3     1  UNL1        0.4183
     34 F           7.3000   -2.3938   18.0175 F       1  UNL1       -0.1659
     35 F           6.6598   -1.0120   19.4942 F       1  UNL1       -0.1659
     36 F           5.2825   -2.7235   17.4514 F       1  UNL1       -0.1659
@<TRIPOS>BOND
     1    22    21    1
     2    22    23    1
     3    23    24   ar
     4    24    25   ar
     5    25    26   ar
     6    26    29    1
     7    29    30    1
     8    29    31    1
     9    29    32    1
    10    26    27   ar
    11    27    28   ar
    12    28    33    1
    13    33    34    1
    14    33    35    1
    15    33    36    1
    16    22     1    1
    17     1     2   ar
    18     2     3   ar
    19     3     6    1
    20     6     7   am
    21     7     8    2
    22     7    10    1
    23    10    11   ar
    24    11    12   ar
    25    12    15    1
    26    15    16   ar
    27    16    17   ar
    28    17    18   ar
    29    18    19   ar
    30    19    20   ar
    31    12    13   ar
    32    13    14   ar
    33     3     4   ar
    34     4     5   ar
    35    28    23   ar
    36     5     1   ar
    37    14    10   ar
    38    20    15   ar
    39     6     9    1
@<TRIPOS>MOLECULE
*****
 36 39 0 0 0
SMALL
GASTEIGER

@<TRIPOS>ATOM
      1 N           5.7530   -2.3377   20.2073 N.ar    1  UNL1       -0.2459
      2 C           5.6653   -2.8327   21.6205 C.ar    1  UNL1        0.1116
      3 C           6.9917   -2.5932   22.2788 C.ar    1  UNL1        0.0908
      4 C           7.8992   -1.9502   21.2723 C.ar    1  UNL1        0.1363
      5 N           7.1336   -1.7923   19.9921 N.ar    1  UNL1       -0.1661
      6 N           7.3480   -2.9365   23.6948 N.am    1  UNL1       -0.2753
      7 C           7.5602   -4.3682   24.0887 C.2     1  UNL1        0.2870
      8 O           7.4160   -5.4566   23.0666 O.2     1  UNL1       -0.2664
      9 H           7.4427   -2.2222   24.3656 H       1  UNL1        0.1554
     10 C           7.9165   -4.7115   25.5048 C.ar    1  UNL1        0.2302
     11 C           7.1376   -4.3277   26.7278 C.ar    1  UNL1        0.0689
     12 C           7.8541   -4.8779   27.9253 C.ar    1  UNL1        0.1407
     13 N           9.0758   -5.6018   27.4423 N.ar    1  UNL1       -0.0752
     14 O           9.1145   -5.4990   25.9463 O.2     1  UNL1       -0.3487
     15 C           7.4242   -4.7302   29.3548 C.ar    1  UNL1        0.1022
     16 C           6.9735   -3.3947   29.8682 C.ar    1  UNL1        0.0208
     17 C           6.5436   -3.2469   31.2976 C.ar    1  UNL1        0.0032
     18 C           6.5645   -4.4345   32.2137 C.ar    1  UNL1        0.0207
     19 C           7.0152   -5.7699   31.7003 C.ar    1  UNL1        0.0989
     20 N           7.4451   -5.9178   30.2708 N.ar    1  UNL1       -0.2422
     21 C           4.6329   -3.4645   18.1517 C.3     1  UNL1        0.0312
     22 C           4.6531   -2.3805   19.1882 C.3     1  UNL1        0.1274
     23 C           3.5734   -1.3393   19.2057 C.ar    1  UNL1        0.0038
     24 C           2.4015   -1.4895   20.1298 C.ar    1  UNL1       -0.0025
     25 C           1.3219   -0.4483   20.1473 C.ar    1  UNL1        0.0036
     26 C           1.4143    0.7431   19.2407 C.ar    1  UNL1        0.0714
     27 C           2.5862    0.8933   18.3166 C.ar    1  UNL1        0.0074
     28 C           3.6658   -0.1479   18.2991 C.ar    1  UNL1        0.0692
     29 C           0.3346    1.7843   19.2582 C.3     1  UNL1        0.4186
     30 F          -0.7450    2.8255   19.2757 F       1  UNL1       -0.1659
     31 F           0.8646    2.3555   17.9765 F       1  UNL1       -0.1659
     32 F          -0.1955    1.2131   20.5398 F       1  UNL1       -0.1659
     33 C           4.8378    0.0023   17.3750 C.3     1  UNL1        0.4183
     34 F           6.0097    0.1525   16.4509 F       1  UNL1       -0.1659
     35 F           4.0714   -0.6943   16.2900 F       1  UNL1       -0.1659
     36 F           5.6041    0.6990   18.4600 F       1  UNL1       -0.1659
@<TRIPOS>BOND
     1    22    21    1
     2    22    23    1
     3    23    24   ar
     4    24    25   ar
     5    25    26   ar
     6    26    29    1
     7    29    30    1
     8    29    31    1
     9    29    32    1
    10    26    27   ar
    11    27    28   ar
    12    28    33    1
    13    33    34    1
    14    33    35    1
    15    33    36    1
    16    22     1    1
    17     1     2   ar
    18     2     3   ar
    19     3     6    1
    20     6     7   am
    21     7     8    2
    22     7    10    1
    23    10    11   ar
    24    11    12   ar
    25    12    15    1
    26    15    16   ar
    27    16    17   ar
    28    17    18   ar
    29    18    19   ar
    30    19    20   ar
    31    12    13   ar
    32    13    14   ar
    33     3     4   ar
    34     4     5   ar
    35    28    23   ar
    36     5     1   ar
    37    14    10   ar
    38    20    15   ar
    39     6     9    1
@<TRIPOS>MOLECULE
*****
 36 39 0 0 0
SMALL
GASTEIGER

@<TRIPOS>ATOM
      1 N           4.2756    1.5485   22.3010 N.ar    1  UNL1       -0.2459
      2 C           3.8608    0.7048   23.4698 C.ar    1  UNL1        0.1116
      3 C           4.1701    1.4665   24.7244 C.ar    1  UNL1        0.0908
      4 C           4.7761    2.7810   24.3311 C.ar    1  UNL1        0.1363
      5 N           4.8414    2.8317   22.8334 N.ar    1  UNL1       -0.1661
      6 N           3.9176    0.9962   26.1263 N.am    1  UNL1       -0.2753
      7 C           2.5146    0.9230   26.6515 C.2     1  UNL1        0.2870
      8 O           1.3639    1.3202   25.7750 O.2     1  UNL1       -0.2664
      9 H           4.6729    0.7355   26.7015 H       1  UNL1        0.1554
     10 C           2.2621    0.4528   28.0534 C.ar    1  UNL1        0.2302
     11 C           3.2952    0.2923   29.1290 C.ar    1  UNL1        0.0689
     12 C           2.6038   -0.1993   30.3661 C.ar    1  UNL1        0.1407
     13 N           1.1434   -0.3426   30.0550 N.ar    1  UNL1       -0.0752
     14 O           0.9322    0.0605   28.6256 O.2     1  UNL1       -0.3487
     15 C           3.2580   -0.4955   31.6830 C.ar    1  UNL1        0.1022
     16 C           3.4432    0.5993   32.6916 C.ar    1  UNL1        0.0208
     17 C           4.0973    0.3031   34.0084 C.ar    1  UNL1        0.0032
     18 C           4.5663   -1.0879   34.3169 C.ar    1  UNL1        0.0207
     19 C           4.3811   -2.1827   33.3084 C.ar    1  UNL1        0.0989
     20 N           3.7269   -1.8865   31.9914 N.ar    1  UNL1       -0.2422
     21 C           3.9036    2.2372   19.8237 C.3     1  UNL1        0.0312
     22 C           4.1473    1.1747   20.8540 C.3     1  UNL1        0.1274
     23 C           4.2628   -0.2617   20.4374 C.ar    1  UNL1        0.0038
     24 C           5.6084   -0.9226   20.3883 C.ar    1  UNL1       -0.0025
     25 C           5.7238   -2.3589   19.9717 C.ar    1  UNL1        0.0036
     26 C           4.4935   -3.1344   19.6042 C.ar    1  UNL1        0.0714
     27 C           3.1479   -2.4735   19.6532 C.ar    1  UNL1        0.0074
     28 C           3.0325   -1.0372   20.0699 C.ar    1  UNL1        0.0692
     29 C           4.6090   -4.5708   19.1875 C.3     1  UNL1        0.4186
     30 F           4.7244   -6.0071   18.7709 F       1  UNL1       -0.1659
     31 F           6.0127   -4.6109   19.7146 F       1  UNL1       -0.1659
     32 F           3.2052   -4.5306   18.6604 F       1  UNL1       -0.1659
     33 C           1.6868   -0.3763   20.1190 C.3     1  UNL1        0.4183
     34 F           0.3412    0.2846   20.1680 F       1  UNL1       -0.1659
     35 F           1.7843   -0.0691   18.6540 F       1  UNL1       -0.1659
     36 F           1.5893   -0.6835   21.5839 F       1  UNL1       -0.1659
@<TRIPOS>BOND
     1    22    21    1
     2    22    23    1
     3    23    24   ar
     4    24    25   ar
     5    25    26   ar
     6    26    29    1
     7    29    30    1
     8    29    31    1
     9    29    32    1
    10    26    27   ar
    11    27    28   ar
    12    28    33    1
    13    33    34    1
    14    33    35    1
    15    33    36    1
    16    22     1    1
    17     1     2   ar
    18     2     3   ar
    19     3     6    1
    20     6     7   am
    21     7     8    2
    22     7    10    1
    23    10    11   ar
    24    11    12   ar
    25    12    15    1
    26    15    16   ar
    27    16    17   ar
    28    17    18   ar
    29    18    19   ar
    30    19    20   ar
    31    12    13   ar
    32    13    14   ar
    33     3     4   ar
    34     4     5   ar
    35    28    23   ar
    36     5     1   ar
    37    14    10   ar
    38    20    15   ar
    39     6     9    1
@<TRIPOS>MOLECULE
*****
 36 39 0 0 0
SMALL
GASTEIGER

@<TRIPOS>ATOM
      1 N           5.7791   -3.8983   21.9671 N.ar    1  UNL1       -0.2459
      2 C           5.3644   -3.5479   23.3654 C.ar    1  UNL1        0.1116
      3 C           6.4908   -3.9100   24.2875 C.ar    1  UNL1        0.0908
      4 C           7.6017   -4.4841   23.4590 C.ar    1  UNL1        0.1363
      5 N           7.1618   -4.4769   22.0249 N.ar    1  UNL1       -0.1661
      6 N           6.5040   -3.7296   25.7765 N.am    1  UNL1       -0.2753
      7 C           6.7208   -4.9123   26.6733 C.2     1  UNL1        0.2870
      8 O           6.9244   -6.2753   26.0811 O.2     1  UNL1       -0.2664
      9 H           6.3704   -2.8350   26.1652 H       1  UNL1        0.1554
     10 C           6.7340   -4.7319   28.1624 C.ar    1  UNL1        0.2302
     11 C           6.5359   -3.4383   28.8956 C.ar    1  UNL1        0.0689
     12 C           6.6271   -3.7204   30.3660 C.ar    1  UNL1        0.1407
     13 N           6.8814   -5.1882   30.5416 N.ar    1  UNL1       -0.0752
     14 O           6.9475   -5.8134   29.1796 O.2     1  UNL1       -0.3487
     15 C           6.4882   -2.7117   31.4675 C.ar    1  UNL1        0.1022
     16 C           5.3263   -2.7890   32.4132 C.ar    1  UNL1        0.0208
     17 C           5.1874   -1.7803   33.5146 C.ar    1  UNL1        0.0032
     18 C           6.2104   -0.6943   33.6705 C.ar    1  UNL1        0.0207
     19 C           7.3722   -0.6171   32.7249 C.ar    1  UNL1        0.0989
     20 N           7.5111   -1.6258   31.6234 N.ar    1  UNL1       -0.2422
     21 C           3.8912   -4.6990   20.3719 C.3     1  UNL1        0.0312
     22 C           4.9557   -3.7041   20.7284 C.3     1  UNL1        0.1274
     23 C           5.1968   -2.5151   19.8463 C.ar    1  UNL1        0.0038
     24 C           6.2056   -2.5949   18.7391 C.ar    1  UNL1       -0.0025
     25 C           6.4466   -1.4059   17.8571 C.ar    1  UNL1        0.0036
     26 C           5.6789   -0.1370   18.0822 C.ar    1  UNL1        0.0714
     27 C           4.6701   -0.0572   19.1894 C.ar    1  UNL1        0.0074
     28 C           4.4290   -1.2463   20.0714 C.ar    1  UNL1        0.0692
     29 C           5.9200    1.0520   17.2000 C.3     1  UNL1        0.4186
     30 F           6.1611    2.2410   16.3179 F       1  UNL1       -0.1659
     31 F           4.8441    1.8067   17.9231 F       1  UNL1       -0.1659
     32 F           6.9959    0.2973   16.4769 F       1  UNL1       -0.1659
     33 C           3.4202   -1.1665   21.1787 C.3     1  UNL1        0.4183
     34 F           2.4114   -1.0867   22.2859 F       1  UNL1       -0.1659
     35 F           4.4838   -0.6684   22.1118 F       1  UNL1       -0.1659
     36 F           2.3566   -1.6646   20.2456 F       1  UNL1       -0.1659
@<TRIPOS>BOND
     1    22    21    1
     2    22    23    1
     3    23    24   ar
     4    24    25   ar
     5    25    26   ar
     6    26    29    1
     7    29    30    1
     8    29    31    1
     9    29    32    1
    10    26    27   ar
    11    27    28   ar
    12    28    33    1
    13    33    34    1
    14    33    35    1
    15    33    36    1
    16    22     1    1
    17     1     2   ar
    18     2     3   ar
    19     3     6    1
    20     6     7   am
    21     7     8    2
    22     7    10    1
    23    10    11   ar
    24    11    12   ar
    25    12    15    1
    26    15    16   ar
    27    16    17   ar
    28    17    18   ar
    29    18    19   ar
    30    19    20   ar
    31    12    13   ar
    32    13    14   ar
    33     3     4   ar
    34     4     5   ar
    35    28    23   ar
    36     5     1   ar
    37    14    10   ar
    38    20    15   ar
    39     6     9    1
