@<TRIPOS>MOLECULE
*****
 30 34 0 0 0
SMALL
GASTEIGER

@<TRIPOS>ATOM
      1 N          -4.2496  -17.8441   22.7036 N.ar    1  UNL1       -0.3256
      2 C          -5.4981  -18.3569   22.0492 C.ar    1  UNL1        0.0367
      3 C          -5.1752  -18.6736   20.6190 C.ar    1  UNL1        0.0109
      4 C          -3.7271  -18.3566   20.3895 C.ar    1  UNL1        0.0167
      5 C          -2.8556  -18.4685   19.1738 C.ar    1  UNL1        0.0308
      6 C          -1.4120  -18.0677   19.2465 C.ar    1  UNL1        0.1402
      7 F          -0.5404  -18.1796   18.0308 F       1  UNL1       -0.2042
      8 C          -0.8399  -17.5550   20.5349 C.ar    1  UNL1        0.0311
      9 C          -1.7115  -17.4431   21.7505 C.ar    1  UNL1        0.0195
     10 C          -3.1551  -17.8439   21.6778 C.ar    1  UNL1        0.0598
     11 C          -6.2414  -19.2099   19.7105 C.3     1  UNL1        0.1213
     12 N          -7.6306  -19.4294   20.2321 N.am    1  UNL1       -0.2747
     13 C          -8.6969  -19.9656   19.3235 C.2     1  UNL1        0.2304
     14 O          -8.3740  -20.2824   17.8933 O.2     1  UNL1       -0.2745
     15 C          -7.9535  -19.1126   21.6623 C.3     1  UNL1        0.0999
     16 C          -6.8872  -18.5764   22.5708 C.3     1  UNL1        0.0650
     17 C          -4.1185  -17.4080   24.1328 C.3     1  UNL1        0.1474
     18 O          -5.1038  -15.0616   23.6093 O.co2   1  UNL1       -0.5472
     19 C          -4.7828  -16.1454   24.5956 C.2     1  UNL1        0.0732
     20 O          -5.1263  -15.9662   26.0447 O.co2   1  UNL1       -0.5472
     21 C         -10.0861  -20.1851   19.8452 C.3     1  UNL1        0.1131
     22 C         -10.9093  -19.0167   20.3006 C.2     1  UNL1        0.0072
     23 C         -11.3218  -17.8467   19.4576 C.2     1  UNL1        0.0947
     24 N         -12.1321  -16.9203   20.3150 N.2     1  UNL1       -0.2481
     25 C         -12.2203  -17.5178   21.6881 C.2     1  UNL1        0.0631
     26 C         -12.8911  -17.0494   22.9453 C.3     1  UNL1        0.0717
     27 C         -12.8062  -17.8768   24.1937 C.2     1  UNL1       -0.0198
     28 C         -12.0505  -19.1724   24.1848 C.2     1  UNL1       -0.0042
     29 C         -11.3797  -19.6408   22.9276 C.2     1  UNL1        0.0006
     30 C         -11.4646  -18.8135   21.6792 C.2     1  UNL1        0.0119
@<TRIPOS>UNITY_ATOM_ATTR
18 1
charge -1
@<TRIPOS>BOND
     1    18    19   ar
     2    19    20   ar
     3    19    17    1
     4    17     1    1
     5     1     2   ar
     6     2     3   ar
     7     3     4   ar
     8     4     5   ar
     9     5     6   ar
    10     6     7    1
    11     6     8   ar
    12     8     9   ar
    13     9    10   ar
    14     3    11    1
    15    11    12    1
    16    12    13   am
    17    13    14    2
    18    13    21    1
    19    21    22    1
    20    22    23    2
    21    23    24    1
    22    24    25    2
    23    25    26    1
    24    26    27    1
    25    27    28    2
    26    28    29    1
    27    29    30    2
    28    12    15    1
    29    15    16    1
    30    10     1   ar
    31    30    22    1
    32    16     2    1
    33    10     4   ar
    34    30    25    1
@<TRIPOS>MOLECULE
*****
 30 34 0 0 0
SMALL
GASTEIGER

@<TRIPOS>ATOM
      1 N         -11.1396  -17.9242   20.3469 N.ar    1  UNL1       -0.3256
      2 C          -9.8190  -18.6284   20.4477 C.ar    1  UNL1        0.0367
      3 C          -9.6899  -19.1744   21.8388 C.ar    1  UNL1        0.0109
      4 C         -10.9306  -18.8077   22.5978 C.ar    1  UNL1        0.0167
      5 C         -11.3602  -19.0775   24.0093 C.ar    1  UNL1        0.0308
      6 C         -12.6859  -18.5745   24.4989 C.ar    1  UNL1        0.1402
      7 F         -13.1156  -18.8443   25.9105 F       1  UNL1       -0.2042
      8 C         -13.5819  -17.8018   23.5768 C.ar    1  UNL1        0.0311
      9 C         -13.1522  -17.5320   22.1653 C.ar    1  UNL1        0.0195
     10 C         -11.8266  -18.0349   21.6757 C.ar    1  UNL1        0.0598
     11 C          -8.4591  -19.9351   22.2346 C.3     1  UNL1        0.1213
     12 N          -7.3576  -20.1497   21.2394 N.am    1  UNL1       -0.2747
     13 C          -6.1268  -20.9104   21.6353 C.2     1  UNL1        0.2304
     14 O          -5.9977  -21.4564   23.0264 O.2     1  UNL1       -0.2745
     15 C          -7.4867  -19.6037   19.8483 C.3     1  UNL1        0.0999
     16 C          -8.7174  -18.8431   19.4524 C.3     1  UNL1        0.0650
     17 C         -11.6785  -17.2309   19.1308 C.3     1  UNL1        0.1474
     18 O         -13.1876  -15.1386   19.4393 O.co2   1  UNL1       -0.5472
     19 C         -11.8487  -15.7406   19.1307 C.2     1  UNL1        0.0732
     20 O         -10.6802  -14.8523   18.8221 O.co2   1  UNL1       -0.5472
     21 C          -5.0253  -21.1250   20.6400 C.3     1  UNL1        0.1131
     22 C          -4.0426  -20.0266   20.3605 C.2     1  UNL1        0.0072
     23 C          -3.2182  -19.8766   19.1164 C.2     1  UNL1        0.0947
     24 N          -2.3781  -18.6427   19.2631 N.2     1  UNL1       -0.2481
     25 C          -2.6832  -18.0301   20.5978 C.2     1  UNL1        0.0631
     26 C          -2.1573  -16.8039   21.2832 C.3     1  UNL1        0.0717
     27 C          -2.6600  -16.4330   22.6470 C.2     1  UNL1       -0.0198
     28 C          -3.6888  -17.2883   23.3252 C.2     1  UNL1       -0.0042
     29 C          -4.2148  -18.5144   22.6398 C.2     1  UNL1        0.0006
     30 C          -3.7120  -18.8854   21.2761 C.2     1  UNL1        0.0119
@<TRIPOS>UNITY_ATOM_ATTR
18 1
charge -1
@<TRIPOS>BOND
     1    18    19   ar
     2    19    20   ar
     3    19    17    1
     4    17     1    1
     5     1     2   ar
     6     2     3   ar
     7     3     4   ar
     8     4     5   ar
     9     5     6   ar
    10     6     7    1
    11     6     8   ar
    12     8     9   ar
    13     9    10   ar
    14     3    11    1
    15    11    12    1
    16    12    13   am
    17    13    14    2
    18    13    21    1
    19    21    22    1
    20    22    23    2
    21    23    24    1
    22    24    25    2
    23    25    26    1
    24    26    27    1
    25    27    28    2
    26    28    29    1
    27    29    30    2
    28    12    15    1
    29    15    16    1
    30    10     1   ar
    31    30    22    1
    32    16     2    1
    33    10     4   ar
    34    30    25    1
@<TRIPOS>MOLECULE
*****
 30 34 0 0 0
SMALL
GASTEIGER

@<TRIPOS>ATOM
      1 N           3.3254   -1.8050   20.4166 N.ar    1  UNL1       -0.3256
      2 C           4.1298   -1.8879   21.6799 C.ar    1  UNL1        0.0367
      3 C           3.5491   -0.9159   22.6637 C.ar    1  UNL1        0.0109
      4 C           2.3857   -0.2323   22.0085 C.ar    1  UNL1        0.0167
      5 C           1.4344    0.8194   22.4971 C.ar    1  UNL1        0.0308
      6 C           0.3448    1.3217   21.5968 C.ar    1  UNL1        0.1402
      7 F          -0.6065    2.3736   22.0854 F       1  UNL1       -0.2042
      8 C           0.2066    0.7722   20.2079 C.ar    1  UNL1        0.0311
      9 C           1.1579   -0.2796   19.7194 C.ar    1  UNL1        0.0195
     10 C           2.2474   -0.7819   20.6197 C.ar    1  UNL1        0.0598
     11 C           4.1546   -0.7788   24.0292 C.3     1  UNL1        0.1213
     12 N           5.3409   -1.6137   24.4108 N.am    1  UNL1       -0.2747
     13 C           5.9465   -1.4766   25.7763 C.2     1  UNL1        0.2304
     14 O           5.3658   -0.5047   26.7602 O.2     1  UNL1       -0.2745
     15 C           5.9217   -2.5857   23.4269 C.3     1  UNL1        0.0999
     16 C           5.3161   -2.7228   22.0615 C.3     1  UNL1        0.0650
     17 C           3.5580   -2.6049   19.1691 C.3     1  UNL1        0.1474
     18 O           5.6711   -2.5338   17.6593 O.co2   1  UNL1       -0.5472
     19 C           4.3158   -2.0035   18.0229 C.2     1  UNL1        0.0732
     20 O           3.7185   -0.8718   17.2403 O.co2   1  UNL1       -0.5472
     21 C           7.1328   -2.3116   26.1578 C.3     1  UNL1        0.1131
     22 C           6.9335   -3.7046   26.6774 C.2     1  UNL1        0.0072
     23 C           6.2840   -4.0762   27.9774 C.2     1  UNL1        0.0947
     24 N           6.2978   -5.5718   28.0916 N.2     1  UNL1       -0.2481
     25 C           6.9560   -6.1245   26.8622 C.2     1  UNL1        0.0631
     26 C           7.2482   -7.5295   26.4257 C.3     1  UNL1        0.0717
     27 C           7.9335   -7.7805   25.1151 C.2     1  UNL1       -0.0198
     28 C           8.3264   -6.6265   24.2411 C.2     1  UNL1       -0.0042
     29 C           8.0341   -5.2216   24.6777 C.2     1  UNL1        0.0006
     30 C           7.3489   -4.9705   25.9882 C.2     1  UNL1        0.0119
@<TRIPOS>UNITY_ATOM_ATTR
18 1
charge -1
@<TRIPOS>BOND
     1    18    19   ar
     2    19    20   ar
     3    19    17    1
     4    17     1    1
     5     1     2   ar
     6     2     3   ar
     7     3     4   ar
     8     4     5   ar
     9     5     6   ar
    10     6     7    1
    11     6     8   ar
    12     8     9   ar
    13     9    10   ar
    14     3    11    1
    15    11    12    1
    16    12    13   am
    17    13    14    2
    18    13    21    1
    19    21    22    1
    20    22    23    2
    21    23    24    1
    22    24    25    2
    23    25    26    1
    24    26    27    1
    25    27    28    2
    26    28    29    1
    27    29    30    2
    28    12    15    1
    29    15    16    1
    30    10     1   ar
    31    30    22    1
    32    16     2    1
    33    10     4   ar
    34    30    25    1
@<TRIPOS>MOLECULE
*****
 30 34 0 0 0
SMALL
GASTEIGER

@<TRIPOS>ATOM
      1 N         -13.1700   -4.2936   19.3443 N.ar    1  UNL1       -0.3256
      2 C         -13.7469   -2.9182   19.1846 C.ar    1  UNL1        0.0367
      3 C         -12.8110   -2.1199   18.3262 C.ar    1  UNL1        0.0109
      4 C         -11.6557   -3.0019   17.9554 C.ar    1  UNL1        0.0167
      5 C         -10.4304   -2.7552   17.1262 C.ar    1  UNL1        0.0308
      6 C          -9.4270   -3.8520   16.9261 C.ar    1  UNL1        0.1402
      7 F          -8.2016   -3.6054   16.0968 F       1  UNL1       -0.2042
      8 C          -9.6488   -5.1954   17.5554 C.ar    1  UNL1        0.0311
      9 C         -10.8741   -5.4421   18.3847 C.ar    1  UNL1        0.0195
     10 C         -11.8776   -4.3453   18.5847 C.ar    1  UNL1        0.0598
     11 C         -13.1318   -0.6930   17.9931 C.3     1  UNL1        0.1213
     12 N         -14.3884   -0.0644   18.5183 N.am    1  UNL1       -0.2747
     13 C         -14.7091    1.3626   18.1851 C.2     1  UNL1        0.2304
     14 O         -13.7732    2.1609   17.3268 O.2     1  UNL1       -0.2745
     15 C         -15.3242   -0.8627   19.3767 C.3     1  UNL1        0.0999
     16 C         -15.0035   -2.2896   19.7098 C.3     1  UNL1        0.0650
     17 C         -13.7786   -5.4196   20.1264 C.3     1  UNL1        0.1474
     18 O         -16.0138   -6.5739   19.4774 O.co2   1  UNL1       -0.5472
     19 C         -14.5163   -6.5145   19.4145 C.2     1  UNL1        0.0732
     20 O         -13.7566   -7.5501   18.6397 O.co2   1  UNL1       -0.5472
     21 C         -15.9657    1.9911   18.7104 C.3     1  UNL1        0.1131
     22 C         -15.8847    3.1187   19.6964 C.2     1  UNL1        0.0072
     23 C         -15.2631    4.4616   19.4510 C.2     1  UNL1        0.0947
     24 N         -15.4054    5.2741   20.7038 N.2     1  UNL1       -0.2481
     25 C         -16.1150    4.4335   21.7234 C.2     1  UNL1        0.0631
     26 C         -16.5297    4.7089   23.1384 C.3     1  UNL1        0.0717
     27 C         -17.2406    3.6521   23.9308 C.2     1  UNL1       -0.0198
     28 C         -17.5369    2.3201   23.3083 C.2     1  UNL1       -0.0042
     29 C         -17.1222    2.0447   21.8933 C.2     1  UNL1        0.0006
     30 C         -16.4113    3.1013   21.1008 C.2     1  UNL1        0.0119
@<TRIPOS>UNITY_ATOM_ATTR
18 1
charge -1
@<TRIPOS>BOND
     1    18    19   ar
     2    19    20   ar
     3    19    17    1
     4    17     1    1
     5     1     2   ar
     6     2     3   ar
     7     3     4   ar
     8     4     5   ar
     9     5     6   ar
    10     6     7    1
    11     6     8   ar
    12     8     9   ar
    13     9    10   ar
    14     3    11    1
    15    11    12    1
    16    12    13   am
    17    13    14    2
    18    13    21    1
    19    21    22    1
    20    22    23    2
    21    23    24    1
    22    24    25    2
    23    25    26    1
    24    26    27    1
    25    27    28    2
    26    28    29    1
    27    29    30    2
    28    12    15    1
    29    15    16    1
    30    10     1   ar
    31    30    22    1
    32    16     2    1
    33    10     4   ar
    34    30    25    1
@<TRIPOS>MOLECULE
*****
 30 34 0 0 0
SMALL
GASTEIGER

@<TRIPOS>ATOM
      1 N           3.9953   -2.2945   20.2414 N.ar    1  UNL1       -0.3256
      2 C           4.6130   -2.4691   21.5971 C.ar    1  UNL1        0.0367
      3 C           3.8771   -1.5843   22.5591 C.ar    1  UNL1        0.0109
      4 C           2.8046   -0.8628   21.7980 C.ar    1  UNL1        0.0167
      5 C           1.7710    0.1371   22.2242 C.ar    1  UNL1        0.0308
      6 C           0.8104    0.6980   21.2180 C.ar    1  UNL1        0.1402
      7 F          -0.2233    1.6980   21.6442 F       1  UNL1       -0.2042
      8 C           0.8835    0.2591   19.7855 C.ar    1  UNL1        0.0311
      9 C           1.9171   -0.7408   19.3593 C.ar    1  UNL1        0.0195
     10 C           2.8777   -1.3018   20.3655 C.ar    1  UNL1        0.0598
     11 C           4.2787   -1.5499   24.0039 C.3     1  UNL1        0.1213
     12 N           5.4161   -2.4002   24.4867 N.am    1  UNL1       -0.2747
     13 C           5.8177   -2.3658   25.9316 C.2     1  UNL1        0.2304
     14 O           5.0818   -1.4809   26.8937 O.2     1  UNL1       -0.2745
     15 C           6.1520   -3.2851   23.5247 C.3     1  UNL1        0.0999
     16 C           5.7505   -3.3195   22.0799 C.3     1  UNL1        0.0650
     17 C           4.4206   -2.9905   18.9825 C.3     1  UNL1        0.1474
     18 O           6.5985   -2.4027   17.6935 O.co2   1  UNL1       -0.5472
     19 C           5.1239   -2.2234   17.9023 C.2     1  UNL1        0.0732
     20 O           4.3527   -1.2769   17.0308 O.co2   1  UNL1       -0.5472
     21 C           6.9551   -3.2162   26.4143 C.3     1  UNL1        0.1131
     22 C           6.8647   -3.9053   27.7437 C.2     1  UNL1        0.0072
     23 C           6.5297   -5.3503   27.9667 C.2     1  UNL1        0.0947
     24 N           6.5514   -5.6084   29.4441 N.2     1  UNL1       -0.2481
     25 C           6.8999   -4.3230   30.1342 C.2     1  UNL1        0.0631
     26 C           7.0659   -3.9750   31.5838 C.3     1  UNL1        0.0717
     27 C           7.4255   -2.5743   31.9824 C.2     1  UNL1       -0.0198
     28 C           7.6192   -1.5218   30.9315 C.2     1  UNL1       -0.0042
     29 C           7.4532   -1.8698   29.4819 C.2     1  UNL1        0.0006
     30 C           7.0935   -3.2704   29.0832 C.2     1  UNL1        0.0119
@<TRIPOS>UNITY_ATOM_ATTR
18 1
charge -1
@<TRIPOS>BOND
     1    18    19   ar
     2    19    20   ar
     3    19    17    1
     4    17     1    1
     5     1     2   ar
     6     2     3   ar
     7     3     4   ar
     8     4     5   ar
     9     5     6   ar
    10     6     7    1
    11     6     8   ar
    12     8     9   ar
    13     9    10   ar
    14     3    11    1
    15    11    12    1
    16    12    13   am
    17    13    14    2
    18    13    21    1
    19    21    22    1
    20    22    23    2
    21    23    24    1
    22    24    25    2
    23    25    26    1
    24    26    27    1
    25    27    28    2
    26    28    29    1
    27    29    30    2
    28    12    15    1
    29    15    16    1
    30    10     1   ar
    31    30    22    1
    32    16     2    1
    33    10     4   ar
    34    30    25    1
@<TRIPOS>MOLECULE
*****
 30 34 0 0 0
SMALL
GASTEIGER

@<TRIPOS>ATOM
      1 N           3.0308   -0.1214   20.6320 N.ar    1  UNL1       -0.3256
      2 C           3.3124   -0.0866   22.1049 C.ar    1  UNL1        0.0367
      3 C           3.9678   -1.3821   22.4822 C.ar    1  UNL1        0.0109
      4 C           4.0912   -2.2175   21.2425 C.ar    1  UNL1        0.0167
      5 C           4.6560   -3.5870   21.0071 C.ar    1  UNL1        0.0308
      6 C           4.6417   -4.1773   19.6283 C.ar    1  UNL1        0.1402
      7 F           5.2066   -5.5468   19.3929 F       1  UNL1       -0.2042
      8 C           4.0626   -3.3981   18.4848 C.ar    1  UNL1        0.0311
      9 C           3.4978   -2.0287   18.7201 C.ar    1  UNL1        0.0195
     10 C           3.5120   -1.4383   20.0990 C.ar    1  UNL1        0.0598
     11 C           4.3675   -1.6336   23.9059 C.3     1  UNL1        0.1213
     12 N           4.1120   -0.5897   24.9523 N.am    1  UNL1       -0.2747
     13 C           4.5117   -0.8413   26.3760 C.2     1  UNL1        0.2304
     14 O           5.1671   -2.1368   26.7533 O.2     1  UNL1       -0.2745
     15 C           3.4566    0.7057   24.5750 C.3     1  UNL1        0.0999
     16 C           3.0568    0.9573   23.1514 C.3     1  UNL1        0.0650
     17 C           2.3818    0.9692   19.8325 C.3     1  UNL1        0.1474
     18 O          -0.0398    0.2568   20.4477 O.co2   1  UNL1       -0.5472
     19 C           0.9261    0.8781   19.4826 C.2     1  UNL1        0.0732
     20 O           0.4360    1.4082   18.1677 O.co2   1  UNL1       -0.5472
     21 C           4.2561    0.2026   27.4224 C.3     1  UNL1        0.1131
     22 C           3.0881    0.0614   28.3530 C.2     1  UNL1        0.0072
     23 C           3.1248   -0.5316   29.7303 C.2     1  UNL1        0.0947
     24 N           1.7377   -0.4711   30.2981 N.2     1  UNL1       -0.2481
     25 C           0.8438    0.1594   29.2717 C.2     1  UNL1        0.0631
     26 C          -0.6223    0.4763   29.2764 C.3     1  UNL1        0.0717
     27 C          -1.2539    1.1223   28.0790 C.2     1  UNL1       -0.0198
     28 C          -0.4193    1.4514   26.8769 C.2     1  UNL1       -0.0042
     29 C           1.0468    1.1345   26.8721 C.2     1  UNL1        0.0006
     30 C           1.6784    0.4885   28.0695 C.2     1  UNL1        0.0119
@<TRIPOS>UNITY_ATOM_ATTR
18 1
charge -1
@<TRIPOS>BOND
     1    18    19   ar
     2    19    20   ar
     3    19    17    1
     4    17     1    1
     5     1     2   ar
     6     2     3   ar
     7     3     4   ar
     8     4     5   ar
     9     5     6   ar
    10     6     7    1
    11     6     8   ar
    12     8     9   ar
    13     9    10   ar
    14     3    11    1
    15    11    12    1
    16    12    13   am
    17    13    14    2
    18    13    21    1
    19    21    22    1
    20    22    23    2
    21    23    24    1
    22    24    25    2
    23    25    26    1
    24    26    27    1
    25    27    28    2
    26    28    29    1
    27    29    30    2
    28    12    15    1
    29    15    16    1
    30    10     1   ar
    31    30    22    1
    32    16     2    1
    33    10     4   ar
    34    30    25    1
@<TRIPOS>MOLECULE
*****
 30 34 0 0 0
SMALL
GASTEIGER

@<TRIPOS>ATOM
      1 N           3.7397   -0.7161   19.0625 N.ar    1  UNL1       -0.3256
      2 C           2.7609    0.2214   19.7051 C.ar    1  UNL1        0.0367
      3 C           2.6739   -0.1261   21.1617 C.ar    1  UNL1        0.0109
      4 C           3.5989   -1.2785   21.4193 C.ar    1  UNL1        0.0167
      5 C           3.9265   -2.0429   22.6677 C.ar    1  UNL1        0.0308
      6 C           4.9128   -3.1719   22.6186 C.ar    1  UNL1        0.1402
      7 F           5.2405   -3.9364   23.8670 F       1  UNL1       -0.2042
      8 C           5.5715   -3.5366   21.3213 C.ar    1  UNL1        0.0311
      9 C           5.2439   -2.7722   20.0729 C.ar    1  UNL1        0.0195
     10 C           4.2576   -1.6432   20.1220 C.ar    1  UNL1        0.0598
     11 C           1.7636    0.6516   22.0652 C.3     1  UNL1        0.1213
     12 N           0.9403    1.7770   21.5122 N.am    1  UNL1       -0.2747
     13 C           0.0300    2.5548   22.4158 C.2     1  UNL1        0.2304
     14 O          -0.0570    2.2072   23.8724 O.2     1  UNL1       -0.2745
     15 C           1.0273    2.1246   20.0556 C.3     1  UNL1        0.0999
     16 C           1.9376    1.3468   19.1521 C.3     1  UNL1        0.0650
     17 C           4.1317   -0.7252   17.6147 C.3     1  UNL1        0.1474
     18 O           5.7756    1.1264   16.8278 O.co2   1  UNL1       -0.5472
     19 C           5.5117   -0.3003   17.2087 C.2     1  UNL1        0.0732
     20 O           6.6280   -1.3020   17.1835 O.co2   1  UNL1       -0.5472
     21 C          -0.7933    3.6801   21.8627 C.3     1  UNL1        0.1131
     22 C          -2.2851    3.5473   21.7792 C.2     1  UNL1        0.0072
     23 C          -3.0723    3.2045   20.5493 C.2     1  UNL1        0.0947
     24 N          -4.5252    3.1793   20.9209 N.2     1  UNL1       -0.2481
     25 C          -4.6361    3.5065   22.3806 C.2     1  UNL1        0.0631
     26 C          -5.8188    3.6267   23.2953 C.3     1  UNL1        0.0717
     27 C          -5.6171    3.9744   24.7405 C.2     1  UNL1       -0.0198
     28 C          -4.2326    4.2018   25.2709 C.2     1  UNL1       -0.0042
     29 C          -3.0499    4.0816   24.3562 C.2     1  UNL1        0.0006
     30 C          -3.2515    3.7339   22.9111 C.2     1  UNL1        0.0119
@<TRIPOS>UNITY_ATOM_ATTR
18 1
charge -1
@<TRIPOS>BOND
     1    18    19   ar
     2    19    20   ar
     3    19    17    1
     4    17     1    1
     5     1     2   ar
     6     2     3   ar
     7     3     4   ar
     8     4     5   ar
     9     5     6   ar
    10     6     7    1
    11     6     8   ar
    12     8     9   ar
    13     9    10   ar
    14     3    11    1
    15    11    12    1
    16    12    13   am
    17    13    14    2
    18    13    21    1
    19    21    22    1
    20    22    23    2
    21    23    24    1
    22    24    25    2
    23    25    26    1
    24    26    27    1
    25    27    28    2
    26    28    29    1
    27    29    30    2
    28    12    15    1
    29    15    16    1
    30    10     1   ar
    31    30    22    1
    32    16     2    1
    33    10     4   ar
    34    30    25    1
@<TRIPOS>MOLECULE
*****
 30 34 0 0 0
SMALL
GASTEIGER

@<TRIPOS>ATOM
      1 N           3.2598   -1.0640   23.1165 N.ar    1  UNL1       -0.3256
      2 C           2.3938   -0.0233   22.4707 C.ar    1  UNL1        0.0367
      3 C           2.3696   -0.2912   20.9950 C.ar    1  UNL1        0.0109
      4 C           3.2207   -1.4973   20.7288 C.ar    1  UNL1        0.0167
      5 C           3.5658   -2.2224   19.4619 C.ar    1  UNL1        0.0308
      6 C           4.4610   -3.4251   19.5061 C.ar    1  UNL1        0.1402
      7 F           4.8062   -4.1502   18.2391 F       1  UNL1       -0.2042
      8 C           5.0112   -3.9027   20.8173 C.ar    1  UNL1        0.0311
      9 C           4.6661   -3.1777   22.0842 C.ar    1  UNL1        0.0195
     10 C           3.7709   -1.9750   22.0400 C.ar    1  UNL1        0.0598
     11 C           1.5758    0.5979   20.0843 C.3     1  UNL1        0.1213
     12 N           0.8061    1.7547   20.6493 N.am    1  UNL1       -0.2747
     13 C           0.0122    2.6438   19.7385 C.2     1  UNL1        0.2304
     14 O          -0.0120    2.3760   18.2629 O.2     1  UNL1       -0.2745
     15 C           0.8302    2.0226   22.1250 C.3     1  UNL1        0.0999
     16 C           1.6241    1.1336   23.0357 C.3     1  UNL1        0.0650
     17 C           3.5617   -1.1743   24.5816 C.3     1  UNL1        0.1474
     18 O           5.3256   -1.1775   26.4892 O.co2   1  UNL1       -0.5472
     19 C           4.9157   -0.7890   25.0995 C.2     1  UNL1        0.0732
     20 O           5.8599   -0.0153   24.2278 O.co2   1  UNL1       -0.5472
     21 C          -0.7575    3.8007   20.3036 C.3     1  UNL1        0.1131
     22 C          -2.2249    3.6609   20.5817 C.2     1  UNL1        0.0072
     23 C          -3.3122    3.5670   19.5527 C.2     1  UNL1        0.0947
     24 N          -4.6219    3.4386   20.2726 N.2     1  UNL1       -0.2481
     25 C          -4.3440    3.4531   21.7465 C.2     1  UNL1        0.0631
     26 C          -5.2485    3.3590   22.9394 C.3     1  UNL1        0.0717
     27 C          -4.6715    3.4024   24.3234 C.2     1  UNL1       -0.0198
     28 C          -3.1902    3.5398   24.5144 C.2     1  UNL1       -0.0042
     29 C          -2.2857    3.6339   23.3216 C.2     1  UNL1        0.0006
     30 C          -2.8625    3.5906   21.9376 C.2     1  UNL1        0.0119
@<TRIPOS>UNITY_ATOM_ATTR
18 1
charge -1
@<TRIPOS>BOND
     1    18    19   ar
     2    19    20   ar
     3    19    17    1
     4    17     1    1
     5     1     2   ar
     6     2     3   ar
     7     3     4   ar
     8     4     5   ar
     9     5     6   ar
    10     6     7    1
    11     6     8   ar
    12     8     9   ar
    13     9    10   ar
    14     3    11    1
    15    11    12    1
    16    12    13   am
    17    13    14    2
    18    13    21    1
    19    21    22    1
    20    22    23    2
    21    23    24    1
    22    24    25    2
    23    25    26    1
    24    26    27    1
    25    27    28    2
    26    28    29    1
    27    29    30    2
    28    12    15    1
    29    15    16    1
    30    10     1   ar
    31    30    22    1
    32    16     2    1
    33    10     4   ar
    34    30    25    1
@<TRIPOS>MOLECULE
*****
 30 34 0 0 0
SMALL
GASTEIGER

@<TRIPOS>ATOM
      1 N          -0.9181    3.0450   22.0353 N.ar    1  UNL1       -0.3256
      2 C          -0.0193    2.0038   21.4370 C.ar    1  UNL1        0.0367
      3 C           0.7236    1.3348   22.5553 C.ar    1  UNL1        0.0109
      4 C           0.2838    1.9625   23.8447 C.ar    1  UNL1        0.0167
      5 C           0.6763    1.7081   25.2699 C.ar    1  UNL1        0.0308
      6 C           0.0540    2.5108   26.3738 C.ar    1  UNL1        0.1402
      7 F           0.4464    2.2565   27.7991 F       1  UNL1       -0.2042
      8 C          -0.9606    3.5678   26.0524 C.ar    1  UNL1        0.0311
      9 C          -1.3530    3.8221   24.6272 C.ar    1  UNL1        0.0195
     10 C          -0.7308    3.0195   23.5234 C.ar    1  UNL1        0.0598
     11 C           1.7044    0.2404   22.2550 C.3     1  UNL1        0.1213
     12 N           1.9425   -0.1849   20.8363 N.am    1  UNL1       -0.2747
     13 C           2.9234   -1.2794   20.5360 C.2     1  UNL1        0.2304
     14 O           3.6662   -1.9484   21.6543 O.2     1  UNL1       -0.2745
     15 C           1.1996    0.4841   19.7181 C.3     1  UNL1        0.0999
     16 C           0.2187    1.5784   20.0184 C.3     1  UNL1        0.0650
     17 C          -1.8421    3.9524   21.2785 C.3     1  UNL1        0.1474
     18 O          -3.2426    3.5426   19.1289 O.co2   1  UNL1       -0.5472
     19 C          -3.0627    3.3923   20.6105 C.2     1  UNL1        0.0732
     20 O          -4.1036    2.6819   21.4241 O.co2   1  UNL1       -0.5472
     21 C           3.1613   -1.7046   19.1174 C.3     1  UNL1        0.1131
     22 C           4.4924   -1.4541   18.4726 C.2     1  UNL1        0.0072
     23 C           5.5043   -2.4984   18.1046 C.2     1  UNL1        0.0947
     24 N           6.6824   -1.8050   17.4873 N.2     1  UNL1       -0.2481
     25 C           6.3986   -0.3322   17.4737 C.2     1  UNL1        0.0631
     26 C           7.1979    0.8395   16.9855 C.3     1  UNL1        0.0717
     27 C           6.6435    2.2282   17.1064 C.2     1  UNL1       -0.0198
     28 C           5.2901    2.4450   17.7153 C.2     1  UNL1       -0.0042
     29 C           4.4908    1.2733   18.2035 C.2     1  UNL1        0.0006
     30 C           5.0451   -0.1153   18.0827 C.2     1  UNL1        0.0119
@<TRIPOS>UNITY_ATOM_ATTR
18 1
charge -1
@<TRIPOS>BOND
     1    18    19   ar
     2    19    20   ar
     3    19    17    1
     4    17     1    1
     5     1     2   ar
     6     2     3   ar
     7     3     4   ar
     8     4     5   ar
     9     5     6   ar
    10     6     7    1
    11     6     8   ar
    12     8     9   ar
    13     9    10   ar
    14     3    11    1
    15    11    12    1
    16    12    13   am
    17    13    14    2
    18    13    21    1
    19    21    22    1
    20    22    23    2
    21    23    24    1
    22    24    25    2
    23    25    26    1
    24    26    27    1
    25    27    28    2
    26    28    29    1
    27    29    30    2
    28    12    15    1
    29    15    16    1
    30    10     1   ar
    31    30    22    1
    32    16     2    1
    33    10     4   ar
    34    30    25    1
