@<TRIPOS>MOLECULE
*****
 40 45 0 0 0
SMALL
GASTEIGER

@<TRIPOS>ATOM
      1 C           5.4513   -3.2904   22.3583 C.ar    1  UNL1        0.2400
      2 N           4.5343   -2.1691   21.9689 N.ar    1  UNL1       -0.2090
      3 C           3.9067   -1.3114   23.0274 C.ar    1  UNL1        0.1021
      4 C           3.9843   -1.3036   24.5672 C.ar    1  UNL1        0.0207
      5 C           4.8122   -2.3831   23.9354 C.ar    1  UNL1        0.0221
      6 C           5.7407   -3.5541   23.8064 C.ar    1  UNL1        0.1178
      7 N           6.6576   -4.6755   24.1958 N.pl3   1  UNL1       -0.2104
      8 S           7.4525   -5.6119   25.0568 S.O2    1  UNL1        0.0737
      9 O           8.3595   -6.7679   24.7554 O.2     1  UNL1       -0.1499
     10 O           7.5941   -5.8891   23.5894 O.2     1  UNL1       -0.1499
     11 C           8.0294   -6.2505   26.2854 C.ar    1  UNL1        0.1253
     12 C           8.9579   -7.4215   26.1564 C.ar    1  UNL1        0.0202
     13 C           9.5348   -8.0601   27.3850 C.ar    1  UNL1        0.0015
     14 C           9.1832   -7.5276   28.7425 C.ar    1  UNL1        0.0046
     15 C           8.2548   -6.3566   28.8715 C.ar    1  UNL1        0.0547
     16 C           7.6779   -5.7180   27.6429 C.ar    1  UNL1        0.0247
     17 C           7.9342   -5.8387   30.5837 C.2     1  UNL1        0.2461
     18 O           8.7291   -6.7751   31.4447 O.2     1  UNL1       -0.2701
     19 N           7.3066   -4.9809   31.6422 N.am    1  UNL1       -0.2969
     20 C           6.4787   -3.9015   32.2741 C.3     1  UNL1        0.1166
     21 C           5.5502   -2.7304   32.4030 C.ar    1  UNL1       -0.0025
     22 C           4.9923   -1.9498   33.6098 C.ar    1  UNL1       -0.0026
     23 C           4.0638   -0.7787   33.7387 C.ar    1  UNL1       -0.0002
     24 C           3.4869   -0.1401   32.5101 C.ar    1  UNL1        0.0015
     25 C           3.8384   -0.6726   31.1526 C.ar    1  UNL1        0.0175
     26 C           4.6333   -1.6090   32.0136 C.ar    1  UNL1       -0.0011
     27 C           3.2615   -0.0341   29.9241 C.ar    1  UNL1        0.0844
     28 N           2.6339    0.8237   30.9826 N.ar    1  UNL1       -0.2240
     29 C           1.7169    1.9451   30.5931 C.ar    1  UNL1        0.1988
     30 N           1.4275    2.2088   29.1451 N.ar    1  UNL1       -0.2240
     31 C           2.0551    1.3510   28.0866 C.ar    1  UNL1        0.0845
     32 C           1.8413    1.5058   26.4286 C.ar    1  UNL1        0.0192
     33 C           2.4306    0.6923   25.3146 C.ar    1  UNL1        0.0016
     34 C           3.3567   -0.4459   25.6257 C.ar    1  UNL1        0.0017
     35 C           3.0052    0.0866   26.9833 C.ar    1  UNL1        0.0030
     36 C           2.9721    0.2296   28.4760 C.ar    1  UNL1        0.0354
     37 H           6.8883   -5.0250   23.3048 H       1  UNL1        0.1739
     38 H           7.6853   -5.4000   32.4485 H       1  UNL1        0.1501
     39 C           7.3959   -3.7550   20.6993 C.3     1  UNL1        0.2543
     40 O           6.0788   -4.1481   21.2998 O.3     1  UNL1       -0.4553
@<TRIPOS>BOND
     1    39    40    1
     2    40     1    1
     3     1     2   ar
     4     2     3   ar
     5     3     4   ar
     6     4     5   ar
     7     5     6   ar
     8     6     7    1
     9     7     8    1
    10     8     9    2
    11     8    10    2
    12     8    11    1
    13    11    12   ar
    14    12    13   ar
    15    13    14   ar
    16    14    15   ar
    17    15    16   ar
    18    15    17    1
    19    17    18    2
    20    17    19   am
    21    19    20    1
    22    20    21    1
    23    21    22   ar
    24    22    23   ar
    25    23    24   ar
    26    24    25   ar
    27    25    26   ar
    28    25    27    1
    29    27    28   ar
    30    28    29   ar
    31    29    30   ar
    32    30    31   ar
    33    31    32   ar
    34    32    33   ar
    35    33    34   ar
    36    34    35   ar
    37    35    36   ar
    38     6     1   ar
    39    16    11   ar
    40    26    21   ar
    41    36    27   ar
    42    34     4    1
    43    36    31   ar
    44     7    37    1
    45    19    38    1
@<TRIPOS>MOLECULE
*****
 40 45 0 0 0
SMALL
GASTEIGER

@<TRIPOS>ATOM
      1 C           4.1494   -0.7052   33.1065 C.ar    1  UNL1        0.2400
      2 N           3.1815    0.4321   33.2474 N.ar    1  UNL1       -0.2090
      3 C           2.5328    1.0202   32.0296 C.ar    1  UNL1        0.1021
      4 C           2.6302    0.7077   30.5229 C.ar    1  UNL1        0.0207
      5 C           3.4940   -0.1780   31.3712 C.ar    1  UNL1        0.0221
      6 C           4.4685   -1.2543   31.7476 C.ar    1  UNL1        0.1178
      7 N           5.4363   -2.3916   31.6066 N.pl3   1  UNL1       -0.2104
      8 S           6.2807   -3.4526   30.9653 S.O2    1  UNL1        0.0737
      9 O           7.2310   -4.4790   31.5069 O.2     1  UNL1       -0.1499
     10 O           6.4144   -3.4090   32.4587 O.2     1  UNL1       -0.1499
     11 C           6.8998   -4.3094   29.9009 C.ar    1  UNL1        0.1253
     12 C           7.8744   -5.3858   30.2773 C.ar    1  UNL1        0.0202
     13 C           8.4934   -6.2425   29.2130 C.ar    1  UNL1        0.0015
     14 C           8.1380   -6.0228   27.7724 C.ar    1  UNL1        0.0046
     15 C           7.1635   -4.9465   27.3960 C.ar    1  UNL1        0.0547
     16 C           6.5444   -4.0897   28.4603 C.ar    1  UNL1        0.0247
     17 C           6.8442   -4.8142   25.6118 C.2     1  UNL1        0.2461
     18 O           7.6886   -5.8752   24.9705 O.2     1  UNL1       -0.2701
     19 N           6.1955   -4.2260   24.3940 N.am    1  UNL1       -0.2969
     20 C           5.3318   -3.3404   23.5457 C.3     1  UNL1        0.1166
     21 C           4.3572   -2.2640   23.1693 C.ar    1  UNL1       -0.0025
     22 C           3.7832   -1.7792   21.8231 C.ar    1  UNL1       -0.0026
     23 C           2.8086   -0.7028   21.4467 C.ar    1  UNL1       -0.0002
     24 C           2.1895    0.1540   22.5110 C.ar    1  UNL1        0.0015
     25 C           2.5450   -0.0657   23.9516 C.ar    1  UNL1        0.0175
     26 C           3.3894   -1.1267   23.3103 C.ar    1  UNL1       -0.0011
     27 C           1.9259    0.7910   25.0159 C.ar    1  UNL1        0.0844
     28 N           1.2772    1.3792   23.7980 N.ar    1  UNL1       -0.2240
     29 C           0.3093    2.5165   23.9390 C.ar    1  UNL1        0.1988
     30 N          -0.0098    3.0656   25.2979 N.ar    1  UNL1       -0.2240
     31 C           0.6389    2.4775   26.5158 C.ar    1  UNL1        0.0845
     32 C           0.3971    2.9676   28.1031 C.ar    1  UNL1        0.0192
     33 C           1.0049    2.4327   29.3659 C.ar    1  UNL1        0.0016
     34 C           1.9816    1.2958   29.3050 C.ar    1  UNL1        0.0017
     35 C           1.6261    1.5155   27.8644 C.ar    1  UNL1        0.0030
     36 C           1.6068    1.3402   26.3749 C.ar    1  UNL1        0.0354
     37 H           5.6696   -2.5358   32.5521 H       1  UNL1        0.1739
     38 H           6.6018   -4.7883   23.6955 H       1  UNL1        0.1501
     39 C           4.9832   -0.4550   35.5543 C.3     1  UNL1        0.2543
     40 O           4.7980   -1.2933   34.3244 O.3     1  UNL1       -0.4553
@<TRIPOS>BOND
     1    39    40    1
     2    40     1    1
     3     1     2   ar
     4     2     3   ar
     5     3     4   ar
     6     4     5   ar
     7     5     6   ar
     8     6     7    1
     9     7     8    1
    10     8     9    2
    11     8    10    2
    12     8    11    1
    13    11    12   ar
    14    12    13   ar
    15    13    14   ar
    16    14    15   ar
    17    15    16   ar
    18    15    17    1
    19    17    18    2
    20    17    19   am
    21    19    20    1
    22    20    21    1
    23    21    22   ar
    24    22    23   ar
    25    23    24   ar
    26    24    25   ar
    27    25    26   ar
    28    25    27    1
    29    27    28   ar
    30    28    29   ar
    31    29    30   ar
    32    30    31   ar
    33    31    32   ar
    34    32    33   ar
    35    33    34   ar
    36    34    35   ar
    37    35    36   ar
    38     6     1   ar
    39    16    11   ar
    40    26    21   ar
    41    36    27   ar
    42    34     4    1
    43    36    31   ar
    44     7    37    1
    45    19    38    1
@<TRIPOS>MOLECULE
*****
 40 45 0 0 0
SMALL
GASTEIGER

@<TRIPOS>ATOM
      1 C           8.0065   -5.7477   25.2399 C.ar    1  UNL1        0.2400
      2 N           8.6339   -6.2237   26.5165 N.ar    1  UNL1       -0.2090
      3 C           8.2234   -5.6174   27.8256 C.ar    1  UNL1        0.1021
      4 C           7.2152   -4.5171   28.2129 C.ar    1  UNL1        0.0207
      5 C           7.2721   -4.7791   26.7370 C.ar    1  UNL1        0.0221
      6 C           6.9685   -4.6652   25.2725 C.ar    1  UNL1        0.1178
      7 N           6.3411   -4.1891   23.9959 N.pl3   1  UNL1       -0.2104
      8 S           5.4655   -3.4083   23.0613 S.O2    1  UNL1        0.0737
      9 O           5.2801   -3.4204   21.5728 O.2     1  UNL1       -0.1499
     10 O           6.3368   -4.4093   22.3621 O.2     1  UNL1       -0.1499
     11 C           4.4473   -2.4168   22.5812 C.ar    1  UNL1        0.1253
     12 C           4.1437   -2.3029   21.1167 C.ar    1  UNL1        0.0202
     13 C           3.1256   -1.3115   20.6367 C.ar    1  UNL1        0.0015
     14 C           2.4110   -0.4340   21.6213 C.ar    1  UNL1        0.0046
     15 C           2.7146   -0.5479   23.0858 C.ar    1  UNL1        0.0547
     16 C           3.7327   -1.5393   23.5658 C.ar    1  UNL1        0.0247
     17 C           1.7623    0.5860   24.1395 C.2     1  UNL1        0.2461
     18 O           0.8867    1.3669   23.2049 O.2     1  UNL1       -0.2701
     19 N           1.3519    1.1923   25.4487 N.am    1  UNL1       -0.2969
     20 C           1.2949    1.4543   26.9245 C.3     1  UNL1        0.1166
     21 C           1.5985    1.3404   28.3891 C.ar    1  UNL1       -0.0025
     22 C           1.0652    2.0663   29.6403 C.ar    1  UNL1       -0.0026
     23 C           1.3688    1.9524   31.1048 C.ar    1  UNL1       -0.0002
     24 C           2.3870    0.9610   31.5848 C.ar    1  UNL1        0.0015
     25 C           3.1016    0.0835   30.6003 C.ar    1  UNL1        0.0175
     26 C           2.2259    0.8643   29.6656 C.ar    1  UNL1       -0.0011
     27 C           4.1197   -0.9079   31.0802 C.ar    1  UNL1        0.0844
     28 N           3.7092   -0.3016   32.3895 N.ar    1  UNL1       -0.2240
     29 C           4.3367   -0.7777   33.6660 C.ar    1  UNL1        0.1988
     30 N           5.3746   -1.8601   33.6335 N.ar    1  UNL1       -0.2240
     31 C           5.7851   -2.4665   32.3243 C.ar    1  UNL1        0.0845
     32 C           6.9247   -3.6799   32.1070 C.ar    1  UNL1        0.0192
     33 C           7.3863   -4.3338   30.8384 C.ar    1  UNL1        0.0016
     34 C           6.8047   -3.9108   29.5220 C.ar    1  UNL1        0.0017
     35 C           6.0901   -3.0332   30.5065 C.ar    1  UNL1        0.0030
     36 C           5.1577   -1.9904   31.0477 C.ar    1  UNL1        0.0354
     37 H           6.8101   -4.7651   23.3497 H       1  UNL1        0.1739
     38 H           0.6836    1.8430   25.1336 H       1  UNL1        0.1501
     39 C           9.2062   -7.6294   23.9096 C.3     1  UNL1        0.2543
     40 O           8.4170   -6.3540   23.9308 O.3     1  UNL1       -0.4553
@<TRIPOS>BOND
     1    39    40    1
     2    40     1    1
     3     1     2   ar
     4     2     3   ar
     5     3     4   ar
     6     4     5   ar
     7     5     6   ar
     8     6     7    1
     9     7     8    1
    10     8     9    2
    11     8    10    2
    12     8    11    1
    13    11    12   ar
    14    12    13   ar
    15    13    14   ar
    16    14    15   ar
    17    15    16   ar
    18    15    17    1
    19    17    18    2
    20    17    19   am
    21    19    20    1
    22    20    21    1
    23    21    22   ar
    24    22    23   ar
    25    23    24   ar
    26    24    25   ar
    27    25    26   ar
    28    25    27    1
    29    27    28   ar
    30    28    29   ar
    31    29    30   ar
    32    30    31   ar
    33    31    32   ar
    34    32    33   ar
    35    33    34   ar
    36    34    35   ar
    37    35    36   ar
    38     6     1   ar
    39    16    11   ar
    40    26    21   ar
    41    36    27   ar
    42    34     4    1
    43    36    31   ar
    44     7    37    1
    45    19    38    1
@<TRIPOS>MOLECULE
*****
 40 45 0 0 0
SMALL
GASTEIGER

@<TRIPOS>ATOM
      1 C           0.6188    2.4109   27.4837 C.ar    1  UNL1        0.2400
      2 N           0.2854    2.6162   26.0357 N.ar    1  UNL1       -0.2090
      3 C           0.9604    1.7847   24.9855 C.ar    1  UNL1        0.1021
      4 C           2.0156    0.6619   25.0405 C.ar    1  UNL1        0.0207
      5 C           1.6463    1.1980   26.3919 C.ar    1  UNL1        0.0221
      6 C           1.6272    1.3740   27.8814 C.ar    1  UNL1        0.1178
      7 N           1.9605    1.1686   29.3294 N.pl3   1  UNL1       -0.2104
      8 S           2.6062    0.6067   30.5612 S.O2    1  UNL1        0.0737
      9 O           2.4680    0.9073   32.0242 O.2     1  UNL1       -0.1499
     10 O           1.6166    1.6955   30.8531 O.2     1  UNL1       -0.1499
     11 C           3.4863   -0.2440   31.4283 C.ar    1  UNL1        0.1253
     12 C           3.4672   -0.0680   32.9178 C.ar    1  UNL1        0.0202
     13 C           4.3473   -0.9187   33.7848 C.ar    1  UNL1        0.0015
     14 C           5.2465   -1.9454   33.1623 C.ar    1  UNL1        0.0046
     15 C           5.2656   -2.1213   31.6728 C.ar    1  UNL1        0.0547
     16 C           4.3855   -1.2707   30.8058 C.ar    1  UNL1        0.0247
     17 C           6.4088   -3.4055   31.0840 C.2     1  UNL1        0.2461
     18 O           7.0545   -3.9674   32.3157 O.2     1  UNL1       -0.2701
     19 N           7.0837   -4.2369   30.0336 N.am    1  UNL1       -0.2969
     20 C           7.4530   -4.7730   28.6823 C.3     1  UNL1        0.1166
     21 C           7.4721   -4.9490   27.1927 C.ar    1  UNL1       -0.0025
     22 C           8.2532   -5.8831   26.2471 C.ar    1  UNL1       -0.0026
     23 C           8.2723   -6.0590   24.7575 C.ar    1  UNL1       -0.0002
     24 C           7.3922   -5.2083   23.8905 C.ar    1  UNL1        0.0015
     25 C           6.4931   -4.1817   24.5129 C.ar    1  UNL1        0.0175
     26 C           7.1387   -4.7436   25.7447 C.ar    1  UNL1       -0.0011
     27 C           5.6130   -3.3310   23.6459 C.ar    1  UNL1        0.0844
     28 N           6.2879   -4.1625   22.5956 N.ar    1  UNL1       -0.2240
     29 C           5.9545   -3.9571   21.1476 C.ar    1  UNL1        0.1988
     30 N           4.9462   -2.9203   20.7499 N.ar    1  UNL1       -0.2240
     31 C           4.2713   -2.0888   21.8002 C.ar    1  UNL1        0.0845
     32 C           3.1255   -0.8913   21.5326 C.ar    1  UNL1        0.0192
     33 C           2.4098   -0.0225   22.5241 C.ar    1  UNL1        0.0016
     34 C           2.6905   -0.1695   23.9903 C.ar    1  UNL1        0.0017
     35 C           3.5897   -1.1962   23.3678 C.ar    1  UNL1        0.0030
     36 C           4.6046   -2.2941   23.2482 C.ar    1  UNL1        0.0354
     37 H           1.3704    1.8425   29.7379 H       1  UNL1        0.1739
     38 H           7.6613   -4.7953   30.6027 H       1  UNL1        0.1501
     39 C           0.5393    4.5552   28.9484 C.3     1  UNL1        0.2543
     40 O          -0.0561    3.2423   28.5339 O.3     1  UNL1       -0.4553
@<TRIPOS>BOND
     1    39    40    1
     2    40     1    1
     3     1     2   ar
     4     2     3   ar
     5     3     4   ar
     6     4     5   ar
     7     5     6   ar
     8     6     7    1
     9     7     8    1
    10     8     9    2
    11     8    10    2
    12     8    11    1
    13    11    12   ar
    14    12    13   ar
    15    13    14   ar
    16    14    15   ar
    17    15    16   ar
    18    15    17    1
    19    17    18    2
    20    17    19   am
    21    19    20    1
    22    20    21    1
    23    21    22   ar
    24    22    23   ar
    25    23    24   ar
    26    24    25   ar
    27    25    26   ar
    28    25    27    1
    29    27    28   ar
    30    28    29   ar
    31    29    30   ar
    32    30    31   ar
    33    31    32   ar
    34    32    33   ar
    35    33    34   ar
    36    34    35   ar
    37    35    36   ar
    38     6     1   ar
    39    16    11   ar
    40    26    21   ar
    41    36    27   ar
    42    34     4    1
    43    36    31   ar
    44     7    37    1
    45    19    38    1
@<TRIPOS>MOLECULE
*****
 40 45 0 0 0
SMALL
GASTEIGER

@<TRIPOS>ATOM
      1 C           2.5073    1.0106   31.7373 C.ar    1  UNL1        0.2400
      2 N           1.4659    1.9490   31.2035 N.ar    1  UNL1       -0.2090
      3 C           1.1825    1.9959   29.7313 C.ar    1  UNL1        0.1021
      4 C           1.7588    1.2396   28.5176 C.ar    1  UNL1        0.0207
      5 C           2.3805    0.8342   29.8212 C.ar    1  UNL1        0.0221
      6 C           3.2654    0.1192   30.7987 C.ar    1  UNL1        0.1178
      7 N           4.3068   -0.8191   31.3325 N.pl3   1  UNL1       -0.2104
      8 S           5.3792   -1.8676   31.3580 S.O2    1  UNL1        0.0737
      9 O           6.1869   -2.4874   32.4595 O.2     1  UNL1       -0.1499
     10 O           5.0451   -1.3264   32.7164 O.2     1  UNL1       -0.1499
     11 C           6.3532   -2.8999   30.8722 C.ar    1  UNL1        0.1253
     12 C           7.2381   -3.6149   31.8497 C.ar    1  UNL1        0.0202
     13 C           8.2120   -4.6471   31.3639 C.ar    1  UNL1        0.0015
     14 C           8.3010   -4.9643   29.9006 C.ar    1  UNL1        0.0046
     15 C           7.4161   -4.2493   28.9230 C.ar    1  UNL1        0.0547
     16 C           6.4421   -3.2171   29.4088 C.ar    1  UNL1        0.0247
     17 C           7.6509   -4.7516   27.1923 C.2     1  UNL1        0.2461
     18 O           8.7232   -5.8001   27.2178 O.2     1  UNL1       -0.2701
     19 N           7.3674   -4.7046   25.7201 N.am    1  UNL1       -0.2969
     20 C           6.7457   -4.2992   24.4166 C.3     1  UNL1        0.1166
     21 C           5.8608   -3.5842   23.4390 C.ar    1  UNL1       -0.0025
     22 C           5.6948   -3.6618   21.9081 C.ar    1  UNL1       -0.0026
     23 C           4.8098   -2.9467   20.9306 C.ar    1  UNL1       -0.0002
     24 C           3.8359   -1.9145   21.4164 C.ar    1  UNL1        0.0015
     25 C           3.7469   -1.5973   22.8797 C.ar    1  UNL1        0.0175
     26 C           4.8193   -2.6458   22.9052 C.ar    1  UNL1       -0.0011
     27 C           2.7730   -0.5652   23.3656 C.ar    1  UNL1        0.0844
     28 N           2.4896   -0.5182   21.8932 N.ar    1  UNL1       -0.2240
     29 C           1.4481    0.4202   21.3596 C.ar    1  UNL1        0.1988
     30 N           0.6901    1.3116   22.2980 N.ar    1  UNL1       -0.2240
     31 C           0.9736    1.2646   23.7703 C.ar    1  UNL1        0.0845
     32 C           0.2229    2.1874   24.9550 C.ar    1  UNL1        0.0192
     33 C           0.4501    2.1973   26.4377 C.ar    1  UNL1        0.0016
     34 C           1.4753    1.2865   27.0454 C.ar    1  UNL1        0.0017
     35 C           1.5643    0.9693   25.5821 C.ar    1  UNL1        0.0030
     36 C           2.0150    0.3263   24.3041 C.ar    1  UNL1        0.0354
     37 H           4.2484   -0.6109   32.2930 H       1  UNL1        0.1739
     38 H           8.0066   -5.3821   25.4012 H       1  UNL1        0.1501
     39 C           2.4168    2.1246   34.0827 C.3     1  UNL1        0.2543
     40 O           2.7907    0.9637   33.2095 O.3     1  UNL1       -0.4553
@<TRIPOS>BOND
     1    39    40    1
     2    40     1    1
     3     1     2   ar
     4     2     3   ar
     5     3     4   ar
     6     4     5   ar
     7     5     6   ar
     8     6     7    1
     9     7     8    1
    10     8     9    2
    11     8    10    2
    12     8    11    1
    13    11    12   ar
    14    12    13   ar
    15    13    14   ar
    16    14    15   ar
    17    15    16   ar
    18    15    17    1
    19    17    18    2
    20    17    19   am
    21    19    20    1
    22    20    21    1
    23    21    22   ar
    24    22    23   ar
    25    23    24   ar
    26    24    25   ar
    27    25    26   ar
    28    25    27    1
    29    27    28   ar
    30    28    29   ar
    31    29    30   ar
    32    30    31   ar
    33    31    32   ar
    34    32    33   ar
    35    33    34   ar
    36    34    35   ar
    37    35    36   ar
    38     6     1   ar
    39    16    11   ar
    40    26    21   ar
    41    36    27   ar
    42    34     4    1
    43    36    31   ar
    44     7    37    1
    45    19    38    1
@<TRIPOS>MOLECULE
*****
 40 45 0 0 0
SMALL
GASTEIGER

@<TRIPOS>ATOM
      1 C           0.5592    2.2324   25.1906 C.ar    1  UNL1        0.2400
      2 N           0.0734    2.9439   26.4185 N.ar    1  UNL1       -0.2090
      3 C           0.6023    2.5574   27.7679 C.ar    1  UNL1        0.1021
      4 C           1.6228    1.5038   28.2430 C.ar    1  UNL1        0.0207
      5 C           1.4221    1.5097   26.7564 C.ar    1  UNL1        0.0221
      6 C           1.5738    1.1343   25.3121 C.ar    1  UNL1        0.1178
      7 N           2.0596    0.4228   24.0842 N.pl3   1  UNL1       -0.2104
      8 S           2.8209   -0.5390   23.2209 S.O2    1  UNL1        0.0737
      9 O           2.8551   -0.7902   21.7425 O.2     1  UNL1       -0.1499
     10 O           1.9030    0.3581   22.4444 O.2     1  UNL1       -0.1499
     11 C           3.7658   -1.6351   22.8261 C.ar    1  UNL1        0.1253
     12 C           3.9175   -2.0105   21.3818 C.ar    1  UNL1        0.0202
     13 C           4.8624   -3.1066   20.9871 C.ar    1  UNL1        0.0015
     14 C           5.6556   -3.8271   22.0367 C.ar    1  UNL1        0.0046
     15 C           5.5039   -3.4517   23.4809 C.ar    1  UNL1        0.0547
     16 C           4.5590   -2.3557   23.8757 C.ar    1  UNL1        0.0247
     17 C           6.5355   -4.4215   24.6203 C.2     1  UNL1        0.2461
     18 O           7.2968   -5.3833   23.7569 O.2     1  UNL1       -0.2701
     19 N           7.0643   -4.8080   25.9697 N.am    1  UNL1       -0.2969
     20 C           7.2650   -4.8139   27.4562 C.3     1  UNL1        0.1166
     21 C           7.1133   -4.4384   28.9005 C.ar    1  UNL1       -0.0025
     22 C           7.7561   -4.9572   30.2023 C.ar    1  UNL1       -0.0026
     23 C           7.6044   -4.5817   31.6467 C.ar    1  UNL1       -0.0002
     24 C           6.6595   -3.4857   32.0414 C.ar    1  UNL1        0.0015
     25 C           5.8663   -2.7651   30.9918 C.ar    1  UNL1        0.0175
     26 C           6.6275   -3.7269   30.1285 C.ar    1  UNL1       -0.0011
     27 C           4.9214   -1.6691   31.3865 C.ar    1  UNL1        0.0844
     28 N           5.4502   -2.0557   32.7360 N.ar    1  UNL1       -0.2240
     29 C           4.9644   -1.3441   33.9639 C.ar    1  UNL1        0.1988
     30 N           3.9498   -0.2460   33.8424 N.ar    1  UNL1       -0.2240
     31 C           3.4210    0.1405   32.4929 C.ar    1  UNL1        0.0845
     32 C           2.2891    1.3395   32.1773 C.ar    1  UNL1        0.0192
     33 C           1.7144    1.7817   30.8641 C.ar    1  UNL1        0.0016
     34 C           2.1516    1.1173   29.5923 C.ar    1  UNL1        0.0017
     35 C           2.9448    0.3967   30.6419 C.ar    1  UNL1        0.0030
     36 C           3.9067   -0.5710   31.2650 C.ar    1  UNL1        0.0354
     37 H           1.5390    0.8957   23.3954 H       1  UNL1        0.1739
     38 H           7.6845   -5.5273   25.7106 H       1  UNL1        0.1501
     39 C          -1.0326    3.6709   23.7254 C.3     1  UNL1        0.2543
     40 O           0.0304    2.6190   23.8413 O.3     1  UNL1       -0.4553
@<TRIPOS>BOND
     1    39    40    1
     2    40     1    1
     3     1     2   ar
     4     2     3   ar
     5     3     4   ar
     6     4     5   ar
     7     5     6   ar
     8     6     7    1
     9     7     8    1
    10     8     9    2
    11     8    10    2
    12     8    11    1
    13    11    12   ar
    14    12    13   ar
    15    13    14   ar
    16    14    15   ar
    17    15    16   ar
    18    15    17    1
    19    17    18    2
    20    17    19   am
    21    19    20    1
    22    20    21    1
    23    21    22   ar
    24    22    23   ar
    25    23    24   ar
    26    24    25   ar
    27    25    26   ar
    28    25    27    1
    29    27    28   ar
    30    28    29   ar
    31    29    30   ar
    32    30    31   ar
    33    31    32   ar
    34    32    33   ar
    35    33    34   ar
    36    34    35   ar
    37    35    36   ar
    38     6     1   ar
    39    16    11   ar
    40    26    21   ar
    41    36    27   ar
    42    34     4    1
    43    36    31   ar
    44     7    37    1
    45    19    38    1
@<TRIPOS>MOLECULE
*****
 40 45 0 0 0
SMALL
GASTEIGER

@<TRIPOS>ATOM
      1 C          -0.8916    3.0386   23.6738 C.ar    1  UNL1        0.2400
      2 N          -1.1030    3.1950   22.1971 N.ar    1  UNL1       -0.2090
      3 C          -0.2385    2.4399   21.2315 C.ar    1  UNL1        0.1021
      4 C           0.9271    1.4462   21.4077 C.ar    1  UNL1        0.0207
      5 C           0.3689    1.9449   22.7076 C.ar    1  UNL1        0.0221
      6 C           0.1844    2.1271   24.1850 C.ar    1  UNL1        0.1178
      7 N           0.3959    1.9707   25.6618 N.pl3   1  UNL1       -0.2104
      8 S           0.9778    1.4946   26.9597 S.O2    1  UNL1        0.0737
      9 O           0.6640    1.7866   28.3971 O.2     1  UNL1       -0.1499
     10 O          -0.1530    2.4643   27.1358 O.2     1  UNL1       -0.1499
     11 C           1.8600    0.7562   27.9224 C.ar    1  UNL1        0.1253
     12 C           1.6755    0.9383   29.3998 C.ar    1  UNL1        0.0202
     13 C           2.5576    0.2000   30.3624 C.ar    1  UNL1        0.0015
     14 C           3.6243   -0.7205   29.8476 C.ar    1  UNL1        0.0046
     15 C           3.8087   -0.9027   28.3702 C.ar    1  UNL1        0.0547
     16 C           2.9266   -0.1643   27.4076 C.ar    1  UNL1        0.0247
     17 C           5.1426   -2.0507   27.9168 C.2     1  UNL1        0.2461
     18 O           5.7245   -2.5268   29.2148 O.2     1  UNL1       -0.2701
     19 N           6.0071   -2.8058   26.9512 N.am    1  UNL1       -0.2969
     20 C           6.5653   -3.3046   25.6514 C.3     1  UNL1        0.1166
     21 C           6.7497   -3.4867   24.1739 C.ar    1  UNL1       -0.0025
     22 C           7.7207   -4.3309   23.3244 C.ar    1  UNL1       -0.0026
     23 C           7.9051   -4.5131   21.8469 C.ar    1  UNL1       -0.0002
     24 C           7.0230   -3.7747   20.8844 C.ar    1  UNL1        0.0015
     25 C           5.9564   -2.8542   21.3992 C.ar    1  UNL1        0.0175
     26 C           6.5383   -3.3303   22.6971 C.ar    1  UNL1       -0.0011
     27 C           5.0742   -2.1159   20.4366 C.ar    1  UNL1        0.0844
     28 N           5.9388   -2.8710   19.4709 N.ar    1  UNL1       -0.2240
     29 C           5.7272   -2.7146   17.9942 C.ar    1  UNL1        0.1988
     30 N           4.6513   -1.8031   17.4830 N.ar    1  UNL1       -0.2240
     31 C           3.7868   -1.0479   18.4486 C.ar    1  UNL1        0.0845
     32 C           2.5439    0.0083   18.0509 C.ar    1  UNL1        0.0192
     33 C           1.6406    0.7955   18.9534 C.ar    1  UNL1        0.0016
     34 C           1.7916    0.6910   20.4421 C.ar    1  UNL1        0.0017
     35 C           2.8582   -0.2295   19.9273 C.ar    1  UNL1        0.0030
     36 C           3.9982   -1.2043   19.9254 C.ar    1  UNL1        0.0354
     37 H          -0.3042    2.5748   25.9997 H       1  UNL1        0.1739
     38 H           6.5861   -3.2904   27.5830 H       1  UNL1        0.1501
     39 C          -3.2412    3.5832   24.6396 C.3     1  UNL1        0.2543
     40 O          -1.7561    3.7938   24.6394 O.3     1  UNL1       -0.4553
@<TRIPOS>BOND
     1    39    40    1
     2    40     1    1
     3     1     2   ar
     4     2     3   ar
     5     3     4   ar
     6     4     5   ar
     7     5     6   ar
     8     6     7    1
     9     7     8    1
    10     8     9    2
    11     8    10    2
    12     8    11    1
    13    11    12   ar
    14    12    13   ar
    15    13    14   ar
    16    14    15   ar
    17    15    16   ar
    18    15    17    1
    19    17    18    2
    20    17    19   am
    21    19    20    1
    22    20    21    1
    23    21    22   ar
    24    22    23   ar
    25    23    24   ar
    26    24    25   ar
    27    25    26   ar
    28    25    27    1
    29    27    28   ar
    30    28    29   ar
    31    29    30   ar
    32    30    31   ar
    33    31    32   ar
    34    32    33   ar
    35    33    34   ar
    36    34    35   ar
    37    35    36   ar
    38     6     1   ar
    39    16    11   ar
    40    26    21   ar
    41    36    27   ar
    42    34     4    1
    43    36    31   ar
    44     7    37    1
    45    19    38    1
@<TRIPOS>MOLECULE
*****
 40 45 0 0 0
SMALL
GASTEIGER

@<TRIPOS>ATOM
      1 C           3.7936   -0.5693   30.1874 C.ar    1  UNL1        0.2400
      2 N           2.7340    0.4233   30.5643 N.ar    1  UNL1       -0.2090
      3 C           1.8878    1.0574   29.5005 C.ar    1  UNL1        0.1021
      4 C           1.8398    0.9221   27.9654 C.ar    1  UNL1        0.0207
      5 C           2.8863    0.0594   28.6061 C.ar    1  UNL1        0.0221
      6 C           4.0069   -0.9277   28.7465 C.ar    1  UNL1        0.1178
      7 N           5.0665   -1.9203   28.3696 N.pl3   1  UNL1       -0.2104
      8 S           5.9372   -2.7986   27.5207 S.O2    1  UNL1        0.0737
      9 O           7.0480   -3.7570   27.8328 O.2     1  UNL1       -0.1499
     10 O           6.2403   -2.8998   28.9863 O.2     1  UNL1       -0.1499
     11 C           6.5140   -3.4566   26.3024 C.ar    1  UNL1        0.1253
     12 C           7.6346   -4.4438   26.4427 C.ar    1  UNL1        0.0202
     13 C           8.2114   -5.1018   25.2245 C.ar    1  UNL1        0.0015
     14 C           7.6676   -4.7727   23.8658 C.ar    1  UNL1        0.0046
     15 C           6.5470   -3.7855   23.7254 C.ar    1  UNL1        0.0547
     16 C           5.9702   -3.1275   24.9437 C.ar    1  UNL1        0.0247
     17 C           6.0077   -3.5015   22.0133 C.2     1  UNL1        0.2461
     18 O           6.8784   -4.3798   21.1645 O.2     1  UNL1       -0.2701
     19 N           5.1615   -2.8674   20.9495 N.am    1  UNL1       -0.2969
     20 C           4.1150   -2.0047   20.3087 C.3     1  UNL1        0.1166
     21 C           2.9943   -1.0175   20.1684 C.ar    1  UNL1       -0.0025
     22 C           2.2177   -0.4628   18.9576 C.ar    1  UNL1       -0.0026
     23 C           1.0970    0.5244   18.8173 C.ar    1  UNL1       -0.0002
     24 C           0.5203    1.1825   20.0355 C.ar    1  UNL1        0.0015
     25 C           1.0641    0.8533   21.3942 C.ar    1  UNL1        0.0175
     26 C           1.9347   -0.0249   20.5453 C.ar    1  UNL1       -0.0011
     27 C           0.4873    1.5113   22.6125 C.ar    1  UNL1        0.0844
     28 N          -0.3590    2.1456   21.5486 N.ar    1  UNL1       -0.2240
     29 C          -1.4185    3.1381   21.9256 C.ar    1  UNL1        0.1988
     30 N          -1.6319    3.4966   23.3664 N.ar    1  UNL1       -0.2240
     31 C          -0.7856    2.8624   24.4303 C.ar    1  UNL1        0.0845
     32 C          -0.8896    3.1473   26.0815 C.ar    1  UNL1        0.0192
     33 C          -0.0841    2.5560   27.2003 C.ar    1  UNL1        0.0016
     34 C           0.9936    1.5563   26.9015 C.ar    1  UNL1        0.0017
     35 C           0.4498    1.8854   25.5429 C.ar    1  UNL1        0.0030
     36 C           0.2739    1.8698   24.0534 C.ar    1  UNL1        0.0354
     37 H           5.4234   -2.1363   29.2613 H       1  UNL1        0.1739
     38 H           5.5400   -3.2993   20.1499 H       1  UNL1        0.1501
     39 C           4.9267   -0.4614   32.5228 C.3     1  UNL1        0.2543
     40 O           4.6397   -1.2034   31.2512 O.3     1  UNL1       -0.4553
@<TRIPOS>BOND
     1    39    40    1
     2    40     1    1
     3     1     2   ar
     4     2     3   ar
     5     3     4   ar
     6     4     5   ar
     7     5     6   ar
     8     6     7    1
     9     7     8    1
    10     8     9    2
    11     8    10    2
    12     8    11    1
    13    11    12   ar
    14    12    13   ar
    15    13    14   ar
    16    14    15   ar
    17    15    16   ar
    18    15    17    1
    19    17    18    2
    20    17    19   am
    21    19    20    1
    22    20    21    1
    23    21    22   ar
    24    22    23   ar
    25    23    24   ar
    26    24    25   ar
    27    25    26   ar
    28    25    27    1
    29    27    28   ar
    30    28    29   ar
    31    29    30   ar
    32    30    31   ar
    33    31    32   ar
    34    32    33   ar
    35    33    34   ar
    36    34    35   ar
    37    35    36   ar
    38     6     1   ar
    39    16    11   ar
    40    26    21   ar
    41    36    27   ar
    42    34     4    1
    43    36    31   ar
    44     7    37    1
    45    19    38    1
@<TRIPOS>MOLECULE
*****
 40 45 0 0 0
SMALL
GASTEIGER

@<TRIPOS>ATOM
      1 C           1.2320    2.7954   29.2651 C.ar    1  UNL1        0.2400
      2 N           0.2716    3.6384   28.4797 N.ar    1  UNL1       -0.2090
      3 C           0.1116    3.4165   27.0049 C.ar    1  UNL1        0.1021
      4 C           0.7584    2.4368   26.0053 C.ar    1  UNL1        0.0207
      5 C           1.2565    2.2686   27.4102 C.ar    1  UNL1        0.0221
      6 C           2.0325    1.7305   28.5756 C.ar    1  UNL1        0.1178
      7 N           2.9930    0.8876   29.3611 N.pl3   1  UNL1       -0.2104
      8 S           4.0220   -0.1586   29.6717 S.O2    1  UNL1        0.0737
      9 O           4.7144   -0.5786   30.9344 O.2     1  UNL1       -0.1499
     10 O           3.5970    0.6320   30.8735 O.2     1  UNL1       -0.1499
     11 C           4.9955   -1.2820   29.4702 C.ar    1  UNL1        0.1253
     12 C           5.7716   -1.8200   30.6356 C.ar    1  UNL1        0.0202
     13 C           6.7450   -2.9433   30.4341 C.ar    1  UNL1        0.0015
     14 C           6.9424   -3.5285   29.0671 C.ar    1  UNL1        0.0046
     15 C           6.1663   -2.9905   27.9017 C.ar    1  UNL1        0.0547
     16 C           5.1929   -1.8672   28.1033 C.ar    1  UNL1        0.0247
     17 C           6.5243   -3.8101   26.3197 C.2     1  UNL1        0.2461
     18 O           7.5533   -4.8563   26.6303 O.2     1  UNL1       -0.2701
     19 N           6.3642   -4.0319   24.8448 N.am    1  UNL1       -0.2969
     20 C           5.8662   -3.8638   23.4400 C.3     1  UNL1        0.1166
     21 C           5.0900   -3.3257   22.2746 C.ar    1  UNL1       -0.0025
     22 C           5.0475   -3.6831   20.7754 C.ar    1  UNL1       -0.0026
     23 C           4.2713   -3.1450   19.6100 C.ar    1  UNL1       -0.0002
     24 C           3.2979   -2.0218   19.8115 C.ar    1  UNL1        0.0015
     25 C           3.1005   -1.4365   21.1785 C.ar    1  UNL1        0.0175
     26 C           4.1296   -2.4827   21.4891 C.ar    1  UNL1       -0.0011
     27 C           2.1271   -0.3132   21.3800 C.ar    1  UNL1        0.0844
     28 N           1.9671   -0.5351   19.9051 N.ar    1  UNL1       -0.2240
     29 C           1.0066    0.3079   19.1197 C.ar    1  UNL1        0.1988
     30 N           0.2061    1.3727   19.8091 N.ar    1  UNL1       -0.2240
     31 C           0.3662    1.5946   21.2840 C.ar    1  UNL1        0.0845
     32 C          -0.4460    2.7359   22.2094 C.ar    1  UNL1        0.0192
     33 C          -0.3409    3.0167   23.6791 C.ar    1  UNL1        0.0016
     34 C           0.5984    2.2149   24.5306 C.ar    1  UNL1        0.0017
     35 C           0.7957    1.6296   23.1636 C.ar    1  UNL1        0.0030
     36 C           1.3266    0.7517   22.0695 C.ar    1  UNL1        0.0354
     37 H           2.8635    1.2717   30.2582 H       1  UNL1        0.1739
     38 H           7.0031   -4.7692   24.7126 H       1  UNL1        0.1501
     39 C           0.5204    2.2751   31.7090 C.3     1  UNL1        0.2543
     40 O           1.3920    3.0173   30.7399 O.3     1  UNL1       -0.4553
@<TRIPOS>BOND
     1    39    40    1
     2    40     1    1
     3     1     2   ar
     4     2     3   ar
     5     3     4   ar
     6     4     5   ar
     7     5     6   ar
     8     6     7    1
     9     7     8    1
    10     8     9    2
    11     8    10    2
    12     8    11    1
    13    11    12   ar
    14    12    13   ar
    15    13    14   ar
    16    14    15   ar
    17    15    16   ar
    18    15    17    1
    19    17    18    2
    20    17    19   am
    21    19    20    1
    22    20    21    1
    23    21    22   ar
    24    22    23   ar
    25    23    24   ar
    26    24    25   ar
    27    25    26   ar
    28    25    27    1
    29    27    28   ar
    30    28    29   ar
    31    29    30   ar
    32    30    31   ar
    33    31    32   ar
    34    32    33   ar
    35    33    34   ar
    36    34    35   ar
    37    35    36   ar
    38     6     1   ar
    39    16    11   ar
    40    26    21   ar
    41    36    27   ar
    42    34     4    1
    43    36    31   ar
    44     7    37    1
    45    19    38    1
