@<TRIPOS>MOLECULE
*****
 37 40 0 0 0
SMALL
GASTEIGER

@<TRIPOS>ATOM
      1 C           0.7594    4.5747   32.2489 C.2     1  UNL1        0.0320
      2 C          -0.3279    5.5549   31.9216 C.2     1  UNL1        0.0122
      3 C          -0.9238    6.4034   33.0055 C.2     1  UNL1        0.0216
      4 C          -0.4325    6.2718   34.4166 C.2     1  UNL1        0.1008
      5 N          -0.8260    6.9684   35.6855 N.2     1  UNL1       -0.1483
      6 N           0.0182    6.4188   36.7969 N.2     1  UNL1       -0.1483
      7 C           0.9333    5.3825   36.2149 C.2     1  UNL1        0.1007
      8 C           0.6548    5.2917   34.7438 C.2     1  UNL1        0.0223
      9 C           1.2507    4.4431   33.6600 C.3     1  UNL1        0.0706
     10 C           1.9487    4.5783   36.9713 C.ar    1  UNL1        0.0205
     11 C           3.3750    5.0387   37.0335 C.ar    1  UNL1        0.0016
     12 C           4.3904    4.2344   37.7899 C.ar    1  UNL1        0.0014
     13 C           3.9797    2.9697   38.4840 C.ar    1  UNL1        0.0199
     14 C           2.5534    2.5093   38.4218 C.ar    1  UNL1        0.1217
     15 C           1.5380    3.3136   37.6654 C.ar    1  UNL1        0.0214
     16 S           2.1426    1.2446   39.1159 S.O2    1  UNL1        0.0572
     17 N           1.7319   -0.0201   39.8101 N.3     1  UNL1       -0.2035
     18 O           3.5748    0.9738   39.4700 O.2     1  UNL1       -0.1532
     19 O           0.7104    1.5155   38.7618 O.2     1  UNL1       -0.1532
     20 H           2.5570   -0.4804   40.1944 H       1  UNL1        0.1442
     21 H           1.2758   -0.6418   39.1423 H       1  UNL1        0.1442
     22 C           0.8015    2.3590   30.8929 C.2     1  UNL1        0.2447
     23 O          -0.3483    1.8403   31.7046 O.2     1  UNL1       -0.2730
     24 N           1.3554    3.7261   31.1650 N.am    1  UNL1       -0.2857
     25 H           2.1100    4.0665   30.6322 H       1  UNL1        0.1546
     26 C           1.3975    1.5103   29.8090 C.3     1  UNL1        0.1577
     27 C          -0.2403    1.3913   27.7958 C.ar    1  UNL1       -0.0244
     28 C          -0.5547    1.6811   26.3580 C.ar    1  UNL1       -0.0045
     29 C           0.4544    2.3799   25.4957 C.ar    1  UNL1       -0.0003
     30 C           1.7779    2.7887   26.0713 C.ar    1  UNL1       -0.0003
     31 C           2.0923    2.4989   27.5090 C.ar    1  UNL1       -0.0028
     32 C           1.0832    1.8002   28.3713 C.ar    1  UNL1       -0.0030
     33 C          -1.3009   -0.8063   28.6879 C.3     1  UNL1        0.0050
     34 C          -1.2494    0.6926   28.6580 C.3     1  UNL1        0.0261
     35 N           2.3079    0.3719   30.1629 N.3     1  UNL1       -0.2605
     36 C           2.6433   -0.6676   29.1349 C.3     1  UNL1        0.0903
     37 C           2.8827    0.2730   31.5449 C.3     1  UNL1        0.0903
@<TRIPOS>BOND
     1    33    34    1
     2    34    27    1
     3    27    28   ar
     4    28    29   ar
     5    29    30   ar
     6    30    31   ar
     7    31    32   ar
     8    32    26    1
     9    26    22    1
    10    22    23    2
    11    22    24   am
    12    24     1    1
    13     1     2    2
    14     2     3    1
    15     3     4    2
    16     4     5    1
    17     5     6    2
    18     6     7    1
    19     7    10    1
    20    10    11   ar
    21    11    12   ar
    22    12    13   ar
    23    13    14   ar
    24    14    16    1
    25    16    17    1
    26    16    18    2
    27    16    19    2
    28    14    15   ar
    29     7     8    2
    30     8     9    1
    31    26    35    1
    32    35    36    1
    33    35    37    1
    34    32    27   ar
    35     9     1    1
    36     8     4    1
    37    15    10   ar
    38    24    25    1
    39    17    20    1
    40    17    21    1
@<TRIPOS>MOLECULE
*****
 37 40 0 0 0
SMALL
GASTEIGER

@<TRIPOS>ATOM
      1 C           8.5300   -4.9476   23.1287 C.2     1  UNL1        0.0320
      2 C           8.8097   -6.2750   22.4886 C.2     1  UNL1        0.0122
      3 C           9.1437   -7.4632   23.3411 C.2     1  UNL1        0.0216
      4 C           9.1980   -7.3240   24.8336 C.2     1  UNL1        0.1008
      5 N           9.4976   -8.3102   25.9234 N.2     1  UNL1       -0.1483
      6 N           9.4031   -7.5923   27.2370 N.2     1  UNL1       -0.1483
      7 C           9.0451   -6.1624   26.9591 C.2     1  UNL1        0.1007
      8 C           8.9183   -5.9966   25.4737 C.2     1  UNL1        0.0223
      9 C           8.5843   -4.8084   24.6213 C.3     1  UNL1        0.0706
     10 C           8.8484   -5.0871   27.9862 C.ar    1  UNL1        0.0205
     11 C           9.4715   -3.7372   27.7877 C.ar    1  UNL1        0.0016
     12 C           9.2748   -2.6619   28.8148 C.ar    1  UNL1        0.0014
     13 C           8.4550   -2.9364   30.0405 C.ar    1  UNL1        0.0199
     14 C           7.8318   -4.2863   30.2391 C.ar    1  UNL1        0.1217
     15 C           8.0285   -5.3616   29.2119 C.ar    1  UNL1        0.0214
     16 S           7.0118   -4.5609   31.4648 S.O2    1  UNL1        0.0572
     17 N           6.1920   -4.8354   32.6905 N.3     1  UNL1       -0.2035
     18 O           7.1254   -3.1194   31.8637 O.2     1  UNL1       -0.1532
     19 O           6.8983   -6.0024   31.0659 O.2     1  UNL1       -0.1532
     20 H           6.0790   -3.9735   33.2241 H       1  UNL1        0.1442
     21 H           6.6642   -5.5323   33.2665 H       1  UNL1        0.1442
     22 C           6.7707   -3.4843   21.8984 C.2     1  UNL1        0.2447
     23 O           5.6794   -4.3975   22.3728 O.2     1  UNL1       -0.2730
     24 N           8.1960   -3.7594   22.2763 N.am    1  UNL1       -0.2857
     25 H           8.9123   -3.1600   21.9649 H       1  UNL1        0.1546
     26 C           6.4367   -2.2961   21.0459 C.3     1  UNL1        0.1577
     27 C           4.1064   -2.3062   19.8975 C.ar    1  UNL1       -0.0244
     28 C           2.6927   -1.8102   19.8229 C.ar    1  UNL1       -0.0045
     29 C           2.1958   -0.8081   20.8224 C.ar    1  UNL1       -0.0003
     30 C           3.1126   -0.3020   21.8963 C.ar    1  UNL1       -0.0003
     31 C           4.5262   -0.7979   21.9708 C.ar    1  UNL1       -0.0028
     32 C           5.0231   -1.8001   20.9714 C.ar    1  UNL1       -0.0030
     33 C           4.1904   -4.7462   19.0089 C.3     1  UNL1        0.0050
     34 C           4.6033   -3.3084   18.8981 C.3     1  UNL1        0.0261
     35 N           7.5164   -1.6039   20.2681 N.3     1  UNL1       -0.2605
     36 C           8.0530   -0.2851   20.7401 C.3     1  UNL1        0.0903
     37 C           8.0595   -2.2305   19.0180 C.3     1  UNL1        0.0903
@<TRIPOS>BOND
     1    33    34    1
     2    34    27    1
     3    27    28   ar
     4    28    29   ar
     5    29    30   ar
     6    30    31   ar
     7    31    32   ar
     8    32    26    1
     9    26    22    1
    10    22    23    2
    11    22    24   am
    12    24     1    1
    13     1     2    2
    14     2     3    1
    15     3     4    2
    16     4     5    1
    17     5     6    2
    18     6     7    1
    19     7    10    1
    20    10    11   ar
    21    11    12   ar
    22    12    13   ar
    23    13    14   ar
    24    14    16    1
    25    16    17    1
    26    16    18    2
    27    16    19    2
    28    14    15   ar
    29     7     8    2
    30     8     9    1
    31    26    35    1
    32    35    36    1
    33    35    37    1
    34    32    27   ar
    35     9     1    1
    36     8     4    1
    37    15    10   ar
    38    24    25    1
    39    17    20    1
    40    17    21    1
@<TRIPOS>MOLECULE
*****
 37 40 0 0 0
SMALL
GASTEIGER

@<TRIPOS>ATOM
      1 C           5.1099   -2.8973   23.7521 C.2     1  UNL1        0.0320
      2 C           6.3080   -3.7619   24.0107 C.2     1  UNL1        0.0122
      3 C           7.0205   -3.6816   25.3282 C.2     1  UNL1        0.0216
      4 C           6.5349   -2.7367   26.3871 C.2     1  UNL1        0.1008
      5 N           7.0298   -2.4409   27.7719 N.2     1  UNL1       -0.1483
      6 N           6.1375   -1.3935   28.3691 N.2     1  UNL1       -0.1483
      7 C           5.0912   -1.0419   27.3535 C.2     1  UNL1        0.1007
      8 C           5.3368   -1.8720   26.1285 C.2     1  UNL1        0.0223
      9 C           4.6243   -1.9524   24.8110 C.3     1  UNL1        0.0706
     10 C           3.9922   -0.0367   27.5315 C.ar    1  UNL1        0.0205
     11 C           4.2139    1.3942   27.1397 C.ar    1  UNL1        0.0016
     12 C           3.1148    2.3994   27.3177 C.ar    1  UNL1        0.0014
     13 C           1.7942    1.9739   27.8875 C.ar    1  UNL1        0.0199
     14 C           1.5725    0.5430   28.2792 C.ar    1  UNL1        0.1217
     15 C           2.6715   -0.4622   28.1012 C.ar    1  UNL1        0.0214
     16 S           0.2518    0.1173   28.8491 S.O2    1  UNL1        0.0572
     17 N          -1.0688   -0.3083   29.4189 N.3     1  UNL1       -0.2035
     18 O           0.9432   -0.3688   30.0883 O.2     1  UNL1       -0.1532
     19 O          -0.4395    0.6035   27.6098 O.2     1  UNL1       -0.1532
     20 H          -0.9249   -0.7165   30.3425 H       1  UNL1        0.1442
     21 H          -1.4971   -1.0006   28.8043 H       1  UNL1        0.1442
     22 C           4.6439   -1.9360   21.3838 C.2     1  UNL1        0.2447
     23 O           5.6031   -0.8140   21.6505 O.2     1  UNL1       -0.2730
     24 N           4.3973   -2.9776   22.4346 N.am    1  UNL1       -0.2857
     25 H           3.7677   -3.7140   22.2595 H       1  UNL1        0.1546
     26 C           3.9313   -2.0163   20.0663 C.3     1  UNL1        0.1577
     27 C           3.4062    0.1465   18.7260 C.ar    1  UNL1       -0.0244
     28 C           2.4442    1.2259   18.3265 C.ar    1  UNL1       -0.0045
     29 C           1.0454    1.2219   18.8680 C.ar    1  UNL1       -0.0003
     30 C           0.6085    0.1384   19.8090 C.ar    1  UNL1       -0.0003
     31 C           1.5705   -0.9409   20.2084 C.ar    1  UNL1       -0.0028
     32 C           2.9693   -0.9369   19.6669 C.ar    1  UNL1       -0.0030
     33 C           5.4255    1.4346   17.7192 C.3     1  UNL1        0.0050
     34 C           4.8051    0.1505   18.1845 C.3     1  UNL1        0.0261
     35 N           4.1807   -3.1760   19.1482 N.3     1  UNL1       -0.2605
     36 C           3.2130   -4.3213   19.1066 C.3     1  UNL1        0.0903
     37 C           5.3979   -3.1903   18.2716 C.3     1  UNL1        0.0903
@<TRIPOS>BOND
     1    33    34    1
     2    34    27    1
     3    27    28   ar
     4    28    29   ar
     5    29    30   ar
     6    30    31   ar
     7    31    32   ar
     8    32    26    1
     9    26    22    1
    10    22    23    2
    11    22    24   am
    12    24     1    1
    13     1     2    2
    14     2     3    1
    15     3     4    2
    16     4     5    1
    17     5     6    2
    18     6     7    1
    19     7    10    1
    20    10    11   ar
    21    11    12   ar
    22    12    13   ar
    23    13    14   ar
    24    14    16    1
    25    16    17    1
    26    16    18    2
    27    16    19    2
    28    14    15   ar
    29     7     8    2
    30     8     9    1
    31    26    35    1
    32    35    36    1
    33    35    37    1
    34    32    27   ar
    35     9     1    1
    36     8     4    1
    37    15    10   ar
    38    24    25    1
    39    17    20    1
    40    17    21    1
@<TRIPOS>MOLECULE
*****
 37 40 0 0 0
SMALL
GASTEIGER

@<TRIPOS>ATOM
      1 C           4.4198   -1.6142   25.4925 C.2     1  UNL1        0.0320
      2 C           5.3021   -2.1557   26.5780 C.2     1  UNL1        0.0122
      3 C           6.3562   -3.1714   26.2509 C.2     1  UNL1        0.0216
      4 C           6.5281   -3.6457   24.8383 C.2     1  UNL1        0.1008
      5 N           7.4740   -4.6312   24.2185 N.2     1  UNL1       -0.1483
      6 N           7.1763   -4.6988   22.7499 N.2     1  UNL1       -0.1483
      7 C           6.0464   -3.7551   22.4621 C.2     1  UNL1        0.1007
      8 C           5.6458   -3.1042   23.7528 C.2     1  UNL1        0.0223
      9 C           4.5917   -2.0885   24.0799 C.3     1  UNL1        0.0706
     10 C           5.4260   -3.5060   21.1193 C.ar    1  UNL1        0.0205
     11 C           4.1912   -4.2544   20.7132 C.ar    1  UNL1        0.0016
     12 C           3.5708   -4.0053   19.3704 C.ar    1  UNL1        0.0014
     13 C           4.1852   -3.0077   18.4337 C.ar    1  UNL1        0.0199
     14 C           5.4201   -2.2593   18.8399 C.ar    1  UNL1        0.1217
     15 C           6.0405   -2.5084   20.1827 C.ar    1  UNL1        0.0214
     16 S           6.0346   -1.2617   17.9032 S.O2    1  UNL1        0.0572
     17 N           6.6490   -0.2641   16.9667 N.3     1  UNL1       -0.2035
     18 O           5.1107   -0.2019   18.4260 O.2     1  UNL1       -0.1532
     19 O           6.9584   -2.3215   17.3806 O.2     1  UNL1       -0.1532
     20 H           6.1960    0.6415   17.0895 H       1  UNL1        0.1442
     21 H           6.5240   -0.5791   16.0046 H       1  UNL1        0.1442
     22 C           3.7476    0.8358   26.0362 C.2     1  UNL1        0.2447
     23 O           5.1838    1.2544   25.9257 O.2     1  UNL1       -0.2730
     24 N           3.3656   -0.5984   25.8196 N.am    1  UNL1       -0.2857
     25 H           2.4230   -0.8731   25.8921 H       1  UNL1        0.1546
     26 C           2.6934    1.8516   26.3632 C.3     1  UNL1        0.1577
     27 C           0.2162    1.2699   26.8873 C.ar    1  UNL1       -0.0244
     28 C          -0.8591    0.9418   27.8803 C.ar    1  UNL1       -0.0045
     29 C          -0.5323    0.8673   29.3424 C.ar    1  UNL1       -0.0003
     30 C           0.8697    1.1210   29.8114 C.ar    1  UNL1       -0.0003
     31 C           1.9450    1.4491   28.8184 C.ar    1  UNL1       -0.0028
     32 C           1.6182    1.5235   27.3563 C.ar    1  UNL1       -0.0030
     33 C          -0.7918    2.5599   24.8698 C.3     1  UNL1        0.0050
     34 C          -0.1105    1.3443   25.4252 C.3     1  UNL1        0.0261
     35 N           2.7146    3.1955   25.6972 N.3     1  UNL1       -0.2605
     36 C           2.9068    3.2940   24.2129 C.3     1  UNL1        0.0903
     37 C           2.5434    4.4409   26.5156 C.3     1  UNL1        0.0903
@<TRIPOS>BOND
     1    33    34    1
     2    34    27    1
     3    27    28   ar
     4    28    29   ar
     5    29    30   ar
     6    30    31   ar
     7    31    32   ar
     8    32    26    1
     9    26    22    1
    10    22    23    2
    11    22    24   am
    12    24     1    1
    13     1     2    2
    14     2     3    1
    15     3     4    2
    16     4     5    1
    17     5     6    2
    18     6     7    1
    19     7    10    1
    20    10    11   ar
    21    11    12   ar
    22    12    13   ar
    23    13    14   ar
    24    14    16    1
    25    16    17    1
    26    16    18    2
    27    16    19    2
    28    14    15   ar
    29     7     8    2
    30     8     9    1
    31    26    35    1
    32    35    36    1
    33    35    37    1
    34    32    27   ar
    35     9     1    1
    36     8     4    1
    37    15    10   ar
    38    24    25    1
    39    17    20    1
    40    17    21    1
@<TRIPOS>MOLECULE
*****
 37 40 0 0 0
SMALL
GASTEIGER

@<TRIPOS>ATOM
      1 C           4.2936   -1.5324   25.8344 C.2     1  UNL1        0.0320
      2 C           5.2951   -1.8295   26.9108 C.2     1  UNL1        0.0122
      3 C           6.5665   -2.5506   26.5739 C.2     1  UNL1        0.0216
      4 C           6.8364   -2.9747   25.1607 C.2     1  UNL1        0.1008
      5 N           7.9922   -3.6954   24.5323 N.2     1  UNL1       -0.1483
      6 N           7.7050   -3.8438   23.0676 N.2     1  UNL1       -0.1483
      7 C           6.3716   -3.2148   22.7907 C.2     1  UNL1        0.1007
      8 C           5.8348   -2.6777   24.0843 C.2     1  UNL1        0.0223
      9 C           4.5635   -1.9565   24.4211 C.3     1  UNL1        0.0706
     10 C           5.6941   -3.1366   21.4547 C.ar    1  UNL1        0.0205
     11 C           4.4819   -3.9757   21.1783 C.ar    1  UNL1        0.0016
     12 C           3.8043   -3.8975   19.8424 C.ar    1  UNL1        0.0014
     13 C           4.3389   -2.9802   18.7828 C.ar    1  UNL1        0.0199
     14 C           5.5511   -2.1410   19.0592 C.ar    1  UNL1        0.1217
     15 C           6.2286   -2.2192   20.3952 C.ar    1  UNL1        0.0214
     16 S           6.0857   -1.2236   17.9996 S.O2    1  UNL1        0.0572
     17 N           6.6204   -0.3063   16.9401 N.3     1  UNL1       -0.2035
     18 O           7.0274   -2.2986   17.5442 O.2     1  UNL1       -0.1532
     19 O           5.1439   -0.1487   18.4552 O.2     1  UNL1       -0.1532
     20 H           7.3453   -0.7876   16.4079 H       1  UNL1        0.1442
     21 H           7.0159    0.5254   17.3784 H       1  UNL1        0.1442
     22 C           2.9686    0.6862   26.1027 C.2     1  UNL1        0.2447
     23 O           4.1863    1.4625   25.6973 O.2     1  UNL1       -0.2730
     24 N           3.0222   -0.8112   26.1712 N.am    1  UNL1       -0.2857
     25 H           2.2229   -1.3208   26.4373 H       1  UNL1        0.1546
     26 C           1.6971    1.4074   26.4395 C.3     1  UNL1        0.1577
     27 C           0.8851    1.2723   28.9037 C.ar    1  UNL1       -0.0244
     28 C           0.7172    1.9063   30.2528 C.ar    1  UNL1       -0.0045
     29 C           1.1935    3.3093   30.4866 C.ar    1  UNL1       -0.0003
     30 C           1.8377    4.0783   29.3714 C.ar    1  UNL1       -0.0003
     31 C           2.0056    3.4444   28.0224 C.ar    1  UNL1       -0.0028
     32 C           1.5292    2.0414   27.7885 C.ar    1  UNL1       -0.0030
     33 C          -1.0545   -0.4499   28.7544 C.3     1  UNL1        0.0050
     34 C           0.4088   -0.1307   28.6698 C.3     1  UNL1        0.0261
     35 N           0.5936    1.4946   25.4273 N.3     1  UNL1       -0.2605
     36 C          -0.7464    2.0397   25.8237 C.3     1  UNL1        0.0903
     37 C           0.8301    1.0366   24.0186 C.3     1  UNL1        0.0903
@<TRIPOS>BOND
     1    33    34    1
     2    34    27    1
     3    27    28   ar
     4    28    29   ar
     5    29    30   ar
     6    30    31   ar
     7    31    32   ar
     8    32    26    1
     9    26    22    1
    10    22    23    2
    11    22    24   am
    12    24     1    1
    13     1     2    2
    14     2     3    1
    15     3     4    2
    16     4     5    1
    17     5     6    2
    18     6     7    1
    19     7    10    1
    20    10    11   ar
    21    11    12   ar
    22    12    13   ar
    23    13    14   ar
    24    14    16    1
    25    16    17    1
    26    16    18    2
    27    16    19    2
    28    14    15   ar
    29     7     8    2
    30     8     9    1
    31    26    35    1
    32    35    36    1
    33    35    37    1
    34    32    27   ar
    35     9     1    1
    36     8     4    1
    37    15    10   ar
    38    24    25    1
    39    17    20    1
    40    17    21    1
@<TRIPOS>MOLECULE
*****
 37 40 0 0 0
SMALL
GASTEIGER

@<TRIPOS>ATOM
      1 C           0.5661    2.2584   21.6369 C.2     1  UNL1        0.0320
      2 C          -0.4563    2.5403   20.5762 C.2     1  UNL1        0.0122
      3 C          -1.7631    3.1777   20.9447 C.2     1  UNL1        0.0216
      4 C          -2.0475    3.5333   22.3740 C.2     1  UNL1        0.1008
      5 N          -3.2373    4.1657   23.0333 N.2     1  UNL1       -0.1483
      6 N          -2.9501    4.2746   24.5015 N.2     1  UNL1       -0.1483
      7 C          -1.5829    3.7096   24.7495 C.2     1  UNL1        0.1007
      8 C          -1.0251    3.2514   23.4347 C.2     1  UNL1        0.0223
      9 C           0.2817    2.6140   23.0661 C.3     1  UNL1        0.0706
     10 C          -0.8943    3.6187   26.0790 C.ar    1  UNL1        0.0205
     11 C          -0.3236    4.8521   26.7140 C.ar    1  UNL1        0.0016
     12 C           0.3649    4.7612   28.0435 C.ar    1  UNL1        0.0014
     13 C           0.4828    3.4370   28.7382 C.ar    1  UNL1        0.0199
     14 C          -0.0879    2.2037   28.1032 C.ar    1  UNL1        0.1217
     15 C          -0.7765    2.2946   26.7737 C.ar    1  UNL1        0.0214
     16 S           0.0299    0.8794   28.7979 S.O2    1  UNL1        0.0572
     17 N           0.1478   -0.4448   29.4925 N.3     1  UNL1       -0.2035
     18 O           1.2021    1.3938   29.5797 O.2     1  UNL1       -0.1532
     19 O          -1.1423    0.3650   28.0160 O.2     1  UNL1       -0.1532
     20 H           0.9260   -0.4151   30.1512 H       1  UNL1        0.1442
     21 H           0.3143   -1.1772   28.8024 H       1  UNL1        0.1442
     22 C           1.9029    0.2083   20.7652 C.2     1  UNL1        0.2447
     23 O           0.6259   -0.5671   20.6304 O.2     1  UNL1       -0.2730
     24 N           1.8731    1.6210   21.2684 N.am    1  UNL1       -0.2857
     25 H           2.7112    2.1298   21.3569 H       1  UNL1        0.1546
     26 C           3.2098   -0.4292   20.3967 C.3     1  UNL1        0.1577
     27 C           3.9960   -2.8631   20.8524 C.ar    1  UNL1       -0.0244
     28 C           4.6193   -3.8776   21.7647 C.ar    1  UNL1       -0.0045
     29 C           5.0797   -3.4726   23.1337 C.ar    1  UNL1       -0.0003
     30 C           4.9167   -2.0531   23.5903 C.ar    1  UNL1       -0.0003
     31 C           4.2935   -1.0386   22.6780 C.ar    1  UNL1       -0.0028
     32 C           3.8331   -1.4436   21.3090 C.ar    1  UNL1       -0.0030
     33 C           3.7350   -4.6780   19.0117 C.3     1  UNL1        0.0050
     34 C           3.5356   -3.2681   19.4834 C.3     1  UNL1        0.0261
     35 N           3.8934   -0.0521   19.1158 N.3     1  UNL1       -0.2605
     36 C           3.0927    0.1097   17.8578 C.3     1  UNL1        0.0903
     37 C           5.3778    0.1631   19.0931 C.3     1  UNL1        0.0903
@<TRIPOS>BOND
     1    33    34    1
     2    34    27    1
     3    27    28   ar
     4    28    29   ar
     5    29    30   ar
     6    30    31   ar
     7    31    32   ar
     8    32    26    1
     9    26    22    1
    10    22    23    2
    11    22    24   am
    12    24     1    1
    13     1     2    2
    14     2     3    1
    15     3     4    2
    16     4     5    1
    17     5     6    2
    18     6     7    1
    19     7    10    1
    20    10    11   ar
    21    11    12   ar
    22    12    13   ar
    23    13    14   ar
    24    14    16    1
    25    16    17    1
    26    16    18    2
    27    16    19    2
    28    14    15   ar
    29     7     8    2
    30     8     9    1
    31    26    35    1
    32    35    36    1
    33    35    37    1
    34    32    27   ar
    35     9     1    1
    36     8     4    1
    37    15    10   ar
    38    24    25    1
    39    17    20    1
    40    17    21    1
@<TRIPOS>MOLECULE
*****
 37 40 0 0 0
SMALL
GASTEIGER

@<TRIPOS>ATOM
      1 C           0.9548    2.4110   19.4162 C.2     1  UNL1        0.0320
      2 C           0.4064    2.8680   18.0970 C.2     1  UNL1        0.0122
      3 C          -0.9027    3.5981   18.0413 C.2     1  UNL1        0.0216
      4 C          -1.6634    3.8712   19.3049 C.2     1  UNL1        0.1008
      5 N          -2.9695    4.5634   19.5605 N.2     1  UNL1       -0.1483
      6 N          -3.2283    4.5341   21.0377 N.2     1  UNL1       -0.1483
      7 C          -2.0822    3.8239   21.6951 C.2     1  UNL1        0.1007
      8 C          -1.1151    3.4142   20.6242 C.2     1  UNL1        0.0223
      9 C           0.1940    2.6841   20.6798 C.3     1  UNL1        0.0706
     10 C          -1.9299    3.5682   23.1652 C.ar    1  UNL1        0.0205
     11 C          -0.7462    2.8004   23.6744 C.ar    1  UNL1        0.0016
     12 C          -0.5939    2.5447   25.1445 C.ar    1  UNL1        0.0014
     13 C          -1.6254    3.0568   26.1057 C.ar    1  UNL1        0.0199
     14 C          -2.8091    3.8246   25.5966 C.ar    1  UNL1        0.1217
     15 C          -2.9614    4.0803   24.1264 C.ar    1  UNL1        0.0214
     16 S          -3.8407    4.3367   26.5577 S.O2    1  UNL1        0.0572
     17 N          -4.8722    4.8489   27.5188 N.3     1  UNL1       -0.2035
     18 O          -2.7769    5.0940   27.2958 O.2     1  UNL1       -0.1532
     19 O          -4.9045    3.5794   25.8195 O.2     1  UNL1       -0.1532
     20 H          -4.4239    5.4505   28.2099 H       1  UNL1        0.1442
     21 H          -5.3175    4.0619   27.9908 H       1  UNL1        0.1442
     22 C           2.2844    0.1854   19.5861 C.2     1  UNL1        0.2447
     23 O           0.9957   -0.5800   19.6446 O.2     1  UNL1       -0.2730
     24 N           2.2640    1.6809   19.4719 N.am    1  UNL1       -0.2857
     25 H           3.1098    2.1832   19.4335 H       1  UNL1        0.1546
     26 C           3.5936   -0.5448   19.6418 C.3     1  UNL1        0.1577
     27 C           4.0033   -2.8278   20.8120 C.ar    1  UNL1       -0.0244
     28 C           4.3730   -3.6125   22.0358 C.ar    1  UNL1       -0.0045
     29 C           4.7027   -2.8986   23.3132 C.ar    1  UNL1       -0.0003
     30 C           4.6627   -1.4000   23.3667 C.ar    1  UNL1       -0.0003
     31 C           4.2929   -0.6154   22.1429 C.ar    1  UNL1       -0.0028
     32 C           3.9633   -1.3293   20.8656 C.ar    1  UNL1       -0.0030
     33 C           4.7398   -4.3034   18.8044 C.3     1  UNL1        0.0050
     34 C           3.6736   -3.5417   19.5346 C.3     1  UNL1        0.0261
     35 N           4.5330   -0.4903   18.4736 N.3     1  UNL1       -0.2605
     36 C           5.9872   -0.1957   18.6937 C.3     1  UNL1        0.0903
     37 C           4.0181   -0.7304   17.0853 C.3     1  UNL1        0.0903
@<TRIPOS>BOND
     1    33    34    1
     2    34    27    1
     3    27    28   ar
     4    28    29   ar
     5    29    30   ar
     6    30    31   ar
     7    31    32   ar
     8    32    26    1
     9    26    22    1
    10    22    23    2
    11    22    24   am
    12    24     1    1
    13     1     2    2
    14     2     3    1
    15     3     4    2
    16     4     5    1
    17     5     6    2
    18     6     7    1
    19     7    10    1
    20    10    11   ar
    21    11    12   ar
    22    12    13   ar
    23    13    14   ar
    24    14    16    1
    25    16    17    1
    26    16    18    2
    27    16    19    2
    28    14    15   ar
    29     7     8    2
    30     8     9    1
    31    26    35    1
    32    35    36    1
    33    35    37    1
    34    32    27   ar
    35     9     1    1
    36     8     4    1
    37    15    10   ar
    38    24    25    1
    39    17    20    1
    40    17    21    1
@<TRIPOS>MOLECULE
*****
 37 40 0 0 0
SMALL
GASTEIGER

@<TRIPOS>ATOM
      1 C           7.9679   -5.0266   23.8537 C.2     1  UNL1        0.0320
      2 C           8.4076   -6.2948   23.1842 C.2     1  UNL1        0.0122
      3 C           8.6141   -7.5389   23.9962 C.2     1  UNL1        0.0216
      4 C           8.3808   -7.5149   25.4778 C.2     1  UNL1        0.1008
      5 N           8.5019   -8.5768   26.5303 N.2     1  UNL1       -0.1483
      6 N           8.1371   -7.9648   27.8503 N.2     1  UNL1       -0.1483
      7 C           7.7904   -6.5247   27.6135 C.2     1  UNL1        0.1007
      8 C           7.9411   -6.2467   26.1473 C.2     1  UNL1        0.0223
      9 C           7.7346   -5.0025   25.3352 C.3     1  UNL1        0.0706
     10 C           7.3675   -5.5363   28.6595 C.ar    1  UNL1        0.0205
     11 C           7.4506   -5.8999   30.1123 C.ar    1  UNL1        0.0016
     12 C           7.0276   -4.9114   31.1583 C.ar    1  UNL1        0.0014
     13 C           6.5215   -3.5593   30.7514 C.ar    1  UNL1        0.0199
     14 C           6.4383   -3.1957   29.2985 C.ar    1  UNL1        0.1217
     15 C           6.8613   -4.1842   28.2526 C.ar    1  UNL1        0.0214
     16 S           5.9321   -1.8435   28.8915 S.O2    1  UNL1        0.0572
     17 N           5.4260   -0.4914   28.4846 N.3     1  UNL1       -0.2035
     18 O           6.2090   -1.3246   30.2714 O.2     1  UNL1       -0.1532
     19 O           5.6552   -2.3625   27.5117 O.2     1  UNL1       -0.1532
     20 H           5.4888    0.1477   29.2771 H       1  UNL1        0.1442
     21 H           4.4537   -0.5681   28.1859 H       1  UNL1        0.1442
     22 C           6.4568   -3.5542   22.3375 C.2     1  UNL1        0.2447
     23 O           5.3586   -4.5702   22.4454 O.2     1  UNL1       -0.2730
     24 N           7.7615   -3.7824   23.0416 N.am    1  UNL1       -0.2857
     25 H           8.4823   -3.1156   22.9708 H       1  UNL1        0.1546
     26 C           6.2504   -2.3100   21.5255 C.3     1  UNL1        0.1577
     27 C           4.1636   -2.2480   19.9791 C.ar    1  UNL1       -0.0244
     28 C           2.7739   -1.7621   19.6913 C.ar    1  UNL1       -0.0045
     29 C           2.0814   -0.8524   20.6623 C.ar    1  UNL1       -0.0003
     30 C           2.7785   -0.4286   21.9210 C.ar    1  UNL1       -0.0003
     31 C           4.1682   -0.9144   22.2088 C.ar    1  UNL1       -0.0028
     32 C           4.8607   -1.8241   21.2378 C.ar    1  UNL1       -0.0030
     33 C           4.4687   -4.6047   18.9288 C.3     1  UNL1        0.0050
     34 C           4.8562   -3.1577   19.0081 C.3     1  UNL1        0.0261
     35 N           7.4336   -1.5516   21.0012 N.3     1  UNL1       -0.2605
     36 C           7.7923   -0.2200   21.5910 C.3     1  UNL1        0.0903
     37 C           8.2581   -2.1251   19.8869 C.3     1  UNL1        0.0903
@<TRIPOS>BOND
     1    33    34    1
     2    34    27    1
     3    27    28   ar
     4    28    29   ar
     5    29    30   ar
     6    30    31   ar
     7    31    32   ar
     8    32    26    1
     9    26    22    1
    10    22    23    2
    11    22    24   am
    12    24     1    1
    13     1     2    2
    14     2     3    1
    15     3     4    2
    16     4     5    1
    17     5     6    2
    18     6     7    1
    19     7    10    1
    20    10    11   ar
    21    11    12   ar
    22    12    13   ar
    23    13    14   ar
    24    14    16    1
    25    16    17    1
    26    16    18    2
    27    16    19    2
    28    14    15   ar
    29     7     8    2
    30     8     9    1
    31    26    35    1
    32    35    36    1
    33    35    37    1
    34    32    27   ar
    35     9     1    1
    36     8     4    1
    37    15    10   ar
    38    24    25    1
    39    17    20    1
    40    17    21    1
@<TRIPOS>MOLECULE
*****
 37 40 0 0 0
SMALL
GASTEIGER

@<TRIPOS>ATOM
      1 C           5.3024   -1.4067   24.6446 C.2     1  UNL1        0.0320
      2 C           6.1433   -2.4996   25.2347 C.2     1  UNL1        0.0122
      3 C           6.6565   -3.6057   24.3611 C.2     1  UNL1        0.0216
      4 C           6.3287   -3.6187   22.8974 C.2     1  UNL1        0.1008
      5 N           6.6905   -4.5711   21.7963 N.2     1  UNL1       -0.1483
      6 N           6.0731   -4.0666   20.5257 N.2     1  UNL1       -0.1483
      7 C           5.3298   -2.8025   20.8416 C.2     1  UNL1        0.1007
      8 C           5.4878   -2.5258   22.3073 C.2     1  UNL1        0.0223
      9 C           4.9747   -1.4197   23.1810 C.3     1  UNL1        0.0706
     10 C           4.5631   -1.9627   19.8634 C.ar    1  UNL1        0.0205
     11 C           5.1367   -1.6798   18.5066 C.ar    1  UNL1        0.0016
     12 C           4.3700   -0.8400   17.5284 C.ar    1  UNL1        0.0014
     13 C           3.0298   -0.2830   17.9070 C.ar    1  UNL1        0.0199
     14 C           2.4562   -0.5658   19.2638 C.ar    1  UNL1        0.1217
     15 C           3.2228   -1.4057   20.2420 C.ar    1  UNL1        0.0214
     16 S           1.1158   -0.0088   19.6425 S.O2    1  UNL1        0.0572
     17 N          -0.2245    0.5481   20.0212 N.3     1  UNL1       -0.2035
     18 O           1.2971   -0.5227   21.0399 O.2     1  UNL1       -0.1532
     19 O           0.9346    0.5050   18.2450 O.2     1  UNL1       -0.1532
     20 H          -0.4120    0.3449   21.0030 H       1  UNL1        0.1442
     21 H          -0.9465    0.1204   19.4415 H       1  UNL1        0.1442
     22 C           3.9420   -0.6209   26.7140 C.2     1  UNL1        0.2447
     23 O           3.6080   -2.0473   27.0361 O.2     1  UNL1       -0.2730
     24 N           4.7892   -0.3005   25.5183 N.am    1  UNL1       -0.2857
     25 H           5.0084    0.6357   25.3069 H       1  UNL1        0.1546
     26 C           3.4288    0.4853   27.5876 C.3     1  UNL1        0.1577
     27 C           1.3014    0.1576   29.0424 C.ar    1  UNL1       -0.0244
     28 C          -0.1750    0.3317   29.2425 C.ar    1  UNL1       -0.0045
     29 C          -1.0003    1.0075   28.1879 C.ar    1  UNL1       -0.0003
     30 C          -0.3491    1.5092   26.9332 C.ar    1  UNL1       -0.0003
     31 C           1.1272    1.3352   26.7331 C.ar    1  UNL1       -0.0028
     32 C           1.9525    0.6594   27.7877 C.ar    1  UNL1       -0.0030
     33 C           2.6610    0.2741   31.2533 C.3     1  UNL1        0.0050
     34 C           2.1267   -0.5182   30.0970 C.3     1  UNL1        0.0261
     35 N           4.3920    1.4173   28.2611 N.3     1  UNL1       -0.2605
     36 C           5.6941    0.8951   28.7921 C.3     1  UNL1        0.0903
     37 C           4.0531    2.8716   28.4037 C.3     1  UNL1        0.0903
@<TRIPOS>BOND
     1    33    34    1
     2    34    27    1
     3    27    28   ar
     4    28    29   ar
     5    29    30   ar
     6    30    31   ar
     7    31    32   ar
     8    32    26    1
     9    26    22    1
    10    22    23    2
    11    22    24   am
    12    24     1    1
    13     1     2    2
    14     2     3    1
    15     3     4    2
    16     4     5    1
    17     5     6    2
    18     6     7    1
    19     7    10    1
    20    10    11   ar
    21    11    12   ar
    22    12    13   ar
    23    13    14   ar
    24    14    16    1
    25    16    17    1
    26    16    18    2
    27    16    19    2
    28    14    15   ar
    29     7     8    2
    30     8     9    1
    31    26    35    1
    32    35    36    1
    33    35    37    1
    34    32    27   ar
    35     9     1    1
    36     8     4    1
    37    15    10   ar
    38    24    25    1
    39    17    20    1
    40    17    21    1
