@<TRIPOS>MOLECULE
*****
 32 35 0 0 0
SMALL
GASTEIGER

@<TRIPOS>ATOM
      1 N          -6.1186  -18.1693   22.2909 N.ar    1  UNL1       -0.2880
      2 C          -7.1647  -19.2393   22.1875 C.ar    1  UNL1        0.0847
      3 C          -8.3425  -18.8175   23.0152 C.ar    1  UNL1        0.0594
      4 C          -8.0242  -17.4869   23.6301 C.ar    1  UNL1        0.0391
      5 C          -8.8084  -16.5883   24.5398 C.ar    1  UNL1        0.0047
      6 C          -8.2181  -15.2890   25.0018 C.ar    1  UNL1        0.0208
      7 C          -6.8436  -14.8884   24.5541 C.ar    1  UNL1        0.1005
      8 N          -6.0595  -15.7870   23.6445 N.ar    1  UNL1       -0.2264
      9 C          -6.6498  -17.0862   23.1824 C.ar    1  UNL1        0.1478
     10 C          -2.0933  -18.2026   20.2794 C.ar    1  UNL1        0.0163
     11 C          -2.2074  -17.8096   21.7225 C.ar    1  UNL1        0.0028
     12 C          -3.5492  -17.7985   22.3930 C.ar    1  UNL1        0.0199
     13 C          -4.7768  -18.1804   21.6204 C.ar    1  UNL1        0.0927
     14 C          -4.6627  -18.5734   20.1772 C.ar    1  UNL1        0.1562
     15 F          -5.8904  -18.9553   19.4046 F       1  UNL1       -0.2026
     16 C          -3.3210  -18.5845   19.5068 C.ar    1  UNL1        0.0323
     17 O          -0.6553  -18.0499   18.1210 O.co2   1  UNL1       -0.5446
     18 C          -0.7515  -18.2137   19.6089 C.2     1  UNL1        0.0729
     19 O           0.4940  -18.3885   20.4264 O.co2   1  UNL1       -0.5446
     20 C          -9.6151  -19.5906   23.1962 C.2     1  UNL1        0.1979
     21 O          -9.5696  -21.0028   23.6996 O.2     1  UNL1       -0.2865
     22 C         -10.9333  -18.9515   22.8738 C.ar    1  UNL1        0.0535
     23 C         -11.9115  -18.6550   23.9716 C.ar    1  UNL1        0.0607
     24 CL        -11.5715  -18.9977   25.3918 Cl      1  UNL1       -0.0821
     25 C         -13.2297  -18.0158   23.6493 C.ar    1  UNL1        0.0115
     26 C         -13.5696  -17.6732   22.2291 C.ar    1  UNL1        0.0008
     27 C         -12.5914  -17.9697   21.1312 C.ar    1  UNL1        0.0040
     28 C         -11.2732  -18.6088   21.4536 C.ar    1  UNL1        0.0753
     29 C         -10.2950  -18.9053   20.3558 C.3     1  UNL1        0.4187
     30 F          -9.3168  -19.2018   19.2579 F       1  UNL1       -0.1659
     31 F          -9.8152  -17.4848   20.3997 F       1  UNL1       -0.1659
     32 F         -10.7749  -20.3258   20.3118 F       1  UNL1       -0.1659
@<TRIPOS>UNITY_ATOM_ATTR
17 1
charge -1
@<TRIPOS>BOND
     1    17    18   ar
     2    18    19   ar
     3    18    10    1
     4    10    11   ar
     5    11    12   ar
     6    12    13   ar
     7    13     1    1
     8     1     2   ar
     9     2     3   ar
    10     3    20    1
    11    20    21    2
    12    20    22    1
    13    22    23   ar
    14    23    24    1
    15    23    25   ar
    16    25    26   ar
    17    26    27   ar
    18    27    28   ar
    19    28    29    1
    20    29    30    1
    21    29    31    1
    22    29    32    1
    23     3     4   ar
    24     4     5   ar
    25     5     6   ar
    26     6     7   ar
    27     7     8   ar
    28     8     9   ar
    29    13    14   ar
    30    14    15    1
    31    14    16   ar
    32    16    10   ar
    33     9     1   ar
    34    28    22   ar
    35     9     4   ar
@<TRIPOS>MOLECULE
*****
 32 35 0 0 0
SMALL
GASTEIGER

@<TRIPOS>ATOM
      1 N          -6.1192  -18.1894   22.2527 N.ar    1  UNL1       -0.2880
      2 C          -7.1670  -19.2587   22.1604 C.ar    1  UNL1        0.0847
      3 C          -8.3431  -18.8276   22.9856 C.ar    1  UNL1        0.0594
      4 C          -8.0221  -17.4918   23.5878 C.ar    1  UNL1        0.0391
      5 C          -8.8038  -16.5837   24.4902 C.ar    1  UNL1        0.0047
      6 C          -8.2109  -15.2812   24.9396 C.ar    1  UNL1        0.0208
      7 C          -6.8364  -14.8868   24.4866 C.ar    1  UNL1        0.1005
      8 N          -6.0547  -15.7949   23.5843 N.ar    1  UNL1       -0.2264
      9 C          -6.6476  -17.0974   23.1349 C.ar    1  UNL1        0.1478
     10 C          -2.0962  -18.2473   20.2369 C.ar    1  UNL1        0.0163
     11 C          -3.3405  -18.4892   19.4350 C.ar    1  UNL1        0.0028
     12 C          -4.6815  -18.4699   20.1069 C.ar    1  UNL1        0.0199
     13 C          -4.7782  -18.2087   21.5807 C.ar    1  UNL1        0.0927
     14 C          -3.5338  -17.9668   22.3828 C.ar    1  UNL1        0.1562
     15 F          -3.6305  -17.7056   23.8567 F       1  UNL1       -0.2026
     16 C          -2.1929  -17.9861   21.7108 C.ar    1  UNL1        0.0323
     17 O          -0.6544  -18.0392   18.0858 O.co2   1  UNL1       -0.5446
     18 C          -0.7553  -18.2666   19.5650 C.2     1  UNL1        0.0729
     19 O           0.4846  -18.5134   20.3723 O.co2   1  UNL1       -0.5446
     20 C          -9.6167  -19.5970   23.1752 C.2     1  UNL1        0.1979
     21 O          -9.5720  -21.0088   23.6797 O.2     1  UNL1       -0.2865
     22 C         -10.9351  -18.9546   22.8602 C.ar    1  UNL1        0.0535
     23 C         -11.9072  -18.6574   23.9633 C.ar    1  UNL1        0.0607
     24 CL        -11.5608  -19.0027   25.3814 Cl      1  UNL1       -0.0821
     25 C         -13.2255  -18.0150   23.6485 C.ar    1  UNL1        0.0115
     26 C         -13.5719  -17.6697   22.2304 C.ar    1  UNL1        0.0008
     27 C         -12.5998  -17.9669   21.1273 C.ar    1  UNL1        0.0040
     28 C         -11.2815  -18.6093   21.4422 C.ar    1  UNL1        0.0753
     29 C         -10.3094  -18.9064   20.3391 C.3     1  UNL1        0.4187
     30 F          -9.3374  -19.2036   19.2360 F       1  UNL1       -0.1659
     31 F         -10.7835  -20.3291   20.3045 F       1  UNL1       -0.1659
     32 F          -9.8353  -17.4838   20.3736 F       1  UNL1       -0.1659
@<TRIPOS>UNITY_ATOM_ATTR
17 1
charge -1
@<TRIPOS>BOND
     1    17    18   ar
     2    18    19   ar
     3    18    10    1
     4    10    11   ar
     5    11    12   ar
     6    12    13   ar
     7    13     1    1
     8     1     2   ar
     9     2     3   ar
    10     3    20    1
    11    20    21    2
    12    20    22    1
    13    22    23   ar
    14    23    24    1
    15    23    25   ar
    16    25    26   ar
    17    26    27   ar
    18    27    28   ar
    19    28    29    1
    20    29    30    1
    21    29    31    1
    22    29    32    1
    23     3     4   ar
    24     4     5   ar
    25     5     6   ar
    26     6     7   ar
    27     7     8   ar
    28     8     9   ar
    29    13    14   ar
    30    14    15    1
    31    14    16   ar
    32    16    10   ar
    33     9     1   ar
    34    28    22   ar
    35     9     4   ar
@<TRIPOS>MOLECULE
*****
 32 35 0 0 0
SMALL
GASTEIGER

@<TRIPOS>ATOM
      1 N          -5.9740  -18.0877   21.6591 N.ar    1  UNL1       -0.2880
      2 C          -7.0693  -18.9328   21.0792 C.ar    1  UNL1        0.0847
      3 C          -8.3530  -18.5577   21.7584 C.ar    1  UNL1        0.0594
      4 C          -8.0512  -17.4809   22.7580 C.ar    1  UNL1        0.0391
      5 C          -8.9252  -16.7273   23.7162 C.ar    1  UNL1        0.0047
      6 C          -8.3289  -15.6832   24.6130 C.ar    1  UNL1        0.0208
      7 C          -6.8586  -15.3927   24.5516 C.ar    1  UNL1        0.1005
      8 N          -5.9846  -16.1463   23.5935 N.ar    1  UNL1       -0.2264
      9 C          -6.5809  -17.1904   22.6967 C.ar    1  UNL1        0.1478
     10 C          -1.6302  -18.2211   20.4913 C.ar    1  UNL1        0.0163
     11 C          -2.6896  -18.1447   19.4322 C.ar    1  UNL1        0.0028
     12 C          -4.1375  -18.1003   19.8215 C.ar    1  UNL1        0.0199
     13 C          -4.5261  -18.1322   21.2698 C.ar    1  UNL1        0.0927
     14 C          -3.4667  -18.2085   22.3291 C.ar    1  UNL1        0.1562
     15 F          -3.8552  -18.2405   23.7775 F       1  UNL1       -0.2026
     16 C          -2.0187  -18.2530   21.9398 C.ar    1  UNL1        0.0323
     17 O           0.4441  -19.5649   19.6907 O.co2   1  UNL1       -0.5446
     18 C          -0.1823  -18.2655   20.1020 C.2     1  UNL1        0.0729
     19 O           0.6391  -17.0106   20.1241 O.co2   1  UNL1       -0.5446
     20 C          -9.7019  -19.1547   21.4858 C.2     1  UNL1        0.1979
     21 O          -9.8455  -20.2531   20.4745 O.2     1  UNL1       -0.2865
     22 C         -10.9072  -18.6533   22.2247 C.ar    1  UNL1        0.0535
     23 C         -11.7943  -17.6186   21.5980 C.ar    1  UNL1        0.0607
     24 CL        -11.4760  -17.0855   20.2326 Cl      1  UNL1       -0.0821
     25 C         -12.9995  -17.1172   22.3368 C.ar    1  UNL1        0.0115
     26 C         -13.3178  -17.6503   23.7022 C.ar    1  UNL1        0.0008
     27 C         -12.4307  -18.6850   24.3289 C.ar    1  UNL1        0.0040
     28 C         -11.2254  -19.1864   23.5902 C.ar    1  UNL1        0.0753
     29 C         -10.3384  -20.2210   24.2168 C.3     1  UNL1        0.4187
     30 F          -9.4513  -21.2556   24.8434 F       1  UNL1       -0.1659
     31 F          -9.8697  -19.2107   25.2215 F       1  UNL1       -0.1659
     32 F         -10.8070  -21.2314   23.2121 F       1  UNL1       -0.1659
@<TRIPOS>UNITY_ATOM_ATTR
17 1
charge -1
@<TRIPOS>BOND
     1    17    18   ar
     2    18    19   ar
     3    18    10    1
     4    10    11   ar
     5    11    12   ar
     6    12    13   ar
     7    13     1    1
     8     1     2   ar
     9     2     3   ar
    10     3    20    1
    11    20    21    2
    12    20    22    1
    13    22    23   ar
    14    23    24    1
    15    23    25   ar
    16    25    26   ar
    17    26    27   ar
    18    27    28   ar
    19    28    29    1
    20    29    30    1
    21    29    31    1
    22    29    32    1
    23     3     4   ar
    24     4     5   ar
    25     5     6   ar
    26     6     7   ar
    27     7     8   ar
    28     8     9   ar
    29    13    14   ar
    30    14    15    1
    31    14    16   ar
    32    16    10   ar
    33     9     1   ar
    34    28    22   ar
    35     9     4   ar
@<TRIPOS>MOLECULE
*****
 32 35 0 0 0
SMALL
GASTEIGER

@<TRIPOS>ATOM
      1 N          -5.6215  -17.0335   23.0417 N.ar    1  UNL1       -0.2880
      2 C          -6.9602  -17.4950   22.5470 C.ar    1  UNL1        0.0847
      3 C          -7.9949  -17.0718   23.5471 C.ar    1  UNL1        0.0594
      4 C          -7.2957  -16.3488   24.6599 C.ar    1  UNL1        0.0391
      5 C          -7.8051  -15.7089   25.9172 C.ar    1  UNL1        0.0047
      6 C          -6.8477  -15.0454   26.8622 C.ar    1  UNL1        0.0208
      7 C          -5.3808  -15.0218   26.5498 C.ar    1  UNL1        0.1005
      8 N          -4.8713  -15.6616   25.2925 N.ar    1  UNL1       -0.2264
      9 C          -5.8287  -16.3251   24.3475 C.ar    1  UNL1        0.1478
     10 C          -1.6758  -17.6637   20.9716 C.ar    1  UNL1        0.0163
     11 C          -1.9987  -16.3318   21.5811 C.ar    1  UNL1        0.0028
     12 C          -3.3139  -16.1217   22.2711 C.ar    1  UNL1        0.0199
     13 C          -4.3062  -17.2436   22.3517 C.ar    1  UNL1        0.0927
     14 C          -3.9833  -18.5757   21.7421 C.ar    1  UNL1        0.1562
     15 F          -4.9757  -19.6976   21.8226 F       1  UNL1       -0.2026
     16 C          -2.6681  -18.7857   21.0521 C.ar    1  UNL1        0.0323
     17 O          -0.0119  -19.2230   19.7266 O.co2   1  UNL1       -0.5446
     18 C          -0.3606  -17.8738   20.2816 C.2     1  UNL1        0.0729
     19 O           0.6059  -16.7346   20.1467 O.co2   1  UNL1       -0.5446
     20 C          -9.4700  -17.3268   23.4513 C.2     1  UNL1        0.1979
     21 O         -10.3791  -16.8987   24.5649 O.2     1  UNL1       -0.2865
     22 C         -10.0360  -18.0101   22.2418 C.ar    1  UNL1        0.0535
     23 C         -10.4665  -17.1997   21.0552 C.ar    1  UNL1        0.0607
     24 CL        -10.3310  -15.7060   21.0783 Cl      1  UNL1       -0.0821
     25 C         -11.0325  -17.8828   19.8458 C.ar    1  UNL1        0.0115
     26 C         -11.1680  -19.3765   19.8228 C.ar    1  UNL1        0.0008
     27 C         -10.7375  -20.1870   21.0093 C.ar    1  UNL1        0.0040
     28 C         -10.1715  -19.5038   22.2188 C.ar    1  UNL1        0.0753
     29 C          -9.7410  -20.3143   23.4053 C.3     1  UNL1        0.4187
     30 F          -9.3105  -21.1247   24.5919 F       1  UNL1       -0.1659
     31 F          -8.3638  -20.4347   22.8234 F       1  UNL1       -0.1659
     32 F         -11.1182  -20.1938   23.9873 F       1  UNL1       -0.1659
@<TRIPOS>UNITY_ATOM_ATTR
17 1
charge -1
@<TRIPOS>BOND
     1    17    18   ar
     2    18    19   ar
     3    18    10    1
     4    10    11   ar
     5    11    12   ar
     6    12    13   ar
     7    13     1    1
     8     1     2   ar
     9     2     3   ar
    10     3    20    1
    11    20    21    2
    12    20    22    1
    13    22    23   ar
    14    23    24    1
    15    23    25   ar
    16    25    26   ar
    17    26    27   ar
    18    27    28   ar
    19    28    29    1
    20    29    30    1
    21    29    31    1
    22    29    32    1
    23     3     4   ar
    24     4     5   ar
    25     5     6   ar
    26     6     7   ar
    27     7     8   ar
    28     8     9   ar
    29    13    14   ar
    30    14    15    1
    31    14    16   ar
    32    16    10   ar
    33     9     1   ar
    34    28    22   ar
    35     9     4   ar
@<TRIPOS>MOLECULE
*****
 32 35 0 0 0
SMALL
GASTEIGER

@<TRIPOS>ATOM
      1 N          -6.2163  -18.6719   21.4732 N.ar    1  UNL1       -0.2880
      2 C          -6.8428  -18.3280   22.7919 C.ar    1  UNL1        0.0847
      3 C          -8.3111  -18.6200   22.6976 C.ar    1  UNL1        0.0594
      4 C          -8.5920  -19.1444   21.3206 C.ar    1  UNL1        0.0391
      5 C          -9.8593  -19.5969   20.6581 C.ar    1  UNL1        0.0047
      6 C          -9.8320  -20.0814   19.2388 C.ar    1  UNL1        0.0208
      7 C          -8.5373  -20.1134   18.4821 C.ar    1  UNL1        0.1005
      8 N          -7.2699  -19.6610   19.1446 N.ar    1  UNL1       -0.2264
      9 C          -7.2972  -19.1765   20.5639 C.ar    1  UNL1        0.1478
     10 C          -1.8584  -18.2619   20.4283 C.ar    1  UNL1        0.0163
     11 C          -2.8579  -18.5932   19.3600 C.ar    1  UNL1        0.0028
     12 C          -4.3105  -18.7299   19.7083 C.ar    1  UNL1        0.0199
     13 C          -4.7637  -18.5352   21.1249 C.ar    1  UNL1        0.0927
     14 C          -3.7641  -18.2038   22.1932 C.ar    1  UNL1        0.1562
     15 F          -4.2172  -18.0092   23.6098 F       1  UNL1       -0.2026
     16 C          -2.3115  -18.0672   21.8449 C.ar    1  UNL1        0.0323
     17 O           0.2554  -16.7800   20.1360 O.co2   1  UNL1       -0.5446
     18 C          -0.4059  -18.1252   20.0799 C.2     1  UNL1        0.0729
     19 O           0.3854  -19.3337   19.6756 O.co2   1  UNL1       -0.5446
     20 C          -9.3212  -18.4224   23.7888 C.2     1  UNL1        0.1979
     21 O          -9.0076  -18.8587   25.1892 O.2     1  UNL1       -0.2865
     22 C         -10.6450  -17.7883   23.4795 C.ar    1  UNL1        0.0535
     23 C         -11.9176  -18.4865   23.8577 C.ar    1  UNL1        0.0607
     24 CL        -11.8664  -19.8187   24.5452 Cl      1  UNL1       -0.0821
     25 C         -13.2414  -17.8525   23.5485 C.ar    1  UNL1        0.0115
     26 C         -13.2926  -16.5203   22.8609 C.ar    1  UNL1        0.0008
     27 C         -12.0200  -15.8222   22.4827 C.ar    1  UNL1        0.0040
     28 C         -10.6962  -16.4561   22.7920 C.ar    1  UNL1        0.0753
     29 C          -9.4236  -15.7580   22.4137 C.3     1  UNL1        0.4187
     30 F          -8.1510  -15.0598   22.0355 F       1  UNL1       -0.1659
     31 F          -9.1006  -15.5604   23.8652 F       1  UNL1       -0.1659
     32 F          -9.7466  -15.9556   20.9623 F       1  UNL1       -0.1659
@<TRIPOS>UNITY_ATOM_ATTR
17 1
charge -1
@<TRIPOS>BOND
     1    17    18   ar
     2    18    19   ar
     3    18    10    1
     4    10    11   ar
     5    11    12   ar
     6    12    13   ar
     7    13     1    1
     8     1     2   ar
     9     2     3   ar
    10     3    20    1
    11    20    21    2
    12    20    22    1
    13    22    23   ar
    14    23    24    1
    15    23    25   ar
    16    25    26   ar
    17    26    27   ar
    18    27    28   ar
    19    28    29    1
    20    29    30    1
    21    29    31    1
    22    29    32    1
    23     3     4   ar
    24     4     5   ar
    25     5     6   ar
    26     6     7   ar
    27     7     8   ar
    28     8     9   ar
    29    13    14   ar
    30    14    15    1
    31    14    16   ar
    32    16    10   ar
    33     9     1   ar
    34    28    22   ar
    35     9     4   ar
@<TRIPOS>MOLECULE
*****
 32 35 0 0 0
SMALL
GASTEIGER

@<TRIPOS>ATOM
      1 N          -5.8774  -18.2848   21.4473 N.ar    1  UNL1       -0.2880
      2 C          -6.4805  -17.6409   22.6603 C.ar    1  UNL1        0.0847
      3 C          -7.9614  -17.8766   22.6223 C.ar    1  UNL1        0.0594
      4 C          -8.2735  -18.6662   21.3858 C.ar    1  UNL1        0.0391
      5 C          -9.5641  -19.1881   20.8273 C.ar    1  UNL1        0.0047
      6 C          -9.5667  -19.9622   19.5425 C.ar    1  UNL1        0.0208
      7 C          -8.2788  -20.2145   18.8163 C.ar    1  UNL1        0.1005
      8 N          -6.9882  -19.6927   19.3748 N.ar    1  UNL1       -0.2264
      9 C          -6.9855  -18.9185   20.6595 C.ar    1  UNL1        0.1478
     10 C          -1.5103  -18.3111   20.3618 C.ar    1  UNL1        0.0163
     11 C          -2.5516  -18.3196   19.2821 C.ar    1  UNL1        0.0028
     12 C          -4.0073  -18.3109   19.6440 C.ar    1  UNL1        0.0199
     13 C          -4.4217  -18.2936   21.0854 C.ar    1  UNL1        0.0927
     14 C          -3.3804  -18.2850   22.1651 C.ar    1  UNL1        0.1562
     15 F          -3.7948  -18.2676   23.6066 F       1  UNL1       -0.2026
     16 C          -1.9247  -18.2937   21.8033 C.ar    1  UNL1        0.0323
     17 O           0.7345  -17.0447   20.0352 O.co2   1  UNL1       -0.5446
     18 C          -0.0547  -18.3198   19.9999 C.2     1  UNL1        0.0729
     19 O           0.6118  -19.6036   19.6028 O.co2   1  UNL1       -0.5446
     20 C          -8.9556  -17.4054   23.6419 C.2     1  UNL1        0.1979
     21 O          -8.4812  -16.8632   24.9574 O.2     1  UNL1       -0.2865
     22 C         -10.4245  -17.4765   23.3458 C.ar    1  UNL1        0.0535
     23 C         -11.0680  -16.4286   22.4869 C.ar    1  UNL1        0.0607
     24 CL        -10.2427  -15.3096   21.9240 Cl      1  UNL1       -0.0821
     25 C         -12.5367  -16.4996   22.1908 C.ar    1  UNL1        0.0115
     26 C         -13.3620  -17.6186   22.7537 C.ar    1  UNL1        0.0008
     27 C         -12.7185  -18.6665   23.6126 C.ar    1  UNL1        0.0040
     28 C         -11.2497  -18.5955   23.9087 C.ar    1  UNL1        0.0753
     29 C         -10.6062  -19.6433   24.7677 C.3     1  UNL1        0.4187
     30 F          -9.9627  -20.6912   25.6266 F       1  UNL1       -0.1659
     31 F         -10.6597  -20.6132   23.6247 F       1  UNL1       -0.1659
     32 F         -10.5527  -18.6735   25.9107 F       1  UNL1       -0.1659
@<TRIPOS>UNITY_ATOM_ATTR
17 1
charge -1
@<TRIPOS>BOND
     1    17    18   ar
     2    18    19   ar
     3    18    10    1
     4    10    11   ar
     5    11    12   ar
     6    12    13   ar
     7    13     1    1
     8     1     2   ar
     9     2     3   ar
    10     3    20    1
    11    20    21    2
    12    20    22    1
    13    22    23   ar
    14    23    24    1
    15    23    25   ar
    16    25    26   ar
    17    26    27   ar
    18    27    28   ar
    19    28    29    1
    20    29    30    1
    21    29    31    1
    22    29    32    1
    23     3     4   ar
    24     4     5   ar
    25     5     6   ar
    26     6     7   ar
    27     7     8   ar
    28     8     9   ar
    29    13    14   ar
    30    14    15    1
    31    14    16   ar
    32    16    10   ar
    33     9     1   ar
    34    28    22   ar
    35     9     4   ar
@<TRIPOS>MOLECULE
*****
 32 35 0 0 0
SMALL
GASTEIGER

@<TRIPOS>ATOM
      1 N          -5.8886  -16.8154   23.2111 N.ar    1  UNL1       -0.2880
      2 C          -7.2477  -17.1248   22.6570 C.ar    1  UNL1        0.0847
      3 C          -8.2689  -16.7014   23.6708 C.ar    1  UNL1        0.0594
      4 C          -7.5410  -16.1304   24.8515 C.ar    1  UNL1        0.0391
      5 C          -8.0277  -15.5554   26.1486 C.ar    1  UNL1        0.0047
      6 C          -7.0433  -15.0509   27.1615 C.ar    1  UNL1        0.0208
      7 C          -5.5721  -15.1213   26.8775 C.ar    1  UNL1        0.1005
      8 N          -5.0854  -15.6963   25.5804 N.ar    1  UNL1       -0.2264
      9 C          -6.0699  -16.2008   24.5674 C.ar    1  UNL1        0.1478
     10 C          -1.9575  -17.5942   21.1641 C.ar    1  UNL1        0.0163
     11 C          -2.2422  -16.2441   21.7525 C.ar    1  UNL1        0.0028
     12 C          -3.5526  -15.9846   22.4349 C.ar    1  UNL1        0.0199
     13 C          -4.5782  -17.0750   22.5288 C.ar    1  UNL1        0.0927
     14 C          -4.2935  -18.4251   21.9403 C.ar    1  UNL1        0.1562
     15 F          -5.3192  -19.5156   22.0342 F       1  UNL1       -0.2026
     16 C          -2.9831  -18.6847   21.2580 C.ar    1  UNL1        0.0323
     17 O           0.3622  -16.7517   20.3523 O.co2   1  UNL1       -0.5446
     18 C          -0.6471  -17.8538   20.4818 C.2     1  UNL1        0.0729
     19 O          -0.3461  -19.2153   19.9290 O.co2   1  UNL1       -0.5446
     20 C          -9.7569  -16.8271   23.5288 C.2     1  UNL1        0.1979
     21 O         -10.6525  -15.7278   24.0181 O.2     1  UNL1       -0.2865
     22 C         -10.3494  -18.0521   22.8976 C.ar    1  UNL1        0.0535
     23 C         -10.3785  -19.3466   23.6549 C.ar    1  UNL1        0.0607
     24 CL         -9.8151  -19.4160   25.0434 Cl      1  UNL1       -0.0821
     25 C         -10.9709  -20.5716   23.0237 C.ar    1  UNL1        0.0115
     26 C         -11.5342  -20.5021   21.6352 C.ar    1  UNL1        0.0008
     27 C         -11.5051  -19.2076   20.8780 C.ar    1  UNL1        0.0040
     28 C         -10.9127  -17.9826   21.5091 C.ar    1  UNL1        0.0753
     29 C         -10.8836  -16.6882   20.7519 C.3     1  UNL1        0.4187
     30 F         -10.8545  -15.3937   19.9946 F       1  UNL1       -0.1659
     31 F         -12.2340  -16.3361   21.3018 F       1  UNL1       -0.1659
     32 F          -9.5332  -17.0402   20.2019 F       1  UNL1       -0.1659
@<TRIPOS>UNITY_ATOM_ATTR
17 1
charge -1
@<TRIPOS>BOND
     1    17    18   ar
     2    18    19   ar
     3    18    10    1
     4    10    11   ar
     5    11    12   ar
     6    12    13   ar
     7    13     1    1
     8     1     2   ar
     9     2     3   ar
    10     3    20    1
    11    20    21    2
    12    20    22    1
    13    22    23   ar
    14    23    24    1
    15    23    25   ar
    16    25    26   ar
    17    26    27   ar
    18    27    28   ar
    19    28    29    1
    20    29    30    1
    21    29    31    1
    22    29    32    1
    23     3     4   ar
    24     4     5   ar
    25     5     6   ar
    26     6     7   ar
    27     7     8   ar
    28     8     9   ar
    29    13    14   ar
    30    14    15    1
    31    14    16   ar
    32    16    10   ar
    33     9     1   ar
    34    28    22   ar
    35     9     4   ar
@<TRIPOS>MOLECULE
*****
 32 35 0 0 0
SMALL
GASTEIGER

@<TRIPOS>ATOM
      1 N          -7.5994  -17.7451   23.1545 N.ar    1  UNL1       -0.2880
      2 C          -6.6167  -18.6330   22.4502 C.ar    1  UNL1        0.0847
      3 C          -5.2363  -18.2144   22.8617 C.ar    1  UNL1        0.0594
      4 C          -5.3658  -17.0679   23.8201 C.ar    1  UNL1        0.0391
      5 C          -4.3426  -16.2505   24.5514 C.ar    1  UNL1        0.0047
      6 C          -4.7799  -15.1431   25.4637 C.ar    1  UNL1        0.0208
      7 C          -6.2404  -14.8530   25.6447 C.ar    1  UNL1        0.1005
      8 N          -7.2636  -15.6704   24.9134 N.ar    1  UNL1       -0.2264
      9 C          -6.8263  -16.7778   24.0011 C.ar    1  UNL1        0.1478
     10 C         -12.0801  -17.9478   22.7911 C.ar    1  UNL1        0.0163
     11 C         -11.3539  -16.6882   22.4222 C.ar    1  UNL1        0.0028
     12 C          -9.8604  -16.6207   22.5433 C.ar    1  UNL1        0.0199
     13 C          -9.0930  -17.8126   23.0333 C.ar    1  UNL1        0.0927
     14 C          -9.8192  -19.0723   23.4023 C.ar    1  UNL1        0.1562
     15 F          -9.0518  -20.2643   23.8924 F       1  UNL1       -0.2026
     16 C         -11.3128  -19.1398   23.2812 C.ar    1  UNL1        0.0323
     17 O         -14.4193  -18.1755   23.8985 O.co2   1  UNL1       -0.5446
     18 C         -13.5737  -18.0153   22.6700 C.2     1  UNL1        0.0729
     19 O         -14.2217  -17.9227   21.3204 O.co2   1  UNL1       -0.5446
     20 C          -3.9517  -18.8337   22.3963 C.2     1  UNL1        0.1979
     21 O          -3.2787  -19.8821   23.2316 O.2     1  UNL1       -0.2865
     22 C          -3.3402  -18.4045   21.0955 C.ar    1  UNL1        0.0535
     23 C          -2.3639  -17.2661   21.0652 C.ar    1  UNL1        0.0607
     24 CL         -1.9991  -16.5570   22.3357 Cl      1  UNL1       -0.0821
     25 C          -1.7523  -16.8369   19.7646 C.ar    1  UNL1        0.0115
     26 C          -2.1172  -17.5461   18.4942 C.ar    1  UNL1        0.0008
     27 C          -3.0935  -18.6844   18.5245 C.ar    1  UNL1        0.0040
     28 C          -3.7050  -19.1137   19.8251 C.ar    1  UNL1        0.0753
     29 C          -4.6814  -20.2520   19.8554 C.3     1  UNL1        0.4187
     30 F          -5.6577  -21.3903   19.8857 F       1  UNL1       -0.1659
     31 F          -5.8047  -19.2958   19.5839 F       1  UNL1       -0.1659
     32 F          -3.5580  -21.2082   20.1268 F       1  UNL1       -0.1659
@<TRIPOS>UNITY_ATOM_ATTR
17 1
charge -1
@<TRIPOS>BOND
     1    17    18   ar
     2    18    19   ar
     3    18    10    1
     4    10    11   ar
     5    11    12   ar
     6    12    13   ar
     7    13     1    1
     8     1     2   ar
     9     2     3   ar
    10     3    20    1
    11    20    21    2
    12    20    22    1
    13    22    23   ar
    14    23    24    1
    15    23    25   ar
    16    25    26   ar
    17    26    27   ar
    18    27    28   ar
    19    28    29    1
    20    29    30    1
    21    29    31    1
    22    29    32    1
    23     3     4   ar
    24     4     5   ar
    25     5     6   ar
    26     6     7   ar
    27     7     8   ar
    28     8     9   ar
    29    13    14   ar
    30    14    15    1
    31    14    16   ar
    32    16    10   ar
    33     9     1   ar
    34    28    22   ar
    35     9     4   ar
@<TRIPOS>MOLECULE
*****
 32 35 0 0 0
SMALL
GASTEIGER

@<TRIPOS>ATOM
      1 N          -5.3047  -18.0978   22.1951 N.ar    1  UNL1       -0.2880
      2 C          -6.3519  -19.1459   21.9610 C.ar    1  UNL1        0.0847
      3 C          -7.5945  -18.7308   22.6914 C.ar    1  UNL1        0.0594
      4 C          -7.3153  -17.4261   23.3770 C.ar    1  UNL1        0.0391
      5 C          -8.1669  -16.5439   24.2408 C.ar    1  UNL1        0.0047
      6 C          -7.6033  -15.2704   24.7980 C.ar    1  UNL1        0.0208
      7 C          -6.1881  -14.8792   24.4913 C.ar    1  UNL1        0.1005
      8 N          -5.3365  -15.7614   23.6274 N.ar    1  UNL1       -0.2264
      9 C          -5.9001  -17.0349   23.0702 C.ar    1  UNL1        0.1478
     10 C          -1.1126  -18.1354   20.5593 C.ar    1  UNL1        0.0163
     11 C          -1.3600  -17.7201   21.9793 C.ar    1  UNL1        0.0028
     12 C          -2.7573  -17.7075   22.5245 C.ar    1  UNL1        0.0199
     13 C          -3.9073  -18.1103   21.6499 C.ar    1  UNL1        0.0927
     14 C          -3.6600  -18.5257   20.2298 C.ar    1  UNL1        0.1562
     15 F          -4.8101  -18.9285   19.3551 F       1  UNL1       -0.2026
     16 C          -2.2627  -18.5382   19.6846 C.ar    1  UNL1        0.0323
     17 O           0.8710  -19.4223   19.4828 O.co2   1  UNL1       -0.5446
     18 C           0.2847  -18.1479   20.0141 C.2     1  UNL1        0.0729
     19 O           1.0957  -16.8861   20.0001 O.co2   1  UNL1       -0.5446
     20 C          -8.8891  -19.4875   22.7296 C.2     1  UNL1        0.1979
     21 O          -8.9354  -20.8652   23.3206 O.2     1  UNL1       -0.2865
     22 C         -10.1376  -18.8662   22.1766 C.ar    1  UNL1        0.0535
     23 C         -10.3235  -18.7497   20.6928 C.ar    1  UNL1        0.0607
     24 CL         -9.2610  -19.2543   19.7619 Cl      1  UNL1       -0.0821
     25 C         -11.5718  -18.1285   20.1398 C.ar    1  UNL1        0.0115
     26 C         -12.6342  -17.6239   21.0708 C.ar    1  UNL1        0.0008
     27 C         -12.4483  -17.7405   22.5546 C.ar    1  UNL1        0.0040
     28 C         -11.2000  -18.3616   23.1076 C.ar    1  UNL1        0.0753
     29 C         -11.0140  -18.4782   24.5914 C.3     1  UNL1        0.4187
     30 F         -10.8281  -18.5948   26.0753 F       1  UNL1       -0.1659
     31 F         -10.5013  -17.0693   24.6379 F       1  UNL1       -0.1659
     32 F         -11.5267  -19.8871   24.5450 F       1  UNL1       -0.1659
@<TRIPOS>UNITY_ATOM_ATTR
17 1
charge -1
@<TRIPOS>BOND
     1    17    18   ar
     2    18    19   ar
     3    18    10    1
     4    10    11   ar
     5    11    12   ar
     6    12    13   ar
     7    13     1    1
     8     1     2   ar
     9     2     3   ar
    10     3    20    1
    11    20    21    2
    12    20    22    1
    13    22    23   ar
    14    23    24    1
    15    23    25   ar
    16    25    26   ar
    17    26    27   ar
    18    27    28   ar
    19    28    29    1
    20    29    30    1
    21    29    31    1
    22    29    32    1
    23     3     4   ar
    24     4     5   ar
    25     5     6   ar
    26     6     7   ar
    27     7     8   ar
    28     8     9   ar
    29    13    14   ar
    30    14    15    1
    31    14    16   ar
    32    16    10   ar
    33     9     1   ar
    34    28    22   ar
    35     9     4   ar
