@<TRIPOS>MOLECULE
*****
 43 45 0 0 0
SMALL
GASTEIGER

@<TRIPOS>ATOM
      1 C           5.2062   -2.9949   20.1605 C.3     1  UNL1        0.2120
      2 O           5.4771   -1.9079   21.1580 O.3     1  UNL1       -0.3763
      3 H           6.3884   -1.5926   21.0531 H       1  UNL1        0.2107
      4 C           4.9352   -4.0819   19.1630 C.3     1  UNL1        0.4226
      5 F           4.6644   -5.1689   18.1655 F       1  UNL1       -0.1675
      6 F           5.7853   -3.3679   18.1542 F       1  UNL1       -0.1675
      7 F           4.0853   -4.7958   20.1719 F       1  UNL1       -0.1675
      8 C           6.4968   -3.6608   20.5357 C.3     1  UNL1        0.1269
      9 C           7.8081   -4.8915   22.4107 C.2     1  UNL1        0.2502
     10 O           8.3545   -5.8532   21.3974 O.2     1  UNL1       -0.2700
     11 N           6.8792   -3.7954   21.9799 N.am    1  UNL1       -0.2982
     12 H           6.5206   -3.1643   22.6449 H       1  UNL1        0.1498
     13 N           5.9933   -3.9876   24.9679 N.pl3   1  UNL1       -0.3424
     14 C           7.3563   -4.6105   25.0303 C.ar    1  UNL1        0.1327
     15 C           8.1905   -5.0261   23.8549 C.ar    1  UNL1        0.1053
     16 C           9.4742   -5.5998   24.3773 C.ar    1  UNL1        0.1278
     17 N           9.4335   -5.5388   25.8755 N.ar    1  UNL1       -0.1622
     18 N           8.1246   -4.9275   26.2791 N.ar    1  UNL1       -0.2163
     19 H           5.5691   -3.8177   24.0958 H       1  UNL1        0.1437
     20 H           5.5228   -3.7485   25.7990 H       1  UNL1        0.1437
     21 C           7.6646   -4.6770   27.6847 C.ar    1  UNL1        0.0843
     22 C           7.4828   -3.2711   28.1750 C.ar    1  UNL1        0.0215
     23 C           7.0228   -3.0206   29.5805 C.ar    1  UNL1        0.0312
     24 C           6.7445   -4.1760   30.4958 C.ar    1  UNL1        0.1402
     25 F           6.2845   -3.9253   31.9014 F       1  UNL1       -0.2042
     26 C           6.9263   -5.5819   30.0055 C.ar    1  UNL1        0.0312
     27 C           7.3863   -5.8324   28.5999 C.ar    1  UNL1        0.0215
     28 C           3.9155   -2.3289   19.7854 C.3     1  UNL1        0.1308
     29 N           3.9010   -0.8747   19.4178 N.am    1  UNL1       -0.2707
     30 C           2.9786    0.0698   20.1301 C.2     1  UNL1        0.2508
     31 O           2.0708   -0.4400   21.2099 O.2     1  UNL1       -0.2698
     32 C           2.9642    1.5239   19.7625 C.ar    1  UNL1        0.0747
     33 C           1.9310    2.0461   18.8087 C.ar    1  UNL1        0.0628
     34 CL          0.9123    1.1142   18.2224 Cl      1  UNL1       -0.0821
     35 C           1.9165    3.5004   18.4411 C.ar    1  UNL1        0.0116
     36 C           2.9352    4.4323   19.0274 C.ar    1  UNL1        0.0017
     37 C           3.9684    3.9101   19.9813 C.ar    1  UNL1        0.0116
     38 C           3.9828    2.4559   20.3488 C.ar    1  UNL1        0.0628
     39 CL          5.0160    1.9337   21.3027 Cl      1  UNL1       -0.0821
     40 C           4.8089   -0.3650   18.3380 C.3     1  UNL1        0.1255
     41 C           4.3423   -0.3464   16.9126 C.3     1  UNL1        0.1586
     42 O           3.7301   -1.5750   16.3078 O.3     1  UNL1       -0.3802
     43 H           4.3992   -2.2749   16.2504 H       1  UNL1        0.2105
@<TRIPOS>BOND
     1    13    14    1
     2    14    15   ar
     3    15     9    1
     4     9    10    2
     5     9    11   am
     6    11     8    1
     7     8     1    1
     8     1     2    1
     9     1    28    1
    10    28    29    1
    11    29    40    1
    12    40    41    1
    13    41    42    1
    14    29    30   am
    15    30    31    2
    16    30    32    1
    17    32    33   ar
    18    33    34    1
    19    33    35   ar
    20    35    36   ar
    21    36    37   ar
    22    37    38   ar
    23    38    39    1
    24     1     4    1
    25     4     5    1
    26     4     6    1
    27     4     7    1
    28    15    16   ar
    29    16    17   ar
    30    17    18   ar
    31    18    21    1
    32    21    22   ar
    33    22    23   ar
    34    23    24   ar
    35    24    25    1
    36    24    26   ar
    37    26    27   ar
    38    18    14   ar
    39    27    21   ar
    40    38    32   ar
    41    13    19    1
    42    13    20    1
    43    11    12    1
    44     2     3    1
    45    42    43    1
@<TRIPOS>MOLECULE
*****
 43 45 0 0 0
SMALL
GASTEIGER

@<TRIPOS>ATOM
      1 C           0.7884    3.6508   19.3119 C.3     1  UNL1        0.2120
      2 O           1.4532    3.4789   20.6455 O.3     1  UNL1       -0.3763
      3 H           0.8070    3.1473   21.2885 H       1  UNL1        0.2107
      4 C           0.1237    3.8227   17.9783 C.3     1  UNL1        0.4226
      5 F          -0.5410    3.9946   16.6446 F       1  UNL1       -0.1675
      6 F           1.3783    4.4374   17.4322 F       1  UNL1       -0.1675
      7 F          -1.1308    3.2080   18.5244 F       1  UNL1       -0.1675
      8 C          -0.3538    4.3636   19.9731 C.3     1  UNL1        0.1269
      9 C          -1.6717    3.5988   22.0775 C.2     1  UNL1        0.2502
     10 O          -2.6868    2.9299   21.1986 O.2     1  UNL1       -0.2700
     11 N          -0.5052    4.3156   21.4647 N.am    1  UNL1       -0.2982
     12 H           0.1610    4.7546   22.0415 H       1  UNL1        0.1498
     13 N           0.4390    2.2634   24.1778 N.pl3   1  UNL1       -0.3424
     14 C          -0.8528    2.9370   24.5345 C.ar    1  UNL1        0.1327
     15 C          -1.8231    3.5508   23.5690 C.ar    1  UNL1        0.1053
     16 C          -2.9712    4.1082   24.3571 C.ar    1  UNL1        0.1278
     17 N          -2.7107    3.8389   25.8095 N.ar    1  UNL1       -0.1622
     18 N          -1.4015    3.1151   25.9192 N.ar    1  UNL1       -0.2163
     19 H           0.7149    2.1955   23.2352 H       1  UNL1        0.1437
     20 H           1.0111    1.8893   24.8864 H       1  UNL1        0.1437
     21 C          -0.7544    2.6508   27.1903 C.ar    1  UNL1        0.0843
     22 C           0.1714    3.5642   27.9376 C.ar    1  UNL1        0.0215
     23 C           0.8184    3.0999   29.2087 C.ar    1  UNL1        0.0312
     24 C           0.5397    1.7222   29.7325 C.ar    1  UNL1        0.1402
     25 F           1.1868    1.2581   31.0037 F       1  UNL1       -0.2042
     26 C          -0.3862    0.8089   28.9852 C.ar    1  UNL1        0.0312
     27 C          -1.0332    1.2731   27.7141 C.ar    1  UNL1        0.0215
     28 C           1.9307    2.9380   18.6507 C.3     1  UNL1        0.1308
     29 N           2.1789    1.4875   18.9416 N.am    1  UNL1       -0.2707
     30 C           3.5787    0.9956   19.1623 C.2     1  UNL1        0.2508
     31 O           4.7303    1.9542   19.0921 O.2     1  UNL1       -0.2698
     32 C           3.8268   -0.4548   19.4532 C.ar    1  UNL1        0.0747
     33 C           3.9303   -0.9280   20.8728 C.ar    1  UNL1        0.0628
     34 CL          3.7855    0.0493   22.0015 Cl      1  UNL1       -0.0821
     35 C           4.1784   -2.3785   21.1637 C.ar    1  UNL1        0.0116
     36 C           4.3231   -3.3557   20.0350 C.ar    1  UNL1        0.0017
     37 C           4.2197   -2.8825   18.6153 C.ar    1  UNL1        0.0116
     38 C           3.9716   -1.4320   18.3244 C.ar    1  UNL1        0.0628
     39 CL          3.8681   -0.9589   16.9048 Cl      1  UNL1       -0.0821
     40 C           1.0273    0.5290   19.0118 C.3     1  UNL1        0.1255
     41 C           0.5121    0.0718   20.3442 C.3     1  UNL1        0.1586
     42 O          -0.1491    1.0506   21.2687 O.3     1  UNL1       -0.3802
     43 H           0.5012    1.7076   21.5628 H       1  UNL1        0.2105
@<TRIPOS>BOND
     1    13    14    1
     2    14    15   ar
     3    15     9    1
     4     9    10    2
     5     9    11   am
     6    11     8    1
     7     8     1    1
     8     1     2    1
     9     1    28    1
    10    28    29    1
    11    29    40    1
    12    40    41    1
    13    41    42    1
    14    29    30   am
    15    30    31    2
    16    30    32    1
    17    32    33   ar
    18    33    34    1
    19    33    35   ar
    20    35    36   ar
    21    36    37   ar
    22    37    38   ar
    23    38    39    1
    24     1     4    1
    25     4     5    1
    26     4     6    1
    27     4     7    1
    28    15    16   ar
    29    16    17   ar
    30    17    18   ar
    31    18    21    1
    32    21    22   ar
    33    22    23   ar
    34    23    24   ar
    35    24    25    1
    36    24    26   ar
    37    26    27   ar
    38    18    14   ar
    39    27    21   ar
    40    38    32   ar
    41    13    19    1
    42    13    20    1
    43    11    12    1
    44     2     3    1
    45    42    43    1
@<TRIPOS>MOLECULE
*****
 43 45 0 0 0
SMALL
GASTEIGER

@<TRIPOS>ATOM
      1 C           6.6207   -3.8993   23.9525 C.3     1  UNL1        0.2120
      2 O           5.1631   -3.5456   23.9335 O.3     1  UNL1       -0.3763
      3 H           5.0192   -2.7395   24.4535 H       1  UNL1        0.2107
      4 C           8.0782   -4.2529   23.9716 C.3     1  UNL1        0.4226
      5 F           9.5359   -4.6066   23.9906 F       1  UNL1       -0.1675
      6 F           7.7404   -5.6653   23.5960 F       1  UNL1       -0.1675
      7 F           8.4160   -2.8405   24.3472 F       1  UNL1       -0.1675
      8 C           6.6487   -3.7035   25.4394 C.3     1  UNL1        0.1269
      9 C           5.8375   -1.8185   27.0326 C.2     1  UNL1        0.2502
     10 O           7.2598   -1.4017   27.2638 O.2     1  UNL1       -0.2700
     11 N           5.5320   -2.9694   26.1205 N.am    1  UNL1       -0.2982
     12 H           4.5985   -3.2429   25.9688 H       1  UNL1        0.1498
     13 N           3.1559   -0.6422   25.5922 N.pl3   1  UNL1       -0.3424
     14 C           3.4881   -0.5436   27.0515 C.ar    1  UNL1        0.1327
     15 C           4.7207   -1.0843   27.7137 C.ar    1  UNL1        0.1053
     16 C           4.6404   -0.7619   29.1764 C.ar    1  UNL1        0.1278
     17 N           3.3583   -0.0220   29.4184 N.ar    1  UNL1       -0.1622
     18 N           2.6461    0.1129   28.1051 N.ar    1  UNL1       -0.2163
     19 H           3.7756   -1.0951   24.9757 H       1  UNL1        0.1437
     20 H           2.3181   -0.2539   25.2507 H       1  UNL1        0.1437
     21 C           1.3240    0.7862   27.8842 C.ar    1  UNL1        0.0843
     22 C           0.0782    0.2089   28.4880 C.ar    1  UNL1        0.0215
     23 C          -1.2439    0.8821   28.2671 C.ar    1  UNL1        0.0312
     24 C          -1.3202    2.1327   27.4423 C.ar    1  UNL1        0.1402
     25 F          -2.6423    2.8058   27.2214 F       1  UNL1       -0.2042
     26 C          -0.0744    2.7100   26.8384 C.ar    1  UNL1        0.0312
     27 C           1.2477    2.0367   27.0593 C.ar    1  UNL1        0.0215
     28 C           6.5926   -4.0950   22.4656 C.3     1  UNL1        0.1308
     29 N           6.0996   -2.9945   21.5734 N.am    1  UNL1       -0.2707
     30 C           4.8922   -3.2127   20.7105 C.2     1  UNL1        0.2508
     31 O           4.1778   -4.5313   20.7397 O.2     1  UNL1       -0.2698
     32 C           4.3993   -2.1122   19.8183 C.ar    1  UNL1        0.0747
     33 C           4.9492   -1.9690   18.4302 C.ar    1  UNL1        0.0628
     34 CL          5.9922   -2.9262   17.9342 Cl      1  UNL1       -0.0821
     35 C           4.4563   -0.8685   17.5380 C.ar    1  UNL1        0.0116
     36 C           3.4134    0.0887   18.0340 C.ar    1  UNL1        0.0017
     37 C           2.8634   -0.0545   19.4222 C.ar    1  UNL1        0.0116
     38 C           3.3563   -1.1550   20.3143 C.ar    1  UNL1        0.0628
     39 CL          2.8063   -1.2982   21.7025 Cl      1  UNL1       -0.0821
     40 C           6.8140   -1.6759   21.5442 C.3     1  UNL1        0.1255
     41 C           6.3255   -0.5393   22.3923 C.3     1  UNL1        0.1586
     42 O           5.5796   -0.8186   23.6634 O.3     1  UNL1       -0.3802
     43 H           4.7319   -1.2413   23.4547 H       1  UNL1        0.2105
@<TRIPOS>BOND
     1    13    14    1
     2    14    15   ar
     3    15     9    1
     4     9    10    2
     5     9    11   am
     6    11     8    1
     7     8     1    1
     8     1     2    1
     9     1    28    1
    10    28    29    1
    11    29    40    1
    12    40    41    1
    13    41    42    1
    14    29    30   am
    15    30    31    2
    16    30    32    1
    17    32    33   ar
    18    33    34    1
    19    33    35   ar
    20    35    36   ar
    21    36    37   ar
    22    37    38   ar
    23    38    39    1
    24     1     4    1
    25     4     5    1
    26     4     6    1
    27     4     7    1
    28    15    16   ar
    29    16    17   ar
    30    17    18   ar
    31    18    21    1
    32    21    22   ar
    33    22    23   ar
    34    23    24   ar
    35    24    25    1
    36    24    26   ar
    37    26    27   ar
    38    18    14   ar
    39    27    21   ar
    40    38    32   ar
    41    13    19    1
    42    13    20    1
    43    11    12    1
    44     2     3    1
    45    42    43    1
@<TRIPOS>MOLECULE
*****
 43 45 0 0 0
SMALL
GASTEIGER

@<TRIPOS>ATOM
      1 C           7.2827   -5.2191   27.7546 C.3     1  UNL1        0.2120
      2 O           6.1562   -4.7421   26.8865 O.3     1  UNL1       -0.3763
      3 H           6.0415   -5.3524   26.1413 H       1  UNL1        0.2107
      4 C           8.4091   -5.6960   28.6226 C.3     1  UNL1        0.4226
      5 F           9.5357   -6.1730   29.4906 F       1  UNL1       -0.1675
      6 F           9.2441   -4.5315   28.1788 F       1  UNL1       -0.1675
      7 F           7.5742   -6.8605   29.0663 F       1  UNL1       -0.1675
      8 C           8.1382   -5.4129   26.5378 C.3     1  UNL1        0.1269
      9 C           7.7084   -5.3378   23.9767 C.2     1  UNL1        0.2502
     10 O           7.8419   -6.8304   23.9105 O.2     1  UNL1       -0.2700
     11 N           7.8565   -4.6291   25.2903 N.am    1  UNL1       -0.2982
     12 H           7.7689   -3.6495   25.3337 H       1  UNL1        0.1498
     13 N           5.0313   -3.5671   23.3872 N.pl3   1  UNL1       -0.3424
     14 C           6.1961   -3.7400   22.4582 C.ar    1  UNL1        0.1327
     15 C           7.4267   -4.5540   22.7291 C.ar    1  UNL1        0.1053
     16 C           8.3261   -4.4464   21.5335 C.ar    1  UNL1        0.1278
     17 N           7.6514   -3.5660   20.5237 N.ar    1  UNL1       -0.1622
     18 N           6.3351   -3.1295   21.0952 N.ar    1  UNL1       -0.2163
     19 H           5.0325   -4.0107   24.2661 H       1  UNL1        0.1437
     20 H           4.2655   -3.0099   23.1181 H       1  UNL1        0.1437
     21 C           5.3335   -2.2387   20.4218 C.ar    1  UNL1        0.0843
     22 C           3.8781   -2.6014   20.4364 C.ar    1  UNL1        0.0215
     23 C           2.8764   -1.7107   19.7630 C.ar    1  UNL1        0.0312
     24 C           3.3302   -0.4573   19.0752 C.ar    1  UNL1        0.1402
     25 F           2.3285    0.4334   18.4020 F       1  UNL1       -0.2042
     26 C           4.7856   -0.0946   19.0607 C.ar    1  UNL1        0.0312
     27 C           5.7873   -0.9853   19.7340 C.ar    1  UNL1        0.0215
     28 C           6.4271   -5.0252   28.9713 C.3     1  UNL1        0.1308
     29 N           6.6612   -3.8498   29.8733 N.am    1  UNL1       -0.2707
     30 C           6.7330   -4.0468   31.3586 C.2     1  UNL1        0.2508
     31 O           6.5706   -5.4192   31.9419 O.2     1  UNL1       -0.2698
     32 C           6.9671   -2.8714   32.2606 C.ar    1  UNL1        0.0747
     33 C           5.8010   -2.1238   32.8362 C.ar    1  UNL1        0.0628
     34 CL          4.4009   -2.5515   32.5098 Cl      1  UNL1       -0.0821
     35 C           6.0351   -0.9483   33.7382 C.ar    1  UNL1        0.0116
     36 C           7.4353   -0.5205   34.0646 C.ar    1  UNL1        0.0017
     37 C           8.6014   -1.2682   33.4889 C.ar    1  UNL1        0.0116
     38 C           8.3673   -2.4436   32.5870 C.ar    1  UNL1        0.0628
     39 CL          9.5333   -3.1913   32.0114 Cl      1  UNL1       -0.0821
     40 C           6.8236   -2.4775   29.2900 C.3     1  UNL1        0.1255
     41 C           5.6349   -1.7562   28.7273 C.3     1  UNL1        0.1586
     42 O           4.6063   -2.5088   27.9363 O.3     1  UNL1       -0.3802
     43 H           5.0045   -2.8322   27.1131 H       1  UNL1        0.2105
@<TRIPOS>BOND
     1    13    14    1
     2    14    15   ar
     3    15     9    1
     4     9    10    2
     5     9    11   am
     6    11     8    1
     7     8     1    1
     8     1     2    1
     9     1    28    1
    10    28    29    1
    11    29    40    1
    12    40    41    1
    13    41    42    1
    14    29    30   am
    15    30    31    2
    16    30    32    1
    17    32    33   ar
    18    33    34    1
    19    33    35   ar
    20    35    36   ar
    21    36    37   ar
    22    37    38   ar
    23    38    39    1
    24     1     4    1
    25     4     5    1
    26     4     6    1
    27     4     7    1
    28    15    16   ar
    29    16    17   ar
    30    17    18   ar
    31    18    21    1
    32    21    22   ar
    33    22    23   ar
    34    23    24   ar
    35    24    25    1
    36    24    26   ar
    37    26    27   ar
    38    18    14   ar
    39    27    21   ar
    40    38    32   ar
    41    13    19    1
    42    13    20    1
    43    11    12    1
    44     2     3    1
    45    42    43    1
@<TRIPOS>MOLECULE
*****
 43 45 0 0 0
SMALL
GASTEIGER

@<TRIPOS>ATOM
      1 C           6.9249   -2.5938   29.0980 C.3     1  UNL1        0.2120
      2 O           5.6347   -1.8489   29.2727 O.3     1  UNL1       -0.3763
      3 H           4.9230   -2.4771   29.4719 H       1  UNL1        0.2107
      4 C           8.2150   -3.3387   28.9232 C.3     1  UNL1        0.4226
      5 F           9.5053   -4.0836   28.7485 F       1  UNL1       -0.1675
      6 F           8.8753   -2.0815   28.4398 F       1  UNL1       -0.1675
      7 F           7.5547   -4.5957   29.4066 F       1  UNL1       -0.1675
      8 C           6.2363   -3.5749   28.1962 C.3     1  UNL1        0.1269
      9 C           6.6761   -4.6860   25.8893 C.2     1  UNL1        0.2502
     10 O           6.8075   -6.0224   26.5580 O.2     1  UNL1       -0.2700
     11 N           6.3905   -3.4623   26.7084 N.am    1  UNL1       -0.2982
     12 H           6.3043   -2.5853   26.2695 H       1  UNL1        0.1498
     13 N           4.7578   -2.9660   23.8866 N.pl3   1  UNL1       -0.3424
     14 C           5.9486   -3.7829   23.4810 C.ar    1  UNL1        0.1327
     15 C           6.8304   -4.5735   24.4015 C.ar    1  UNL1        0.1053
     16 C           7.8935   -5.2318   23.5730 C.ar    1  UNL1        0.1278
     17 N           7.6688   -4.8481   22.1405 N.ar    1  UNL1       -0.1622
     18 N           6.4668   -3.9526   22.0835 N.ar    1  UNL1       -0.2163
     19 H           4.4947   -2.9161   24.8339 H       1  UNL1        0.1437
     20 H           4.2392   -2.4798   23.2054 H       1  UNL1        0.1437
     21 C           5.8850   -3.3352   20.8465 C.ar    1  UNL1        0.0843
     22 C           6.5167   -2.1122   20.2505 C.ar    1  UNL1        0.0215
     23 C           5.9349   -1.4948   19.0134 C.ar    1  UNL1        0.0312
     24 C           4.7215   -2.1004   18.3723 C.ar    1  UNL1        0.1402
     25 F           4.1399   -1.4829   17.1352 F       1  UNL1       -0.2042
     26 C           4.0899   -3.3234   18.9683 C.ar    1  UNL1        0.0312
     27 C           4.6716   -3.9408   20.2054 C.ar    1  UNL1        0.0215
     28 C           7.6135   -1.6126   29.9998 C.3     1  UNL1        0.1308
     29 N           7.2963   -1.5907   31.4657 N.am    1  UNL1       -0.2707
     30 C           6.8488   -0.3158   32.1173 C.2     1  UNL1        0.2508
     31 O           6.7184    0.9371   31.3029 O.2     1  UNL1       -0.2698
     32 C           6.5316   -0.2939   33.5831 C.ar    1  UNL1        0.0747
     33 C           5.1298   -0.5505   34.0511 C.ar    1  UNL1        0.0628
     34 CL          4.0451   -0.8290   33.0531 Cl      1  UNL1       -0.0821
     35 C           4.8125   -0.5287   35.5170 C.ar    1  UNL1        0.0116
     36 C           5.8972   -0.2502   36.5150 C.ar    1  UNL1        0.0017
     37 C           7.2991    0.0064   36.0470 C.ar    1  UNL1        0.0116
     38 C           7.6163   -0.0154   34.5811 C.ar    1  UNL1        0.0628
     39 CL          9.0181    0.2412   34.1132 Cl      1  UNL1       -0.0821
     40 C           7.4266   -2.8436   32.2800 C.3     1  UNL1        0.1255
     41 C           6.2519   -3.7635   32.4343 C.3     1  UNL1        0.1586
     42 O           6.4651   -5.2465   32.5073 O.3     1  UNL1       -0.3802
     43 H           6.8108   -5.5656   31.6590 H       1  UNL1        0.2105
@<TRIPOS>BOND
     1    13    14    1
     2    14    15   ar
     3    15     9    1
     4     9    10    2
     5     9    11   am
     6    11     8    1
     7     8     1    1
     8     1     2    1
     9     1    28    1
    10    28    29    1
    11    29    40    1
    12    40    41    1
    13    41    42    1
    14    29    30   am
    15    30    31    2
    16    30    32    1
    17    32    33   ar
    18    33    34    1
    19    33    35   ar
    20    35    36   ar
    21    36    37   ar
    22    37    38   ar
    23    38    39    1
    24     1     4    1
    25     4     5    1
    26     4     6    1
    27     4     7    1
    28    15    16   ar
    29    16    17   ar
    30    17    18   ar
    31    18    21    1
    32    21    22   ar
    33    22    23   ar
    34    23    24   ar
    35    24    25    1
    36    24    26   ar
    37    26    27   ar
    38    18    14   ar
    39    27    21   ar
    40    38    32   ar
    41    13    19    1
    42    13    20    1
    43    11    12    1
    44     2     3    1
    45    42    43    1
@<TRIPOS>MOLECULE
*****
 43 45 0 0 0
SMALL
GASTEIGER

@<TRIPOS>ATOM
      1 C           0.8316    0.7867   19.9311 C.3     1  UNL1        0.2120
      2 O          -0.1644    0.2429   20.9120 O.3     1  UNL1       -0.3763
      3 H          -1.0365    0.6291   20.7350 H       1  UNL1        0.2107
      4 C           1.8276    1.3305   18.9503 C.3     1  UNL1        0.4226
      5 F           2.8238    1.8744   17.9694 F       1  UNL1       -0.1675
      6 F           2.4767    2.1208   20.0476 F       1  UNL1       -0.1675
      7 F           1.1785    0.5403   17.8530 F       1  UNL1       -0.1675
      8 C           0.3308    2.1762   20.1929 C.3     1  UNL1        0.1269
      9 C          -2.0163    3.2312   20.5502 C.2     1  UNL1        0.2502
     10 O          -1.9386    3.8639   19.1924 O.2     1  UNL1       -0.2700
     11 N          -0.8816    2.3873   21.0505 N.am    1  UNL1       -0.2982
     12 H          -0.9326    1.9720   21.9416 H       1  UNL1        0.1498
     13 N          -2.0805    4.7390   23.4437 N.pl3   1  UNL1       -0.3424
     14 C          -3.2582    4.1354   22.7378 C.ar    1  UNL1        0.1327
     15 C          -3.2288    3.4423   21.4078 C.ar    1  UNL1        0.1053
     16 C          -4.6247    2.9974   21.0859 C.ar    1  UNL1        0.1278
     17 N          -5.5169    3.4155   22.2170 N.ar    1  UNL1       -0.1622
     18 N          -4.6724    4.1188   23.2378 N.ar    1  UNL1       -0.2163
     19 H          -1.1869    4.6994   23.0325 H       1  UNL1        0.1437
     20 H          -2.2011    5.1748   24.3182 H       1  UNL1        0.1437
     21 C          -5.1569    4.7030   24.5317 C.ar    1  UNL1        0.0843
     22 C          -6.3154    5.6557   24.5371 C.ar    1  UNL1        0.0215
     23 C          -6.7999    6.2399   25.8309 C.ar    1  UNL1        0.0312
     24 C          -6.1259    5.8714   27.1193 C.ar    1  UNL1        0.1402
     25 F          -6.6105    6.4557   28.4131 F       1  UNL1       -0.2042
     26 C          -4.9673    4.9187   27.1138 C.ar    1  UNL1        0.0312
     27 C          -4.4828    4.3345   25.8200 C.ar    1  UNL1        0.0215
     28 C           1.3323   -0.6028   19.6693 C.3     1  UNL1        0.1308
     29 N           2.6285   -1.0587   20.2710 N.am    1  UNL1       -0.2707
     30 C           3.7725   -1.4472   19.3819 C.2     1  UNL1        0.2508
     31 O           3.6203   -1.3798   17.8912 O.2     1  UNL1       -0.2698
     32 C           5.0687   -1.9031   19.9835 C.ar    1  UNL1        0.0747
     33 C           5.3211   -3.3656   20.2013 C.ar    1  UNL1        0.0628
     34 CL          4.2773   -4.3722   19.8174 Cl      1  UNL1       -0.0821
     35 C           6.6173   -3.8216   20.8030 C.ar    1  UNL1        0.0116
     36 C           7.6611   -2.8150   21.1869 C.ar    1  UNL1        0.0017
     37 C           7.4086   -1.3525   20.9691 C.ar    1  UNL1        0.0116
     38 C           6.1125   -0.8966   20.3675 C.ar    1  UNL1        0.0628
     39 CL          5.8601    0.5659   20.1497 Cl      1  UNL1       -0.0821
     40 C           2.7808   -1.1261   21.7617 C.3     1  UNL1        0.1255
     41 C           3.0041    0.1301   22.5504 C.3     1  UNL1        0.1586
     42 O           1.8442    0.8219   23.2032 O.3     1  UNL1       -0.3802
     43 H           1.2453    1.1630   22.5207 H       1  UNL1        0.2105
@<TRIPOS>BOND
     1    13    14    1
     2    14    15   ar
     3    15     9    1
     4     9    10    2
     5     9    11   am
     6    11     8    1
     7     8     1    1
     8     1     2    1
     9     1    28    1
    10    28    29    1
    11    29    40    1
    12    40    41    1
    13    41    42    1
    14    29    30   am
    15    30    31    2
    16    30    32    1
    17    32    33   ar
    18    33    34    1
    19    33    35   ar
    20    35    36   ar
    21    36    37   ar
    22    37    38   ar
    23    38    39    1
    24     1     4    1
    25     4     5    1
    26     4     6    1
    27     4     7    1
    28    15    16   ar
    29    16    17   ar
    30    17    18   ar
    31    18    21    1
    32    21    22   ar
    33    22    23   ar
    34    23    24   ar
    35    24    25    1
    36    24    26   ar
    37    26    27   ar
    38    18    14   ar
    39    27    21   ar
    40    38    32   ar
    41    13    19    1
    42    13    20    1
    43    11    12    1
    44     2     3    1
    45    42    43    1
@<TRIPOS>MOLECULE
*****
 43 45 0 0 0
SMALL
GASTEIGER

@<TRIPOS>ATOM
      1 C           4.0122   -1.2842   18.4880 C.3     1  UNL1        0.2120
      2 O           3.3644   -2.0118   19.6285 O.3     1  UNL1       -0.3763
      3 H           4.0482   -2.3356   20.2356 H       1  UNL1        0.2107
      4 C           4.6600   -0.5566   17.3474 C.3     1  UNL1        0.4226
      5 F           5.3079    0.1710   16.2068 F       1  UNL1       -0.1675
      6 F           3.4828   -0.8767   16.4747 F       1  UNL1       -0.1675
      7 F           5.8373   -0.2366   18.2202 F       1  UNL1       -0.1675
      8 C           4.9832   -2.4149   18.3182 C.3     1  UNL1        0.1269
      9 C           6.8850   -3.2261   19.8913 C.2     1  UNL1        0.2502
     10 O           7.8857   -2.4624   19.0753 O.2     1  UNL1       -0.2700
     11 N           5.4338   -3.2023   19.5127 N.am    1  UNL1       -0.2982
     12 H           4.7771   -3.7035   20.0482 H       1  UNL1        0.1498
     13 N           5.6611   -3.0039   22.9083 N.pl3   1  UNL1       -0.3424
     14 C           6.7731   -3.9113   22.4726 C.ar    1  UNL1        0.1327
     15 C           7.3357   -4.0135   21.0858 C.ar    1  UNL1        0.1053
     16 C           8.4281   -5.0412   21.1033 C.ar    1  UNL1        0.1278
     17 N           8.5407   -5.5743   22.5009 N.ar    1  UNL1       -0.1622
     18 N           7.5178   -4.8760   23.3471 N.ar    1  UNL1       -0.2163
     19 H           5.2322   -2.4031   22.2569 H       1  UNL1        0.1437
     20 H           5.3601   -3.0091   23.8456 H       1  UNL1        0.1437
     21 C           7.2812   -5.1025   24.8109 C.ar    1  UNL1        0.0843
     22 C           6.9407   -3.9460   25.7033 C.ar    1  UNL1        0.0215
     23 C           6.7040   -4.1725   27.1671 C.ar    1  UNL1        0.0312
     24 C           6.8079   -5.5556   27.7385 C.ar    1  UNL1        0.1402
     25 F           6.5713   -5.7820   29.2023 F       1  UNL1       -0.2042
     26 C           7.1485   -6.7121   26.8460 C.ar    1  UNL1        0.0312
     27 C           7.3851   -6.4856   25.3823 C.ar    1  UNL1        0.0215
     28 C           3.0413   -0.1535   18.6579 C.3     1  UNL1        0.1308
     29 N           2.9434    0.5598   19.9737 N.am    1  UNL1       -0.2707
     30 C           1.7518    0.3416   20.8584 C.2     1  UNL1        0.2508
     31 O           0.6581   -0.5899   20.4270 O.2     1  UNL1       -0.2698
     32 C           1.6539    1.0548   22.1743 C.ar    1  UNL1        0.0747
     33 C           2.2134    0.4220   23.4138 C.ar    1  UNL1        0.0628
     34 CL          2.8707   -0.9242   23.3374 Cl      1  UNL1       -0.0821
     35 C           2.1156    1.1352   24.7298 C.ar    1  UNL1        0.0116
     36 C           1.4583    2.4814   24.8061 C.ar    1  UNL1        0.0017
     37 C           0.8988    3.1142   23.5665 C.ar    1  UNL1        0.0116
     38 C           0.9966    2.4010   22.2507 C.ar    1  UNL1        0.0628
     39 CL          0.4372    3.0338   21.0112 Cl      1  UNL1       -0.0821
     40 C           4.0371    1.4913   20.4051 C.3     1  UNL1        0.1255
     41 C           5.1797    0.9759   21.2291 C.3     1  UNL1        0.1586
     42 O           5.4397   -0.4991   21.3113 O.3     1  UNL1       -0.3802
     43 H           4.7018   -0.9325   21.7679 H       1  UNL1        0.2105
@<TRIPOS>BOND
     1    13    14    1
     2    14    15   ar
     3    15     9    1
     4     9    10    2
     5     9    11   am
     6    11     8    1
     7     8     1    1
     8     1     2    1
     9     1    28    1
    10    28    29    1
    11    29    40    1
    12    40    41    1
    13    41    42    1
    14    29    30   am
    15    30    31    2
    16    30    32    1
    17    32    33   ar
    18    33    34    1
    19    33    35   ar
    20    35    36   ar
    21    36    37   ar
    22    37    38   ar
    23    38    39    1
    24     1     4    1
    25     4     5    1
    26     4     6    1
    27     4     7    1
    28    15    16   ar
    29    16    17   ar
    30    17    18   ar
    31    18    21    1
    32    21    22   ar
    33    22    23   ar
    34    23    24   ar
    35    24    25    1
    36    24    26   ar
    37    26    27   ar
    38    18    14   ar
    39    27    21   ar
    40    38    32   ar
    41    13    19    1
    42    13    20    1
    43    11    12    1
    44     2     3    1
    45    42    43    1
@<TRIPOS>MOLECULE
*****
 43 45 0 0 0
SMALL
GASTEIGER

@<TRIPOS>ATOM
      1 C           0.6409    1.0677   19.8101 C.3     1  UNL1        0.2120
      2 O          -0.2136    0.0356   20.4841 O.3     1  UNL1       -0.3763
      3 H          -1.1352    0.3379   20.4982 H       1  UNL1        0.2107
      4 C           1.4954    2.0999   19.1361 C.3     1  UNL1        0.4226
      5 F           2.3501    3.1321   18.4621 F       1  UNL1       -0.1675
      6 F           2.2484    2.3122   20.4159 F       1  UNL1       -0.1675
      7 F           0.7425    1.8876   17.8563 F       1  UNL1       -0.1675
      8 C          -0.0002    2.1403   20.6398 C.3     1  UNL1        0.1269
      9 C           0.0552    2.9466   23.1089 C.2     1  UNL1        0.2502
     10 O           0.6758    4.2406   22.6725 O.2     1  UNL1       -0.2700
     11 N          -0.2828    1.8965   22.0926 N.am    1  UNL1       -0.2982
     12 H          -0.6901    1.0472   22.3790 H       1  UNL1        0.1498
     13 N           2.2342    2.0333   25.3600 N.pl3   1  UNL1       -0.3424
     14 C           0.7743    2.2829   25.5965 C.ar    1  UNL1        0.1327
     15 C          -0.2274    2.7027   24.5618 C.ar    1  UNL1        0.1053
     16 C          -1.5612    2.8358   25.2350 C.ar    1  UNL1        0.1278
     17 N          -1.3840    2.4983   26.6858 N.ar    1  UNL1       -0.1622
     18 N           0.0594    2.1566   26.9092 N.ar    1  UNL1       -0.2163
     19 H           2.6126    2.1432   24.4578 H       1  UNL1        0.1437
     20 H           2.8141    1.7595   26.1070 H       1  UNL1        0.1437
     21 C           0.6792    1.7584   28.2158 C.ar    1  UNL1        0.0843
     22 C           1.1032    0.3376   28.4427 C.ar    1  UNL1        0.0215
     23 C           1.7230   -0.0605   29.7493 C.ar    1  UNL1        0.0312
     24 C           1.9188    0.9622   30.8291 C.ar    1  UNL1        0.1402
     25 F           2.5386    0.5639   32.1357 F       1  UNL1       -0.2042
     26 C           1.4949    2.3830   30.6022 C.ar    1  UNL1        0.0312
     27 C           0.8751    2.7811   29.2955 C.ar    1  UNL1        0.0215
     28 C           1.2821   -0.0050   18.9804 C.3     1  UNL1        0.1308
     29 N           2.4389   -0.7865   19.5288 N.am    1  UNL1       -0.2707
     30 C           3.5658   -1.1918   18.6255 C.2     1  UNL1        0.2508
     31 O           3.5358   -0.8155   17.1738 O.2     1  UNL1       -0.2698
     32 C           4.7227   -1.9734   19.1739 C.ar    1  UNL1        0.0747
     33 C           5.9949   -1.2700   19.5438 C.ar    1  UNL1        0.0628
     34 CL          6.1102    0.2148   19.3652 Cl      1  UNL1       -0.0821
     35 C           7.1518   -2.0516   20.0922 C.ar    1  UNL1        0.0116
     36 C           7.0365   -3.5365   20.2708 C.ar    1  UNL1        0.0017
     37 C           5.7642   -4.2398   19.9010 C.ar    1  UNL1        0.0116
     38 C           4.6073   -3.4582   19.3525 C.ar    1  UNL1        0.0628
     39 CL          3.3351   -4.1615   18.9827 Cl      1  UNL1       -0.0821
     40 C           2.4689   -1.1628   20.9805 C.3     1  UNL1        0.1255
     41 C           3.1725   -0.2813   21.9694 C.3     1  UNL1        0.1586
     42 O           2.3877    0.4295   23.0318 O.3     1  UNL1       -0.3802
     43 H           1.8029    1.0838   22.6186 H       1  UNL1        0.2105
@<TRIPOS>BOND
     1    13    14    1
     2    14    15   ar
     3    15     9    1
     4     9    10    2
     5     9    11   am
     6    11     8    1
     7     8     1    1
     8     1     2    1
     9     1    28    1
    10    28    29    1
    11    29    40    1
    12    40    41    1
    13    41    42    1
    14    29    30   am
    15    30    31    2
    16    30    32    1
    17    32    33   ar
    18    33    34    1
    19    33    35   ar
    20    35    36   ar
    21    36    37   ar
    22    37    38   ar
    23    38    39    1
    24     1     4    1
    25     4     5    1
    26     4     6    1
    27     4     7    1
    28    15    16   ar
    29    16    17   ar
    30    17    18   ar
    31    18    21    1
    32    21    22   ar
    33    22    23   ar
    34    23    24   ar
    35    24    25    1
    36    24    26   ar
    37    26    27   ar
    38    18    14   ar
    39    27    21   ar
    40    38    32   ar
    41    13    19    1
    42    13    20    1
    43    11    12    1
    44     2     3    1
    45    42    43    1
@<TRIPOS>MOLECULE
*****
 43 45 0 0 0
SMALL
GASTEIGER

@<TRIPOS>ATOM
      1 C           7.4260   -4.6026   27.4144 C.3     1  UNL1        0.2120
      2 O           7.3296   -3.1114   27.2845 O.3     1  UNL1       -0.3763
      3 H           7.1515   -2.8782   26.3600 H       1  UNL1        0.2107
      4 C           7.5224   -6.0938   27.5443 C.3     1  UNL1        0.4226
      5 F           7.6187   -7.5851   27.6742 F       1  UNL1       -0.1675
      6 F           6.1315   -6.2311   26.9994 F       1  UNL1       -0.1675
      7 F           8.9131   -5.9565   28.0892 F       1  UNL1       -0.1675
      8 C           8.3386   -4.6472   26.2249 C.3     1  UNL1        0.1269
      9 C           7.5920   -4.8070   23.7415 C.2     1  UNL1        0.2502
     10 O           7.6531   -6.3038   23.8195 O.2     1  UNL1       -0.2700
     11 N           7.9347   -3.9788   24.9442 N.am    1  UNL1       -0.2982
     12 H           7.8946   -2.9964   24.8931 H       1  UNL1        0.1498
     13 N           4.9730   -2.9081   23.3119 N.pl3   1  UNL1       -0.3424
     14 C           5.9842   -3.2657   22.2634 C.ar    1  UNL1        0.1327
     15 C           7.1881   -4.1386   22.4609 C.ar    1  UNL1        0.1053
     16 C           7.9171   -4.2256   21.1528 C.ar    1  UNL1        0.1278
     17 N           7.1639   -3.4065   20.1469 N.ar    1  UNL1       -0.1622
     18 N           5.9693   -2.8133   20.8333 N.ar    1  UNL1       -0.2163
     19 H           5.0693   -3.2562   24.2277 H       1  UNL1        0.1437
     20 H           4.2130   -2.3251   23.0843 H       1  UNL1        0.1437
     21 C           4.9404   -1.9238   20.2007 C.ar    1  UNL1        0.0843
     22 C           5.3712   -0.7562   19.3634 C.ar    1  UNL1        0.0215
     23 C           4.3423    0.1332   18.7308 C.ar    1  UNL1        0.0312
     24 C           2.8826   -0.1449   18.9355 C.ar    1  UNL1        0.1402
     25 F           1.8538    0.7447   18.3029 F       1  UNL1       -0.2042
     26 C           2.4518   -1.3124   19.7729 C.ar    1  UNL1        0.0312
     27 C           3.4807   -2.2019   20.4055 C.ar    1  UNL1        0.0215
     28 C           6.5133   -4.5579   28.6041 C.3     1  UNL1        0.1308
     29 N           6.9257   -3.8116   29.8381 N.am    1  UNL1       -0.2707
     30 C           6.4007   -2.4290   30.0891 C.2     1  UNL1        0.2508
     31 O           5.4633   -1.7928   29.1059 O.2     1  UNL1       -0.2698
     32 C           6.8131   -1.6827   31.3231 C.ar    1  UNL1        0.0747
     33 C           8.0757   -0.8730   31.3230 C.ar    1  UNL1        0.0628
     34 CL          8.9260   -0.8096   30.0889 Cl      1  UNL1       -0.0821
     35 C           8.4882   -0.1266   32.5571 C.ar    1  UNL1        0.0116
     36 C           7.6379   -0.1900   33.7912 C.ar    1  UNL1        0.0017
     37 C           6.3752   -0.9997   33.7912 C.ar    1  UNL1        0.0116
     38 C           5.9628   -1.7460   32.5572 C.ar    1  UNL1        0.0628
     39 CL          4.7001   -2.5557   32.5573 Cl      1  UNL1       -0.0821
     40 C           7.8631   -4.4477   30.8212 C.3     1  UNL1        0.1255
     41 C           7.6182   -5.8510   31.2910 C.3     1  UNL1        0.1586
     42 O           6.4811   -6.1416   32.2250 O.3     1  UNL1       -0.3802
     43 H           6.6456   -5.7111   33.0785 H       1  UNL1        0.2105
@<TRIPOS>BOND
     1    13    14    1
     2    14    15   ar
     3    15     9    1
     4     9    10    2
     5     9    11   am
     6    11     8    1
     7     8     1    1
     8     1     2    1
     9     1    28    1
    10    28    29    1
    11    29    40    1
    12    40    41    1
    13    41    42    1
    14    29    30   am
    15    30    31    2
    16    30    32    1
    17    32    33   ar
    18    33    34    1
    19    33    35   ar
    20    35    36   ar
    21    36    37   ar
    22    37    38   ar
    23    38    39    1
    24     1     4    1
    25     4     5    1
    26     4     6    1
    27     4     7    1
    28    15    16   ar
    29    16    17   ar
    30    17    18   ar
    31    18    21    1
    32    21    22   ar
    33    22    23   ar
    34    23    24   ar
    35    24    25    1
    36    24    26   ar
    37    26    27   ar
    38    18    14   ar
    39    27    21   ar
    40    38    32   ar
    41    13    19    1
    42    13    20    1
    43    11    12    1
    44     2     3    1
    45    42    43    1
