@<TRIPOS>MOLECULE
*****
 17 17 0 0 0
SMALL
GASTEIGER

@<TRIPOS>ATOM
      1 C          -9.8996  -15.8709   21.5667 C.3     1  UNL1        0.1697
      2 O          -9.7057  -14.8406   20.4940 O.3     1  UNL1       -0.3793
      3 H         -10.5707  -14.5351   20.1789 H       1  UNL1        0.2106
      4 C         -11.2848  -16.2677   21.9840 C.3     1  UNL1        0.1020
      5 N         -11.6233  -17.7159   22.1794 N.3     1  UNL1       -0.2964
      6 H         -12.3114  -17.9563   21.4658 H       1  UNL1        0.1233
      7 C         -11.2847  -18.8777   24.4784 C.3     1  UNL1        0.0171
      8 C         -12.1778  -18.1861   23.4914 C.3     1  UNL1        0.0541
      9 C         -13.6253  -17.9647   23.8165 C.3     1  UNL1        0.0171
     10 C          -8.7085  -16.5046   22.2223 C.3     1  UNL1        0.2358
     11 O          -7.5923  -15.6465   22.7396 O.3     1  UNL1       -0.4728
     12 C          -7.3306  -15.5650   24.2144 C.ar    1  UNL1        0.1387
     13 C          -5.9234  -15.4517   24.7213 C.ar    1  UNL1        0.0369
     14 C          -5.6617  -15.3702   26.1960 C.ar    1  UNL1        0.0031
     15 C          -6.8072  -15.4020   27.1639 C.ar    1  UNL1        0.0002
     16 C          -8.2144  -15.5153   26.6570 C.ar    1  UNL1        0.0031
     17 C          -8.4761  -15.5968   25.1822 C.ar    1  UNL1        0.0369
@<TRIPOS>BOND
     1     7     8    1
     2     8     9    1
     3     8     5    1
     4     5     4    1
     5     4     1    1
     6     1     2    1
     7     1    10    1
     8    10    11    1
     9    11    12    1
    10    12    13   ar
    11    13    14   ar
    12    14    15   ar
    13    15    16   ar
    14    16    17   ar
    15    17    12   ar
    16     5     6    1
    17     2     3    1
@<TRIPOS>MOLECULE
*****
 17 17 0 0 0
SMALL
GASTEIGER

@<TRIPOS>ATOM
      1 C          -7.7077  -15.4805   22.7325 C.3     1  UNL1        0.1697
      2 O          -7.9582  -14.7096   21.4704 O.3     1  UNL1       -0.3793
      3 H          -7.9368  -13.7590   21.6625 H       1  UNL1        0.2106
      4 C          -7.4754  -14.7517   24.0229 C.3     1  UNL1        0.1020
      5 N          -8.2641  -15.1199   25.2446 N.3     1  UNL1       -0.2964
      6 H          -8.7693  -14.2819   25.5325 H       1  UNL1        0.1233
      7 C          -8.3345  -16.3678   27.5222 C.3     1  UNL1        0.0171
      8 C          -7.5606  -15.6413   26.4624 C.3     1  UNL1        0.0541
      9 C          -6.0830  -15.4362   26.6205 C.3     1  UNL1        0.0171
     10 C          -7.6894  -16.9801   22.7042 C.3     1  UNL1        0.2358
     11 O          -8.7879  -17.7562   23.3683 O.3     1  UNL1       -0.4728
     12 C         -10.1639  -17.7689   22.7714 C.ar    1  UNL1        0.1387
     13 C         -10.3352  -17.7530   21.2813 C.ar    1  UNL1        0.0369
     14 C         -11.7112  -17.7657   20.6843 C.ar    1  UNL1        0.0031
     15 C         -12.9160  -17.7945   21.5774 C.ar    1  UNL1        0.0002
     16 C         -12.7447  -17.8104   23.0675 C.ar    1  UNL1        0.0031
     17 C         -11.3687  -17.7977   23.6645 C.ar    1  UNL1        0.0369
@<TRIPOS>BOND
     1     7     8    1
     2     8     9    1
     3     8     5    1
     4     5     4    1
     5     4     1    1
     6     1     2    1
     7     1    10    1
     8    10    11    1
     9    11    12    1
    10    12    13   ar
    11    13    14   ar
    12    14    15   ar
    13    15    16   ar
    14    16    17   ar
    15    17    12   ar
    16     5     6    1
    17     2     3    1
@<TRIPOS>MOLECULE
*****
 17 17 0 0 0
SMALL
GASTEIGER

@<TRIPOS>ATOM
      1 C          -6.8830  -18.6286   21.8648 C.3     1  UNL1        0.1697
      2 O          -5.8564  -17.7546   22.5221 O.3     1  UNL1       -0.3793
      3 H          -5.1656  -17.5280   21.8799 H       1  UNL1        0.2106
      4 C          -6.7295  -19.0114   20.4226 C.3     1  UNL1        0.1020
      5 N          -5.6076  -18.4368   19.6094 N.3     1  UNL1       -0.2964
      6 H          -5.9078  -18.4611   18.6349 H       1  UNL1        0.1233
      7 C          -3.0252  -18.2308   19.4128 C.3     1  UNL1        0.0171
      8 C          -4.2467  -19.0657   19.6591 C.3     1  UNL1        0.0541
      9 C          -4.1074  -20.5297   19.9549 C.3     1  UNL1        0.0171
     10 C          -8.0632  -19.1197   22.6496 C.3     1  UNL1        0.2358
     11 O          -9.3099  -19.5532   21.9370 O.3     1  UNL1       -0.4728
     12 C         -10.6334  -18.9532   22.3088 C.ar    1  UNL1        0.1387
     13 C         -11.4938  -18.3227   21.2542 C.ar    1  UNL1        0.0369
     14 C         -12.8173  -17.7227   21.6260 C.ar    1  UNL1        0.0031
     15 C         -13.2805  -17.7532   23.0523 C.ar    1  UNL1        0.0002
     16 C         -12.4202  -18.3837   24.1069 C.ar    1  UNL1        0.0031
     17 C         -11.0966  -18.9837   23.7351 C.ar    1  UNL1        0.0369
@<TRIPOS>BOND
     1     7     8    1
     2     8     9    1
     3     8     5    1
     4     5     4    1
     5     4     1    1
     6     1     2    1
     7     1    10    1
     8    10    11    1
     9    11    12    1
    10    12    13   ar
    11    13    14   ar
    12    14    15   ar
    13    15    16   ar
    14    16    17   ar
    15    17    12   ar
    16     5     6    1
    17     2     3    1
@<TRIPOS>MOLECULE
*****
 17 17 0 0 0
SMALL
GASTEIGER

@<TRIPOS>ATOM
      1 C          -7.2247  -18.9708   20.3909 C.3     1  UNL1        0.1697
      2 O          -8.2495  -19.1567   19.3115 O.3     1  UNL1       -0.3793
      3 H          -7.8480  -19.6221   18.5611 H       1  UNL1        0.2106
      4 C          -5.8280  -19.4818   20.1951 C.3     1  UNL1        0.1020
      5 N          -4.7751  -18.5839   19.6163 N.3     1  UNL1       -0.2964
      6 H          -4.9221  -18.5702   18.6070 H       1  UNL1        0.1233
      7 C          -2.9155  -19.8454   20.9203 C.3     1  UNL1        0.0171
      8 C          -3.3236  -18.8900   19.8383 C.3     1  UNL1        0.0541
      9 C          -2.2800  -18.2406   18.9784 C.3     1  UNL1        0.0171
     10 C          -7.5964  -18.2737   21.6660 C.3     1  UNL1        0.2358
     11 O          -8.5674  -17.1307   21.6404 O.3     1  UNL1       -0.4728
     12 C         -10.0099  -17.3643   21.9787 C.ar    1  UNL1        0.1387
     13 C         -10.3931  -17.8196   23.3556 C.ar    1  UNL1        0.0369
     14 C         -11.8357  -18.0532   23.6939 C.ar    1  UNL1        0.0031
     15 C         -12.8950  -17.8316   22.6554 C.ar    1  UNL1        0.0002
     16 C         -12.5118  -17.3763   21.2785 C.ar    1  UNL1        0.0031
     17 C         -11.0693  -17.1427   20.9402 C.ar    1  UNL1        0.0369
@<TRIPOS>BOND
     1     7     8    1
     2     8     9    1
     3     8     5    1
     4     5     4    1
     5     4     1    1
     6     1     2    1
     7     1    10    1
     8    10    11    1
     9    11    12    1
    10    12    13   ar
    11    13    14   ar
    12    14    15   ar
    13    15    16   ar
    14    16    17   ar
    15    17    12   ar
    16     5     6    1
    17     2     3    1
@<TRIPOS>MOLECULE
*****
 17 17 0 0 0
SMALL
GASTEIGER

@<TRIPOS>ATOM
      1 C          -8.8255  -18.6031   22.8278 C.3     1  UNL1        0.1697
      2 O          -8.1668  -19.9505   22.8510 O.3     1  UNL1       -0.3793
      3 H          -8.8114  -20.6207   23.1270 H       1  UNL1        0.2106
      4 C         -10.2721  -18.4688   23.2013 C.3     1  UNL1        0.1020
      5 N         -11.3186  -18.3851   22.1299 N.3     1  UNL1       -0.2964
      6 H         -10.9897  -18.9566   21.3517 H       1  UNL1        0.1233
      7 C         -12.2864  -15.9947   22.4451 C.3     1  UNL1        0.0171
      8 C         -11.7007  -17.0524   21.5573 C.3     1  UNL1        0.0541
      9 C         -11.4972  -16.7774   20.0968 C.3     1  UNL1        0.0171
     10 C          -8.0376  -17.3898   22.4312 C.3     1  UNL1        0.2358
     11 O          -8.2789  -16.0802   23.1215 O.3     1  UNL1       -0.4728
     12 C          -7.7221  -15.8418   24.4937 C.ar    1  UNL1        0.1387
     13 C          -6.2813  -15.4606   24.6627 C.ar    1  UNL1        0.0369
     14 C          -5.7245  -15.2222   26.0350 C.ar    1  UNL1        0.0031
     15 C          -6.6085  -15.3651   27.2383 C.ar    1  UNL1        0.0002
     16 C          -8.0493  -15.7463   27.0693 C.ar    1  UNL1        0.0031
     17 C          -8.6062  -15.9846   25.6971 C.ar    1  UNL1        0.0369
@<TRIPOS>BOND
     1     7     8    1
     2     8     9    1
     3     8     5    1
     4     5     4    1
     5     4     1    1
     6     1     2    1
     7     1    10    1
     8    10    11    1
     9    11    12    1
    10    12    13   ar
    11    13    14   ar
    12    14    15   ar
    13    15    16   ar
    14    16    17   ar
    15    17    12   ar
    16     5     6    1
    17     2     3    1
@<TRIPOS>MOLECULE
*****
 17 17 0 0 0
SMALL
GASTEIGER

@<TRIPOS>ATOM
      1 C          -7.4185  -19.7340   21.9928 C.3     1  UNL1        0.1697
      2 O          -6.2992  -20.7292   22.0755 O.3     1  UNL1       -0.3793
      3 H          -5.6405  -20.5325   21.3912 H       1  UNL1        0.2106
      4 C          -7.3851  -18.6523   20.9541 C.3     1  UNL1        0.1020
      5 N          -7.6800  -18.9799   19.5203 N.3     1  UNL1       -0.2964
      6 H          -7.6295  -18.1032   19.0015 H       1  UNL1        0.1233
      7 C         -10.2701  -19.0836   19.6943 C.3     1  UNL1        0.0171
      8 C          -8.9818  -19.6272   19.1513 C.3     1  UNL1        0.0541
      9 C          -8.9954  -20.8180   18.2393 C.3     1  UNL1        0.0171
     10 C          -8.5711  -19.8205   22.9488 C.3     1  UNL1        0.2358
     11 O          -9.0242  -18.5976   23.6899 O.3     1  UNL1       -0.4728
     12 C         -10.3517  -17.9763   23.3711 C.ar    1  UNL1        0.1387
     13 C         -10.4114  -16.6709   22.6348 C.ar    1  UNL1        0.0369
     14 C         -11.7389  -16.0496   22.3160 C.ar    1  UNL1        0.0031
     15 C         -13.0068  -16.7337   22.7336 C.ar    1  UNL1        0.0002
     16 C         -12.9472  -18.0391   23.4699 C.ar    1  UNL1        0.0031
     17 C         -11.6196  -18.6604   23.7887 C.ar    1  UNL1        0.0369
@<TRIPOS>BOND
     1     7     8    1
     2     8     9    1
     3     8     5    1
     4     5     4    1
     5     4     1    1
     6     1     2    1
     7     1    10    1
     8    10    11    1
     9    11    12    1
    10    12    13   ar
    11    13    14   ar
    12    14    15   ar
    13    15    16   ar
    14    16    17   ar
    15    17    12   ar
    16     5     6    1
    17     2     3    1
@<TRIPOS>MOLECULE
*****
 17 17 0 0 0
SMALL
GASTEIGER

@<TRIPOS>ATOM
      1 C          -6.5133  -18.8374   22.2850 C.3     1  UNL1        0.1697
      2 O          -7.2744  -20.1272   22.2001 O.3     1  UNL1       -0.3793
      3 H          -6.6641  -20.8491   21.9827 H       1  UNL1        0.2106
      4 C          -5.0327  -18.8230   22.0445 C.3     1  UNL1        0.1020
      5 N          -4.2298  -17.6021   22.3829 N.3     1  UNL1       -0.2964
      6 H          -4.6767  -16.8157   21.9113 H       1  UNL1        0.1233
      7 C          -2.0994  -16.2163   21.8435 C.3     1  UNL1        0.0171
      8 C          -2.7717  -17.5433   22.0358 C.3     1  UNL1        0.0541
      9 C          -1.9859  -18.8116   21.8811 C.3     1  UNL1        0.0171
     10 C          -7.2327  -17.5621   22.6103 C.3     1  UNL1        0.2358
     11 O          -8.1362  -16.9302   21.5932 O.3     1  UNL1       -0.4728
     12 C          -9.6097  -17.2097   21.6224 C.ar    1  UNL1        0.1387
     13 C         -10.1681  -18.3707   20.8542 C.ar    1  UNL1        0.0369
     14 C         -11.6416  -18.6503   20.8833 C.ar    1  UNL1        0.0031
     15 C         -12.5565  -17.7688   21.6807 C.ar    1  UNL1        0.0002
     16 C         -11.9981  -16.6078   22.4488 C.ar    1  UNL1        0.0031
     17 C         -10.5247  -16.3283   22.4197 C.ar    1  UNL1        0.0369
@<TRIPOS>BOND
     1     7     8    1
     2     8     9    1
     3     8     5    1
     4     5     4    1
     5     4     1    1
     6     1     2    1
     7     1    10    1
     8    10    11    1
     9    11    12    1
    10    12    13   ar
    11    13    14   ar
    12    14    15   ar
    13    15    16   ar
    14    16    17   ar
    15    17    12   ar
    16     5     6    1
    17     2     3    1
@<TRIPOS>MOLECULE
*****
 17 17 0 0 0
SMALL
GASTEIGER

@<TRIPOS>ATOM
      1 C         -10.4029   -7.4438   18.3595 C.3     1  UNL1        0.1697
      2 O          -9.7757   -8.7539   17.9851 O.3     1  UNL1       -0.3793
      3 H         -10.4499   -9.3379   17.6038 H       1  UNL1        0.2106
      4 C         -11.8662   -7.2171   18.1198 C.3     1  UNL1        0.1020
      5 N         -12.7631   -6.8381   19.2608 N.3     1  UNL1       -0.2964
      6 H         -13.4753   -7.5651   19.3295 H       1  UNL1        0.1233
      7 C         -13.7893   -4.8162   20.5291 C.3     1  UNL1        0.0171
      8 C         -13.4862   -5.5240   19.2419 C.3     1  UNL1        0.0541
      9 C         -13.9062   -4.9177   17.9357 C.3     1  UNL1        0.0171
     10 C          -9.5668   -6.3603   18.9735 C.3     1  UNL1        0.2358
     11 O         -10.1872   -5.0392   19.3193 O.3     1  UNL1       -0.4728
     12 C         -10.2159   -3.9354   18.3039 C.ar    1  UNL1        0.1387
     13 C          -9.4719   -4.0869   17.0103 C.ar    1  UNL1        0.0369
     14 C          -9.5006   -2.9831   15.9949 C.ar    1  UNL1        0.0031
     15 C         -10.2732   -1.7280   16.2732 C.ar    1  UNL1        0.0002
     16 C         -11.0172   -1.5765   17.5668 C.ar    1  UNL1        0.0031
     17 C         -10.9885   -2.6803   18.5822 C.ar    1  UNL1        0.0369
@<TRIPOS>BOND
     1     7     8    1
     2     8     9    1
     3     8     5    1
     4     5     4    1
     5     4     1    1
     6     1     2    1
     7     1    10    1
     8    10    11    1
     9    11    12    1
    10    12    13   ar
    11    13    14   ar
    12    14    15   ar
    13    15    16   ar
    14    16    17   ar
    15    17    12   ar
    16     5     6    1
    17     2     3    1
@<TRIPOS>MOLECULE
*****
 17 17 0 0 0
SMALL
GASTEIGER

@<TRIPOS>ATOM
      1 C         -14.2003   -8.0205   18.4385 C.3     1  UNL1        0.1697
      2 O         -14.3639   -9.3630   19.0872 O.3     1  UNL1       -0.3793
      3 H         -14.8611   -9.2641   19.9142 H       1  UNL1        0.2106
      4 C         -14.7747   -6.7976   19.0901 C.3     1  UNL1        0.1020
      5 N         -13.8646   -5.7901   19.7279 N.3     1  UNL1       -0.2964
      6 H         -14.2632   -5.5695   20.6405 H       1  UNL1        0.1233
      7 C         -12.7928   -3.4235   19.7386 C.3     1  UNL1        0.0171
      8 C         -13.5976   -4.4820   19.0443 C.3     1  UNL1        0.0541
      9 C         -14.1353   -4.2322   17.6664 C.3     1  UNL1        0.0171
     10 C         -13.4622   -7.9009   17.1381 C.3     1  UNL1        0.2358
     11 O         -11.9643   -7.9757   17.1162 O.3     1  UNL1       -0.4728
     12 C         -11.1479   -6.7544   17.4195 C.ar    1  UNL1        0.1387
     13 C         -10.9830   -5.6854   16.3803 C.ar    1  UNL1        0.0369
     14 C         -10.1665   -4.4642   16.6836 C.ar    1  UNL1        0.0031
     15 C          -9.5150   -4.3120   18.0261 C.ar    1  UNL1        0.0002
     16 C          -9.6799   -5.3810   19.0652 C.ar    1  UNL1        0.0031
     17 C         -10.4963   -6.6022   18.7619 C.ar    1  UNL1        0.0369
@<TRIPOS>BOND
     1     7     8    1
     2     8     9    1
     3     8     5    1
     4     5     4    1
     5     4     1    1
     6     1     2    1
     7     1    10    1
     8    10    11    1
     9    11    12    1
    10    12    13   ar
    11    13    14   ar
    12    14    15   ar
    13    15    16   ar
    14    16    17   ar
    15    17    12   ar
    16     5     6    1
    17     2     3    1
