@<TRIPOS>MOLECULE
*****
 35 37 0 0 0
SMALL
GASTEIGER

@<TRIPOS>ATOM
      1 N           8.9114   -5.8460   20.9797 N.pl3   1  UNL1       -0.3568
      2 C           8.6025   -5.6672   22.4366 C.ar    1  UNL1        0.0482
      3 C           9.2235   -6.5795   23.4525 C.ar    1  UNL1        0.0452
      4 C           8.9146   -6.4007   24.9094 C.ar    1  UNL1        0.1598
      5 F           9.5357   -7.3131   25.9252 F       1  UNL1       -0.2027
      6 C           7.9847   -5.3095   25.3505 C.ar    1  UNL1        0.1497
      7 C           7.3637   -4.3972   24.3346 C.ar    1  UNL1        0.0280
      8 C           7.6726   -4.5760   22.8777 C.ar    1  UNL1        0.0680
      9 H           9.5217   -6.5622   20.6902 H       1  UNL1        0.1424
     10 H           8.5038   -5.2472   20.3130 H       1  UNL1        0.1424
     11 C           7.0515   -3.6636   21.8619 C.2     1  UNL1        0.2507
     12 O           7.7744   -2.4237   21.4261 O.2     1  UNL1       -0.2698
     13 N           5.7075   -3.9913   21.2819 N.am    1  UNL1       -0.2804
     14 H           5.2331   -4.8051   21.5679 H       1  UNL1        0.1552
     15 C           5.0864   -3.0789   20.2661 C.ar    1  UNL1        0.0505
     16 C           5.6354   -3.0252   18.8712 C.ar    1  UNL1        0.0170
     17 C           5.0143   -2.1128   17.8554 C.ar    1  UNL1        0.0308
     18 C           3.8442   -1.2542   18.2344 C.ar    1  UNL1        0.1415
     19 F           3.2231   -0.3419   17.2187 F       1  UNL1       -0.2043
     20 C           3.2952   -1.3080   19.6293 C.ar    1  UNL1        0.0722
     21 C           3.9163   -2.2203   20.6451 C.ar    1  UNL1        0.0181
     22 C           2.1251   -0.4495   20.0084 C.3     1  UNL1        0.3432
     23 F           0.7659   -1.0631   20.1704 F       1  UNL1       -0.1932
     24 F           2.3141    1.0227   20.2255 F       1  UNL1       -0.1932
     25 S           7.6758   -5.1307   26.8074 S.O2    1  UNL1        0.0655
     26 O           8.8745   -4.2407   26.9523 O.2     1  UNL1       -0.1527
     27 O           6.4770   -6.0207   26.6625 O.2     1  UNL1       -0.1527
     28 N           7.3669   -4.9519   28.2643 N.3     1  UNL1       -0.1553
     29 C           6.8297   -3.6428   28.7619 C.3     1  UNL1        0.0983
     30 C           6.5208   -3.4640   30.2188 C.3     1  UNL1        0.0484
     31 C           6.7491   -4.5942   31.1781 C.3     1  UNL1        0.1134
     32 O           6.4402   -4.4154   32.6350 O.3     1  UNL1       -0.3844
     33 C           7.2862   -5.9033   30.6805 C.3     1  UNL1        0.0484
     34 C           7.5951   -6.0822   29.2236 C.3     1  UNL1        0.0983
     35 H           6.7981   -3.5669   32.9397 H       1  UNL1        0.2103
@<TRIPOS>BOND
     1     1     2    1
     2     2     3   ar
     3     3     4   ar
     4     4     5    1
     5     4     6   ar
     6     6    25    1
     7    25    26    2
     8    25    27    2
     9    25    28    1
    10    28    29    1
    11    29    30    1
    12    30    31    1
    13    31    32    1
    14    31    33    1
    15    33    34    1
    16     6     7   ar
    17     7     8   ar
    18     8    11    1
    19    11    12    2
    20    11    13   am
    21    13    15    1
    22    15    16   ar
    23    16    17   ar
    24    17    18   ar
    25    18    19    1
    26    18    20   ar
    27    20    22    1
    28    22    23    1
    29    22    24    1
    30    20    21   ar
    31     8     2   ar
    32    21    15   ar
    33    34    28    1
    34     1     9    1
    35     1    10    1
    36    32    35    1
    37    13    14    1
@<TRIPOS>MOLECULE
*****
 35 37 0 0 0
SMALL
GASTEIGER

@<TRIPOS>ATOM
      1 N          -8.5572  -15.2150   26.9211 N.pl3   1  UNL1       -0.3568
      2 C          -7.4415  -15.6219   26.0047 C.ar    1  UNL1        0.0482
      3 C          -6.0155  -15.4540   26.4386 C.ar    1  UNL1        0.0452
      4 C          -4.8999  -15.8609   25.5223 C.ar    1  UNL1        0.1598
      5 F          -3.4738  -15.6929   25.9563 F       1  UNL1       -0.2027
      6 C          -5.2102  -16.4357   24.1720 C.ar    1  UNL1        0.1497
      7 C          -6.6361  -16.6036   23.7381 C.ar    1  UNL1        0.0280
      8 C          -7.7518  -16.1967   24.6545 C.ar    1  UNL1        0.0680
      9 H          -8.3535  -14.8378   27.8073 H       1  UNL1        0.1424
     10 H          -9.4931  -15.3252   26.6363 H       1  UNL1        0.1424
     11 C          -9.1779  -16.3647   24.2205 C.2     1  UNL1        0.2507
     12 O         -10.1543  -15.2406   24.4018 O.2     1  UNL1       -0.2698
     13 N          -9.6273  -17.6567   23.6052 N.am    1  UNL1       -0.2804
     14 H          -8.9864  -18.3945   23.4862 H       1  UNL1        0.1552
     15 C         -11.0533  -17.8247   23.1712 C.ar    1  UNL1        0.0505
     16 C         -11.4124  -17.7205   21.7186 C.ar    1  UNL1        0.0170
     17 C         -12.8385  -17.8885   21.2846 C.ar    1  UNL1        0.0308
     18 C         -13.9053  -18.1607   22.3033 C.ar    1  UNL1        0.1415
     19 F         -15.3313  -18.3286   21.8693 F       1  UNL1       -0.2043
     20 C         -13.5462  -18.2648   23.7559 C.ar    1  UNL1        0.0722
     21 C         -12.1202  -18.0968   24.1899 C.ar    1  UNL1        0.0181
     22 C         -14.6130  -18.5369   24.7746 C.3     1  UNL1        0.3432
     23 F         -14.3016  -18.4176   26.2371 F       1  UNL1       -0.1932
     24 F         -15.9915  -18.9283   24.3309 F       1  UNL1       -0.1932
     25 S          -4.0945  -16.8426   23.2557 S.O2    1  UNL1        0.0655
     26 O          -3.9836  -15.4300   22.7634 O.2     1  UNL1       -0.1527
     27 O          -4.2054  -18.2552   23.7479 O.2     1  UNL1       -0.1527
     28 N          -2.9788  -17.2494   22.3393 N.3     1  UNL1       -0.1553
     29 C          -2.7366  -18.7014   22.0511 C.3     1  UNL1        0.0983
     30 C          -1.6210  -19.1083   21.1348 C.3     1  UNL1        0.0484
     31 C          -0.7474  -18.0632   20.5066 C.3     1  UNL1        0.1134
     32 O           0.3683  -18.4701   19.5902 O.3     1  UNL1       -0.3844
     33 C          -0.9896  -16.6112   20.7948 C.3     1  UNL1        0.0484
     34 C          -2.1053  -16.2043   21.7111 C.3     1  UNL1        0.0983
     35 H           0.8624  -19.2037   19.9884 H       1  UNL1        0.2103
@<TRIPOS>BOND
     1     1     2    1
     2     2     3   ar
     3     3     4   ar
     4     4     5    1
     5     4     6   ar
     6     6    25    1
     7    25    26    2
     8    25    27    2
     9    25    28    1
    10    28    29    1
    11    29    30    1
    12    30    31    1
    13    31    32    1
    14    31    33    1
    15    33    34    1
    16     6     7   ar
    17     7     8   ar
    18     8    11    1
    19    11    12    2
    20    11    13   am
    21    13    15    1
    22    15    16   ar
    23    16    17   ar
    24    17    18   ar
    25    18    19    1
    26    18    20   ar
    27    20    22    1
    28    22    23    1
    29    22    24    1
    30    20    21   ar
    31     8     2   ar
    32    21    15   ar
    33    34    28    1
    34     1     9    1
    35     1    10    1
    36    32    35    1
    37    13    14    1
@<TRIPOS>MOLECULE
*****
 35 37 0 0 0
SMALL
GASTEIGER

@<TRIPOS>ATOM
      1 N           1.5179    1.9200   23.9112 N.pl3   1  UNL1       -0.3568
      2 C           0.4011    2.3664   23.0147 C.ar    1  UNL1        0.0482
      3 C          -0.7360    3.1679   23.5755 C.ar    1  UNL1        0.0452
      4 C          -1.8527    3.6143   22.6790 C.ar    1  UNL1        0.1598
      5 F          -2.9899    4.4159   23.2398 F       1  UNL1       -0.2027
      6 C          -1.8323    3.2592   21.2218 C.ar    1  UNL1        0.1497
      7 C          -0.6952    2.4577   20.6611 C.ar    1  UNL1        0.0280
      8 C           0.4215    2.0113   21.5575 C.ar    1  UNL1        0.0680
      9 H           1.5045    2.1530   24.8676 H       1  UNL1        0.1424
     10 H           2.2642    1.3939   23.5431 H       1  UNL1        0.1424
     11 C           1.5587    1.2097   20.9967 C.2     1  UNL1        0.2507
     12 O           2.9479    1.4057   21.5274 O.2     1  UNL1       -0.2698
     13 N           1.3065    0.2122   19.9052 N.am    1  UNL1       -0.2804
     14 H           0.3947    0.0836   19.5569 H       1  UNL1        0.1552
     15 C           2.4436   -0.5894   19.3444 C.ar    1  UNL1        0.0505
     16 C           3.2921   -0.0206   18.2460 C.ar    1  UNL1        0.0170
     17 C           4.4293   -0.8223   17.6851 C.ar    1  UNL1        0.0308
     18 C           4.7178   -2.1925   18.2228 C.ar    1  UNL1        0.1415
     19 F           5.8549   -2.9941   17.6619 F       1  UNL1       -0.2043
     20 C           3.8693   -2.7612   19.3212 C.ar    1  UNL1        0.0722
     21 C           2.7322   -1.9597   19.8820 C.ar    1  UNL1        0.0181
     22 C           4.1578   -4.1315   19.8588 C.3     1  UNL1        0.3432
     23 F           4.4207   -5.2674   18.9151 F       1  UNL1       -0.1932
     24 F           4.1835   -4.3659   21.3402 F       1  UNL1       -0.1932
     25 S          -2.9491    3.7056   20.3254 S.O2    1  UNL1        0.0655
     26 O          -3.8438    2.6577   20.9181 O.2     1  UNL1       -0.1527
     27 O          -2.0544    4.7536   19.7327 O.2     1  UNL1       -0.1527
     28 N          -4.0658    4.1520   19.4290 N.3     1  UNL1       -0.1553
     29 C          -3.8473    5.2782   18.4626 C.3     1  UNL1        0.0983
     30 C          -4.9640    5.7246   17.5661 C.3     1  UNL1        0.0484
     31 C          -6.2993    5.0449   17.6361 C.3     1  UNL1        0.1134
     32 O          -7.4160    5.4913   16.7396 O.3     1  UNL1       -0.3844
     33 C          -6.5178    3.9187   18.6025 C.3     1  UNL1        0.0484
     34 C          -5.4011    3.4723   19.4989 C.3     1  UNL1        0.0983
     35 H          -7.4704    6.4597   16.7486 H       1  UNL1        0.2103
@<TRIPOS>BOND
     1     1     2    1
     2     2     3   ar
     3     3     4   ar
     4     4     5    1
     5     4     6   ar
     6     6    25    1
     7    25    26    2
     8    25    27    2
     9    25    28    1
    10    28    29    1
    11    29    30    1
    12    30    31    1
    13    31    32    1
    14    31    33    1
    15    33    34    1
    16     6     7   ar
    17     7     8   ar
    18     8    11    1
    19    11    12    2
    20    11    13   am
    21    13    15    1
    22    15    16   ar
    23    16    17   ar
    24    17    18   ar
    25    18    19    1
    26    18    20   ar
    27    20    22    1
    28    22    23    1
    29    22    24    1
    30    20    21   ar
    31     8     2   ar
    32    21    15   ar
    33    34    28    1
    34     1     9    1
    35     1    10    1
    36    32    35    1
    37    13    14    1
@<TRIPOS>MOLECULE
*****
 35 37 0 0 0
SMALL
GASTEIGER

@<TRIPOS>ATOM
      1 N           2.7727    3.6741   18.0699 N.pl3   1  UNL1       -0.3568
      2 C           1.4159    3.7176   18.7081 C.ar    1  UNL1        0.0482
      3 C           0.4484    4.8030   18.3400 C.ar    1  UNL1        0.0452
      4 C          -0.9084    4.8465   18.9781 C.ar    1  UNL1        0.1598
      5 F          -1.8760    5.9321   18.6099 F       1  UNL1       -0.2027
      6 C          -1.2976    3.8045   19.9845 C.ar    1  UNL1        0.1497
      7 C          -0.3301    2.7191   20.3526 C.ar    1  UNL1        0.0280
      8 C           1.0267    2.6756   19.7144 C.ar    1  UNL1        0.0680
      9 H           3.0282    4.3580   17.4095 H       1  UNL1        0.1424
     10 H           3.4077    2.9617   18.3116 H       1  UNL1        0.1424
     11 C           1.9943    1.5901   20.0826 C.2     1  UNL1        0.2507
     12 O           3.4676    1.8713   20.0955 O.2     1  UNL1       -0.2698
     13 N           1.4884    0.2234   20.4379 N.am    1  UNL1       -0.2804
     14 H           0.5214    0.0388   20.4294 H       1  UNL1        0.1552
     15 C           2.4559   -0.8621   20.8061 C.ar    1  UNL1        0.0505
     16 C           2.9808   -0.9551   22.2082 C.ar    1  UNL1        0.0170
     17 C           3.9484   -2.0407   22.5763 C.ar    1  UNL1        0.0308
     18 C           4.3910   -3.0332   21.5425 C.ar    1  UNL1        0.1415
     19 F           5.3584   -4.1187   21.9106 F       1  UNL1       -0.2043
     20 C           3.8661   -2.9402   20.1404 C.ar    1  UNL1        0.0722
     21 C           2.8986   -1.8547   19.7722 C.ar    1  UNL1        0.0181
     22 C           4.3086   -3.9327   19.1065 C.3     1  UNL1        0.3432
     23 F           5.2948   -3.5274   18.0514 F       1  UNL1       -0.1932
     24 F           3.7650   -5.3307   19.1276 F       1  UNL1       -0.1932
     25 S          -2.6544    3.8480   20.6226 S.O2    1  UNL1        0.0655
     26 O          -3.2849    3.5045   19.3056 O.2     1  UNL1       -0.1527
     27 O          -2.0239    4.1915   21.9396 O.2     1  UNL1       -0.1527
     28 N          -4.0112    3.8915   21.2608 N.3     1  UNL1       -0.1553
     29 C          -5.2038    4.3210   20.4589 C.3     1  UNL1        0.0983
     30 C          -6.5606    4.3644   21.0970 C.3     1  UNL1        0.0484
     31 C          -6.7248    3.9784   22.5371 C.3     1  UNL1        0.1134
     32 O          -8.0815    4.0219   23.1753 O.3     1  UNL1       -0.3844
     33 C          -5.5321    3.5489   23.3391 C.3     1  UNL1        0.0484
     34 C          -4.1754    3.5054   22.7009 C.3     1  UNL1        0.0983
     35 H          -8.5222    4.8539   22.9418 H       1  UNL1        0.2103
@<TRIPOS>BOND
     1     1     2    1
     2     2     3   ar
     3     3     4   ar
     4     4     5    1
     5     4     6   ar
     6     6    25    1
     7    25    26    2
     8    25    27    2
     9    25    28    1
    10    28    29    1
    11    29    30    1
    12    30    31    1
    13    31    32    1
    14    31    33    1
    15    33    34    1
    16     6     7   ar
    17     7     8   ar
    18     8    11    1
    19    11    12    2
    20    11    13   am
    21    13    15    1
    22    15    16   ar
    23    16    17   ar
    24    17    18   ar
    25    18    19    1
    26    18    20   ar
    27    20    22    1
    28    22    23    1
    29    22    24    1
    30    20    21   ar
    31     8     2   ar
    32    21    15   ar
    33    34    28    1
    34     1     9    1
    35     1    10    1
    36    32    35    1
    37    13    14    1
@<TRIPOS>MOLECULE
*****
 35 37 0 0 0
SMALL
GASTEIGER

@<TRIPOS>ATOM
      1 N          -1.6166    4.5059   18.5864 N.pl3   1  UNL1       -0.3568
      2 C          -0.7279    3.4062   19.0874 C.ar    1  UNL1        0.0482
      3 C           0.3363    2.8374   18.1964 C.ar    1  UNL1        0.0452
      4 C           1.2250    1.7377   18.6974 C.ar    1  UNL1        0.1598
      5 F           2.2893    1.1689   17.8064 F       1  UNL1       -0.2027
      6 C           1.0495    1.2068   20.0892 C.ar    1  UNL1        0.1497
      7 C          -0.0148    1.7757   20.9801 C.ar    1  UNL1        0.0280
      8 C          -0.9035    2.8753   20.4792 C.ar    1  UNL1        0.0680
      9 H          -1.5013    4.8543   17.6729 H       1  UNL1        0.1424
     10 H          -2.3151    4.8792   19.1712 H       1  UNL1        0.1424
     11 C          -1.9678    3.4442   21.3702 C.2     1  UNL1        0.2507
     12 O          -1.6471    4.5886   22.2852 O.2     1  UNL1       -0.2698
     13 N          -3.3527    2.8684   21.3461 N.am    1  UNL1       -0.2804
     14 H          -3.5631    2.1173   20.7456 H       1  UNL1        0.1552
     15 C          -4.4169    3.4372   22.2371 C.ar    1  UNL1        0.0505
     16 C          -5.7312    3.8667   21.6556 C.ar    1  UNL1        0.0170
     17 C          -6.7955    4.4355   22.5466 C.ar    1  UNL1        0.0308
     18 C          -6.5455    4.5747   24.0190 C.ar    1  UNL1        0.1415
     19 F          -7.6098    5.1435   24.9100 F       1  UNL1       -0.2043
     20 C          -5.2312    4.1452   24.6005 C.ar    1  UNL1        0.0722
     21 C          -4.1669    3.5764   23.7096 C.ar    1  UNL1        0.0181
     22 C          -4.9812    4.2844   26.0729 C.3     1  UNL1        0.3432
     23 F          -3.9347    3.4411   26.7390 F       1  UNL1       -0.1932
     24 F          -5.7776    5.2670   26.8793 F       1  UNL1       -0.1932
     25 S           1.9381    0.1072   20.5902 S.O2    1  UNL1        0.0655
     26 O           0.9500   -0.9121   20.1057 O.2     1  UNL1       -0.1527
     27 O           2.9263    1.1264   21.0746 O.2     1  UNL1       -0.1527
     28 N           2.8268   -0.9925   21.0911 N.3     1  UNL1       -0.1553
     29 C           3.2084   -1.0469   22.5407 C.3     1  UNL1        0.0983
     30 C           4.0971   -2.1465   23.0416 C.3     1  UNL1        0.0484
     31 C           4.6042   -3.1919   22.0930 C.3     1  UNL1        0.1134
     32 O           5.4928   -4.2916   22.5939 O.3     1  UNL1       -0.3844
     33 C           4.2226   -3.1376   20.6434 C.3     1  UNL1        0.0484
     34 C           3.3339   -2.0379   20.1424 C.3     1  UNL1        0.0983
     35 H           6.1812   -3.9162   23.1650 H       1  UNL1        0.2103
@<TRIPOS>BOND
     1     1     2    1
     2     2     3   ar
     3     3     4   ar
     4     4     5    1
     5     4     6   ar
     6     6    25    1
     7    25    26    2
     8    25    27    2
     9    25    28    1
    10    28    29    1
    11    29    30    1
    12    30    31    1
    13    31    32    1
    14    31    33    1
    15    33    34    1
    16     6     7   ar
    17     7     8   ar
    18     8    11    1
    19    11    12    2
    20    11    13   am
    21    13    15    1
    22    15    16   ar
    23    16    17   ar
    24    17    18   ar
    25    18    19    1
    26    18    20   ar
    27    20    22    1
    28    22    23    1
    29    22    24    1
    30    20    21   ar
    31     8     2   ar
    32    21    15   ar
    33    34    28    1
    34     1     9    1
    35     1    10    1
    36    32    35    1
    37    13    14    1
@<TRIPOS>MOLECULE
*****
 35 37 0 0 0
SMALL
GASTEIGER

@<TRIPOS>ATOM
      1 N          -1.3809    3.2364   21.8985 N.pl3   1  UNL1       -0.3568
      2 C          -0.8379    2.8116   23.2307 C.ar    1  UNL1        0.0482
      3 C          -1.3507    3.4496   24.4876 C.ar    1  UNL1        0.0452
      4 C          -0.8077    3.0248   25.8198 C.ar    1  UNL1        0.1598
      5 F          -1.3206    3.6628   27.0768 F       1  UNL1       -0.2027
      6 C           0.2482    1.9621   25.8950 C.ar    1  UNL1        0.1497
      7 C           0.7611    1.3241   24.6381 C.ar    1  UNL1        0.0280
      8 C           0.2180    1.7489   23.3059 C.ar    1  UNL1        0.0680
      9 H          -2.0739    3.9339   21.8492 H       1  UNL1        0.1424
     10 H          -1.0443    2.8177   21.0735 H       1  UNL1        0.1424
     11 C           0.7309    1.1109   22.0489 C.2     1  UNL1        0.2507
     12 O          -0.2273    0.7070   20.9679 O.2     1  UNL1       -0.2698
     13 N           2.2021    0.8769   21.8730 N.am    1  UNL1       -0.2804
     14 H           2.8310    1.1420   22.5825 H       1  UNL1        0.1552
     15 C           2.7150    0.2390   20.6161 C.ar    1  UNL1        0.0505
     16 C           2.9335    1.0715   19.3876 C.ar    1  UNL1        0.0170
     17 C           3.4465    0.4335   18.1307 C.ar    1  UNL1        0.0308
     18 C           3.7409   -1.0370   18.1022 C.ar    1  UNL1        0.1415
     19 F           4.2538   -1.6750   16.8453 F       1  UNL1       -0.2043
     20 C           3.5224   -1.8696   19.3307 C.ar    1  UNL1        0.0722
     21 C           3.0095   -1.2316   20.5876 C.ar    1  UNL1        0.0181
     22 C           3.8168   -3.3401   19.3022 C.3     1  UNL1        0.3432
     23 F           5.1923   -3.8362   19.6366 F       1  UNL1       -0.1932
     24 F           2.7357   -4.3146   18.9393 F       1  UNL1       -0.1932
     25 S           0.7913    1.5373   27.2272 S.O2    1  UNL1        0.0655
     26 O          -0.4345    0.7050   27.4615 O.2     1  UNL1       -0.1527
     27 O           2.0170    2.3695   26.9929 O.2     1  UNL1       -0.1527
     28 N           1.3343    1.1125   28.5594 N.3     1  UNL1       -0.1553
     29 C           1.1377    1.9863   29.7626 C.3     1  UNL1        0.0983
     30 C           1.6808    1.5615   31.0948 C.3     1  UNL1        0.0484
     31 C           2.4204    0.2629   31.2237 C.3     1  UNL1        0.1134
     32 O           2.9634   -0.1618   32.5559 O.3     1  UNL1       -0.3844
     33 C           2.6169   -0.6108   30.0205 C.3     1  UNL1        0.0484
     34 C           2.0739   -0.1861   28.6883 C.3     1  UNL1        0.0983
     35 H           3.4149    0.5875   32.9748 H       1  UNL1        0.2103
@<TRIPOS>BOND
     1     1     2    1
     2     2     3   ar
     3     3     4   ar
     4     4     5    1
     5     4     6   ar
     6     6    25    1
     7    25    26    2
     8    25    27    2
     9    25    28    1
    10    28    29    1
    11    29    30    1
    12    30    31    1
    13    31    32    1
    14    31    33    1
    15    33    34    1
    16     6     7   ar
    17     7     8   ar
    18     8    11    1
    19    11    12    2
    20    11    13   am
    21    13    15    1
    22    15    16   ar
    23    16    17   ar
    24    17    18   ar
    25    18    19    1
    26    18    20   ar
    27    20    22    1
    28    22    23    1
    29    22    24    1
    30    20    21   ar
    31     8     2   ar
    32    21    15   ar
    33    34    28    1
    34     1     9    1
    35     1    10    1
    36    32    35    1
    37    13    14    1
@<TRIPOS>MOLECULE
*****
 35 37 0 0 0
SMALL
GASTEIGER

@<TRIPOS>ATOM
      1 N           7.9452   -7.3784   24.2547 N.pl3   1  UNL1       -0.3568
      2 C           7.8655   -6.5412   25.4968 C.ar    1  UNL1        0.0482
      3 C           8.3631   -7.0870   26.8023 C.ar    1  UNL1        0.0452
      4 C           8.2834   -6.2498   28.0444 C.ar    1  UNL1        0.1598
      5 F           8.7810   -6.7956   29.3500 F       1  UNL1       -0.2027
      6 C           7.7060   -4.8669   27.9810 C.ar    1  UNL1        0.1497
      7 C           7.2083   -4.3211   26.6755 C.ar    1  UNL1        0.0280
      8 C           7.2881   -5.1583   25.4334 C.ar    1  UNL1        0.0680
      9 H           8.3242   -8.2861   24.2964 H       1  UNL1        0.1424
     10 H           7.6186   -7.0202   23.3979 H       1  UNL1        0.1424
     11 C           6.7904   -4.6124   24.1278 C.2     1  UNL1        0.2507
     12 O           7.5200   -4.9283   22.8559 O.2     1  UNL1       -0.2698
     13 N           5.5630   -3.7508   24.0942 N.am    1  UNL1       -0.2804
     14 H           5.0841   -3.5435   24.9290 H       1  UNL1        0.1552
     15 C           5.0653   -3.2049   22.7887 C.ar    1  UNL1        0.0505
     16 C           4.9518   -1.7225   22.5901 C.ar    1  UNL1        0.0170
     17 C           4.4541   -1.1767   21.2845 C.ar    1  UNL1        0.0308
     18 C           4.0699   -2.1133   20.1777 C.ar    1  UNL1        0.1415
     19 F           3.5722   -1.5675   18.8722 F       1  UNL1       -0.2043
     20 C           4.1834   -3.5958   20.3763 C.ar    1  UNL1        0.0722
     21 C           4.6811   -4.1416   21.6818 C.ar    1  UNL1        0.0181
     22 C           3.7993   -4.5324   19.2695 C.3     1  UNL1        0.3432
     23 F           2.3533   -4.7333   18.9250 F       1  UNL1       -0.1932
     24 F           4.8611   -5.2682   18.5071 F       1  UNL1       -0.1932
     25 S           7.6262   -4.0297   29.2231 S.O2    1  UNL1        0.0655
     26 O           6.4898   -4.8738   29.7190 O.2     1  UNL1       -0.1527
     27 O           8.7627   -3.1856   28.7271 O.2     1  UNL1       -0.1527
     28 N           7.5465   -3.1925   30.4652 N.3     1  UNL1       -0.1553
     29 C           8.7453   -2.4175   30.9255 C.3     1  UNL1        0.0983
     30 C           8.6656   -1.5803   32.1676 C.3     1  UNL1        0.0484
     31 C           7.3870   -1.5181   32.9493 C.3     1  UNL1        0.1134
     32 O           7.3072   -0.6810   34.1914 O.3     1  UNL1       -0.3844
     33 C           6.1881   -2.2932   32.4890 C.3     1  UNL1        0.0484
     34 C           6.2678   -3.1304   31.2469 C.3     1  UNL1        0.0983
     35 H           8.0920   -0.8394   34.7391 H       1  UNL1        0.2103
@<TRIPOS>BOND
     1     1     2    1
     2     2     3   ar
     3     3     4   ar
     4     4     5    1
     5     4     6   ar
     6     6    25    1
     7    25    26    2
     8    25    27    2
     9    25    28    1
    10    28    29    1
    11    29    30    1
    12    30    31    1
    13    31    32    1
    14    31    33    1
    15    33    34    1
    16     6     7   ar
    17     7     8   ar
    18     8    11    1
    19    11    12    2
    20    11    13   am
    21    13    15    1
    22    15    16   ar
    23    16    17   ar
    24    17    18   ar
    25    18    19    1
    26    18    20   ar
    27    20    22    1
    28    22    23    1
    29    22    24    1
    30    20    21   ar
    31     8     2   ar
    32    21    15   ar
    33    34    28    1
    34     1     9    1
    35     1    10    1
    36    32    35    1
    37    13    14    1
@<TRIPOS>MOLECULE
*****
 35 37 0 0 0
SMALL
GASTEIGER

@<TRIPOS>ATOM
      1 N           3.9525    3.9390   17.9631 N.pl3   1  UNL1       -0.3568
      2 C           2.4554    3.9849   18.0437 C.ar    1  UNL1        0.0482
      3 C           1.7184    5.2173   17.6102 C.ar    1  UNL1        0.0452
      4 C           0.2213    5.2632   17.6907 C.ar    1  UNL1        0.1598
      5 F          -0.5157    6.4957   17.2571 F       1  UNL1       -0.2027
      6 C          -0.5389    4.0767   18.2048 C.ar    1  UNL1        0.1497
      7 C           0.1981    2.8443   18.6383 C.ar    1  UNL1        0.0280
      8 C           1.6952    2.7984   18.5578 C.ar    1  UNL1        0.0680
      9 H           4.4514    4.7178   17.6257 H       1  UNL1        0.1424
     10 H           4.4362    3.1301   18.2477 H       1  UNL1        0.1424
     11 C           2.4322    1.5659   18.9913 C.2     1  UNL1        0.2507
     12 O           3.6273    1.0951   18.2166 O.2     1  UNL1       -0.2698
     13 N           1.9741    0.8042   20.1996 N.am    1  UNL1       -0.2804
     14 H           1.1898    1.1132   20.7081 H       1  UNL1        0.1552
     15 C           2.7111   -0.4282   20.6332 C.ar    1  UNL1        0.0505
     16 C           3.2843   -0.5115   22.0169 C.ar    1  UNL1        0.0170
     17 C           4.0213   -1.7440   22.4504 C.ar    1  UNL1        0.0308
     18 C           4.1849   -2.8931   21.5004 C.ar    1  UNL1        0.1415
     19 F           4.9218   -4.1256   21.9339 F       1  UNL1       -0.2043
     20 C           3.6116   -2.8098   20.1167 C.ar    1  UNL1        0.0722
     21 C           2.8747   -1.5774   19.6832 C.ar    1  UNL1        0.0181
     22 C           3.7753   -3.9590   19.1667 C.3     1  UNL1        0.3432
     23 F           5.0842   -4.1721   18.4657 F       1  UNL1       -0.1932
     24 F           2.6300   -4.8951   18.9176 F       1  UNL1       -0.1932
     25 S          -2.0360    4.1225   18.2853 S.O2    1  UNL1        0.0655
     26 O          -2.1226    3.8958   16.8051 O.2     1  UNL1       -0.1527
     27 O          -1.9494    4.3493   19.7656 O.2     1  UNL1       -0.1527
     28 N          -3.5331    4.1684   18.3659 N.3     1  UNL1       -0.1553
     29 C          -4.3247    4.8016   17.2602 C.3     1  UNL1        0.0983
     30 C          -5.8218    4.8475   17.3408 C.3     1  UNL1        0.0484
     31 C          -6.5274    4.2602   18.5270 C.3     1  UNL1        0.1134
     32 O          -8.0245    4.3061   18.6075 O.3     1  UNL1       -0.3844
     33 C          -5.7359    3.6270   19.6326 C.3     1  UNL1        0.0484
     34 C          -4.2388    3.5811   19.5521 C.3     1  UNL1        0.0983
     35 H          -8.3341    5.1941   18.3698 H       1  UNL1        0.2103
@<TRIPOS>BOND
     1     1     2    1
     2     2     3   ar
     3     3     4   ar
     4     4     5    1
     5     4     6   ar
     6     6    25    1
     7    25    26    2
     8    25    27    2
     9    25    28    1
    10    28    29    1
    11    29    30    1
    12    30    31    1
    13    31    32    1
    14    31    33    1
    15    33    34    1
    16     6     7   ar
    17     7     8   ar
    18     8    11    1
    19    11    12    2
    20    11    13   am
    21    13    15    1
    22    15    16   ar
    23    16    17   ar
    24    17    18   ar
    25    18    19    1
    26    18    20   ar
    27    20    22    1
    28    22    23    1
    29    22    24    1
    30    20    21   ar
    31     8     2   ar
    32    21    15   ar
    33    34    28    1
    34     1     9    1
    35     1    10    1
    36    32    35    1
    37    13    14    1
@<TRIPOS>MOLECULE
*****
 35 37 0 0 0
SMALL
GASTEIGER

@<TRIPOS>ATOM
      1 N         -19.0161   -1.7766   18.6974 N.pl3   1  UNL1       -0.3568
      2 C         -18.5424   -0.6552   19.5739 C.ar    1  UNL1        0.0482
      3 C         -19.5011    0.4133   20.0086 C.ar    1  UNL1        0.0452
      4 C         -19.0274    1.5347   20.8850 C.ar    1  UNL1        0.1598
      5 F         -19.9863    2.6032   21.3198 F       1  UNL1       -0.2027
      6 C         -17.5949    1.5875   21.3267 C.ar    1  UNL1        0.1497
      7 C         -16.6362    0.5190   20.8920 C.ar    1  UNL1        0.0280
      8 C         -17.1099   -0.6023   20.0156 C.ar    1  UNL1        0.0680
      9 H         -19.9563   -1.8112   18.4075 H       1  UNL1        0.1424
     10 H         -18.3868   -2.4779   18.4121 H       1  UNL1        0.1424
     11 C         -16.1510   -1.6709   19.5808 C.2     1  UNL1        0.2507
     12 O         -16.1859   -2.1814   18.1709 O.2     1  UNL1       -0.2698
     13 N         -15.1573   -2.2288   20.5562 N.am    1  UNL1       -0.2804
     14 H         -15.1344   -1.8937   21.4816 H       1  UNL1        0.1552
     15 C         -14.1985   -3.2972   20.1215 C.ar    1  UNL1        0.0505
     16 C         -14.5985   -4.7408   20.1993 C.ar    1  UNL1        0.0170
     17 C         -13.6396   -5.8093   19.7646 C.ar    1  UNL1        0.0308
     18 C         -12.2807   -5.4342   19.2521 C.ar    1  UNL1        0.1415
     19 F         -11.3219   -6.5027   18.8175 F       1  UNL1       -0.2043
     20 C         -11.8807   -3.9907   19.1743 C.ar    1  UNL1        0.0722
     21 C         -12.8395   -2.9222   19.6090 C.ar    1  UNL1        0.0181
     22 C         -10.5218   -3.6156   18.6619 C.3     1  UNL1        0.3432
     23 F          -9.3040   -4.3231   19.1780 F       1  UNL1       -0.1932
     24 F         -10.3806   -2.5329   17.6333 F       1  UNL1       -0.1932
     25 S         -17.1212    2.7089   22.2032 S.O2    1  UNL1        0.0655
     26 O         -17.7119    2.0234   23.3995 O.2     1  UNL1       -0.1527
     27 O         -16.5305    3.3944   21.0069 O.2     1  UNL1       -0.1527
     28 N         -16.6475    3.8302   23.0796 N.3     1  UNL1       -0.1553
     29 C         -17.4609    4.2477   24.2687 C.3     1  UNL1        0.0983
     30 C         -16.9872    5.3691   25.1452 C.3     1  UNL1        0.0484
     31 C         -15.7001    6.0730   24.8325 C.3     1  UNL1        0.1134
     32 O         -15.2264    7.1943   25.7089 O.3     1  UNL1       -0.3844
     33 C         -14.8867    5.6555   23.6434 C.3     1  UNL1        0.0484
     34 C         -15.3604    4.5341   22.7669 C.3     1  UNL1        0.0983
     35 H         -15.9651    7.7955   25.8924 H       1  UNL1        0.2103
@<TRIPOS>BOND
     1     1     2    1
     2     2     3   ar
     3     3     4   ar
     4     4     5    1
     5     4     6   ar
     6     6    25    1
     7    25    26    2
     8    25    27    2
     9    25    28    1
    10    28    29    1
    11    29    30    1
    12    30    31    1
    13    31    32    1
    14    31    33    1
    15    33    34    1
    16     6     7   ar
    17     7     8   ar
    18     8    11    1
    19    11    12    2
    20    11    13   am
    21    13    15    1
    22    15    16   ar
    23    16    17   ar
    24    17    18   ar
    25    18    19    1
    26    18    20   ar
    27    20    22    1
    28    22    23    1
    29    22    24    1
    30    20    21   ar
    31     8     2   ar
    32    21    15   ar
    33    34    28    1
    34     1     9    1
    35     1    10    1
    36    32    35    1
    37    13    14    1
