@<TRIPOS>MOLECULE
*****
 42 45 0 0 0
SMALL
GASTEIGER

@<TRIPOS>ATOM
      1 C           8.2668   -5.5050   27.4498 C.2     1  UNL1        0.2252
      2 O           8.9798   -6.8245   27.4697 O.2     1  UNL1       -0.2749
      3 N           7.7215   -4.9665   26.1604 N.am    1  UNL1       -0.2774
      4 C           7.8123   -5.6312   24.8188 C.3     1  UNL1        0.0956
      5 C           7.1365   -4.7443   23.8153 C.3     1  UNL1        0.0497
      6 C           6.6280   -3.5314   24.5369 C.3     1  UNL1        0.1533
      7 C           6.9896   -3.6688   25.9861 C.3     1  UNL1        0.1198
      8 C           7.7638   -3.1617   31.2585 C.3     1  UNL1        0.0366
      9 C           6.7740   -4.2297   30.8987 C.3     1  UNL1        0.0060
     10 C           6.9416   -5.0108   29.6292 C.3     1  UNL1        0.0094
     11 C           8.0991   -4.7239   28.7194 C.3     1  UNL1        0.0767
     12 C           9.0890   -3.6559   29.0791 C.3     1  UNL1        0.0094
     13 C           8.9214   -2.8748   30.3487 C.3     1  UNL1        0.0060
     14 O           6.2252   -1.9824   32.9882 O.co2   1  UNL1       -0.5492
     15 C           7.5962   -2.3806   32.5281 C.2     1  UNL1        0.0500
     16 O           8.7995   -1.9976   33.3375 O.co2   1  UNL1       -0.5492
     17 C           6.1389   -3.1227   23.1791 C.ar    1  UNL1       -0.0005
     18 C           6.9746   -2.2194   22.3214 C.ar    1  UNL1       -0.0029
     19 C           6.4854   -1.8107   20.9636 C.ar    1  UNL1       -0.0015
     20 C           5.1606   -2.3052   20.4635 C.ar    1  UNL1        0.0235
     21 C           4.3248   -3.2085   21.3211 C.ar    1  UNL1       -0.0015
     22 C           4.8140   -3.6172   22.6790 C.ar    1  UNL1       -0.0029
     23 C           4.6714   -1.8964   19.1056 C.3     1  UNL1        0.3242
     24 F           4.6489   -0.4626   19.5455 F       1  UNL1       -0.2176
     25 C           4.1823   -1.4876   17.7478 C.3     1  UNL1        0.4363
     26 F           3.6932   -1.0788   16.3900 F       1  UNL1       -0.1666
     27 F           2.9339   -0.9305   18.3653 F       1  UNL1       -0.1666
     28 F           4.8788   -1.7847   17.2882 F       1  UNL1       -0.1666
     29 C           4.6940   -3.3303   18.6659 C.3     1  UNL1        0.4363
     30 F           4.7166   -4.7642   18.2261 F       1  UNL1       -0.1666
     31 F           5.5715   -3.3991   18.5671 F       1  UNL1       -0.1666
     32 F           3.2494   -3.7342   18.6705 F       1  UNL1       -0.1666
     33 S           6.0174   -2.2332   24.9745 S.O2    1  UNL1        0.0106
     34 O           4.6881   -2.4490   24.8796 O.2     1  UNL1       -0.1684
     35 O           7.3872   -1.6622   25.1925 O.2     1  UNL1       -0.1684
     36 C           5.4066   -0.9350   25.4122 C.ar    1  UNL1        0.1061
     37 C           6.2822    0.2529   25.6809 C.ar    1  UNL1        0.0207
     38 C           5.6715    1.5512   26.1186 C.ar    1  UNL1        0.0310
     39 C           4.1852    1.6616   26.2876 C.ar    1  UNL1        0.1402
     40 F           3.5744    2.9598   26.7253 F       1  UNL1       -0.2042
     41 C           3.3095    0.4737   26.0189 C.ar    1  UNL1        0.0310
     42 C           3.9202   -0.8246   25.5813 C.ar    1  UNL1        0.0207
@<TRIPOS>UNITY_ATOM_ATTR
14 1
charge -1
@<TRIPOS>BOND
     1    14    15   ar
     2    15    16   ar
     3     8    15    1
     4     8     9    1
     5     9    10    1
     6    10    11    1
     7    11     1    1
     8     1     2    2
     9     1     3   am
    10     3     4    1
    11     4     5    1
    12     5     6    1
    13     6    17    1
    14    17    18   ar
    15    18    19   ar
    16    19    20   ar
    17    20    23    1
    18    23    24    1
    19    23    25    1
    20    25    26    1
    21    25    27    1
    22    25    28    1
    23    23    29    1
    24    29    30    1
    25    29    31    1
    26    29    32    1
    27    20    21   ar
    28    21    22   ar
    29     6    33    1
    30    33    34    2
    31    33    35    2
    32    33    36    1
    33    36    37   ar
    34    37    38   ar
    35    38    39   ar
    36    39    40    1
    37    39    41   ar
    38    41    42   ar
    39     6     7    1
    40    11    12    1
    41    12    13    1
    42    13     8    1
    43     7     3    1
    44    22    17   ar
    45    42    36   ar
@<TRIPOS>MOLECULE
*****
 42 45 0 0 0
SMALL
GASTEIGER

@<TRIPOS>ATOM
      1 C          -4.0047    4.8824   18.4081 C.2     1  UNL1        0.2252
      2 O          -4.6037    5.4010   17.1345 O.2     1  UNL1       -0.2749
      3 N          -2.6437    4.2521   18.3946 N.am    1  UNL1       -0.2774
      4 C          -1.7676    4.0715   17.1904 C.3     1  UNL1        0.0956
      5 C          -0.5021    3.3993   17.6345 C.3     1  UNL1        0.0497
      6 C          -0.5962    3.1645   19.1130 C.3     1  UNL1        0.1533
      7 C          -1.9197    3.6915   19.5828 C.3     1  UNL1        0.1198
      8 C          -6.2905    5.2180   22.2698 C.3     1  UNL1        0.0366
      9 C          -6.5293    4.0530   21.3557 C.3     1  UNL1        0.0060
     10 C          -5.7673    3.9411   20.0685 C.3     1  UNL1        0.0094
     11 C          -4.7666    4.9943   19.6954 C.3     1  UNL1        0.0767
     12 C          -4.5279    6.1594   20.6094 C.3     1  UNL1        0.0094
     13 C          -5.2898    6.2712   21.8966 C.3     1  UNL1        0.0060
     14 O          -6.4027    5.9421   24.7624 O.co2   1  UNL1       -0.5492
     15 C          -7.0525    5.3299   23.5570 C.2     1  UNL1        0.0500
     16 O          -8.4641    4.8295   23.6388 O.co2   1  UNL1       -0.5492
     17 C           0.7672    2.5621   18.9450 C.ar    1  UNL1       -0.0005
     18 C           1.9868    3.3499   19.3218 C.ar    1  UNL1       -0.0029
     19 C           3.3502    2.7475   19.1537 C.ar    1  UNL1       -0.0015
     20 C           3.4940    1.3574   18.6089 C.ar    1  UNL1        0.0235
     21 C           2.2744    0.5696   18.2321 C.ar    1  UNL1       -0.0015
     22 C           0.9110    1.1720   18.4001 C.ar    1  UNL1       -0.0029
     23 C           4.8575    0.7550   18.4408 C.3     1  UNL1        0.3242
     24 F           5.2235    1.8507   17.4840 F       1  UNL1       -0.2176
     25 C           6.2209    0.1527   18.2728 C.3     1  UNL1        0.4363
     26 F           7.5843   -0.4496   18.1047 F       1  UNL1       -0.1666
     27 F           5.9075   -0.1564   16.8388 F       1  UNL1       -0.1666
     28 F           6.5027    0.2906   19.1011 F       1  UNL1       -0.1666
     29 C           4.4913   -0.3406   19.3976 C.3     1  UNL1        0.4363
     30 F           4.1252   -1.4361   20.3545 F       1  UNL1       -0.1666
     31 F           4.4447    0.1626   20.1251 F       1  UNL1       -0.1666
     32 F           4.4363   -1.5691   18.5388 F       1  UNL1       -0.1666
     33 S          -0.4053    2.8038   20.5564 S.O2    1  UNL1        0.0106
     34 O          -0.5894    1.4667   20.5861 O.2     1  UNL1       -0.1684
     35 O          -0.1468    4.2450   20.8824 O.2     1  UNL1       -0.1684
     36 C          -0.2143    2.4431   21.9997 C.ar    1  UNL1        0.1061
     37 C          -0.9535    3.1968   23.0653 C.ar    1  UNL1        0.0207
     38 C          -0.7626    2.8360   24.5087 C.ar    1  UNL1        0.0310
     39 C           0.1675    1.7215   24.8866 C.ar    1  UNL1        0.1402
     40 F           0.3584    1.3607   26.3300 F       1  UNL1       -0.2042
     41 C           0.9067    0.9677   23.8210 C.ar    1  UNL1        0.0310
     42 C           0.7158    1.3285   22.3777 C.ar    1  UNL1        0.0207
@<TRIPOS>UNITY_ATOM_ATTR
14 1
charge -1
@<TRIPOS>BOND
     1    14    15   ar
     2    15    16   ar
     3     8    15    1
     4     8     9    1
     5     9    10    1
     6    10    11    1
     7    11     1    1
     8     1     2    2
     9     1     3   am
    10     3     4    1
    11     4     5    1
    12     5     6    1
    13     6    17    1
    14    17    18   ar
    15    18    19   ar
    16    19    20   ar
    17    20    23    1
    18    23    24    1
    19    23    25    1
    20    25    26    1
    21    25    27    1
    22    25    28    1
    23    23    29    1
    24    29    30    1
    25    29    31    1
    26    29    32    1
    27    20    21   ar
    28    21    22   ar
    29     6    33    1
    30    33    34    2
    31    33    35    2
    32    33    36    1
    33    36    37   ar
    34    37    38   ar
    35    38    39   ar
    36    39    40    1
    37    39    41   ar
    38    41    42   ar
    39     6     7    1
    40    11    12    1
    41    12    13    1
    42    13     8    1
    43     7     3    1
    44    22    17   ar
    45    42    36   ar
@<TRIPOS>MOLECULE
*****
 42 45 0 0 0
SMALL
GASTEIGER

@<TRIPOS>ATOM
      1 C           3.4366    0.8579   33.4584 C.2     1  UNL1        0.2252
      2 O           3.1537    1.3575   34.8441 O.2     1  UNL1       -0.2749
      3 N           2.5453    1.2583   32.3203 N.am    1  UNL1       -0.2774
      4 C           1.3407    2.1472   32.4143 C.3     1  UNL1        0.0956
      5 C           0.7529    2.2783   31.0404 C.3     1  UNL1        0.0497
      6 C           1.5943    1.4703   30.0973 C.3     1  UNL1        0.1533
      7 C           2.7019    0.8399   30.8883 C.3     1  UNL1        0.1198
      8 C           6.9593   -1.8417   32.7153 C.3     1  UNL1        0.0366
      9 C           7.1523   -0.3553   32.7720 C.3     1  UNL1        0.0060
     10 C           5.9781    0.5446   33.0197 C.3     1  UNL1        0.0094
     11 C           4.6108   -0.0419   33.2107 C.3     1  UNL1        0.0767
     12 C           4.4178   -1.5284   33.1540 C.3     1  UNL1        0.0094
     13 C           5.5921   -2.4282   32.9063 C.3     1  UNL1        0.0060
     14 O           7.9869   -3.9370   31.5735 O.co2   1  UNL1       -0.5492
     15 C           8.1336   -2.7416   32.4676 C.2     1  UNL1        0.0500
     16 O           9.4545   -2.4461   33.1140 O.co2   1  UNL1       -0.5492
     17 C           0.6199    1.9529   29.0641 C.ar    1  UNL1       -0.0005
     18 C          -0.4630    1.0400   28.5702 C.ar    1  UNL1       -0.0029
     19 C          -1.4374    1.5226   27.5369 C.ar    1  UNL1       -0.0015
     20 C          -1.3290    2.9180   26.9976 C.ar    1  UNL1        0.0235
     21 C          -0.2461    3.8310   27.4915 C.ar    1  UNL1       -0.0015
     22 C           0.7283    3.3484   28.5248 C.ar    1  UNL1       -0.0029
     23 C          -2.3034    3.4006   25.9643 C.3     1  UNL1        0.3242
     24 F          -3.3532    3.5517   27.0250 F       1  UNL1       -0.2176
     25 C          -3.2779    3.8831   24.9311 C.3     1  UNL1        0.4363
     26 F          -4.2524    4.3657   23.8979 F       1  UNL1       -0.1666
     27 F          -3.3198    5.2261   25.5979 F       1  UNL1       -0.1666
     28 F          -3.3235    3.1307   24.4659 F       1  UNL1       -0.1666
     29 C          -1.2536    3.2494   24.9037 C.3     1  UNL1        0.4363
     30 F          -0.2038    3.0982   23.8431 F       1  UNL1       -0.1666
     31 F          -1.2115    2.3648   24.9188 F       1  UNL1       -0.1666
     32 F          -0.9442    4.6593   24.4957 F       1  UNL1       -0.1666
     33 S           2.2319    0.7632   28.9383 S.O2    1  UNL1        0.0106
     34 O           2.8454    1.7501   28.2510 O.2     1  UNL1       -0.1684
     35 O           1.6883   -0.5432   29.4362 O.2     1  UNL1       -0.1684
     36 C           2.8695    0.0562   27.7792 C.ar    1  UNL1        0.1061
     37 C           3.8016   -1.0936   28.0228 C.ar    1  UNL1        0.0207
     38 C           4.4392   -1.8006   26.8637 C.ar    1  UNL1        0.0310
     39 C           4.1449   -1.3580   25.4611 C.ar    1  UNL1        0.1402
     40 F           4.7825   -2.0650   24.3020 F       1  UNL1       -0.2042
     41 C           3.2128   -0.2082   25.2175 C.ar    1  UNL1        0.0310
     42 C           2.5751    0.4989   26.3765 C.ar    1  UNL1        0.0207
@<TRIPOS>UNITY_ATOM_ATTR
14 1
charge -1
@<TRIPOS>BOND
     1    14    15   ar
     2    15    16   ar
     3     8    15    1
     4     8     9    1
     5     9    10    1
     6    10    11    1
     7    11     1    1
     8     1     2    2
     9     1     3   am
    10     3     4    1
    11     4     5    1
    12     5     6    1
    13     6    17    1
    14    17    18   ar
    15    18    19   ar
    16    19    20   ar
    17    20    23    1
    18    23    24    1
    19    23    25    1
    20    25    26    1
    21    25    27    1
    22    25    28    1
    23    23    29    1
    24    29    30    1
    25    29    31    1
    26    29    32    1
    27    20    21   ar
    28    21    22   ar
    29     6    33    1
    30    33    34    2
    31    33    35    2
    32    33    36    1
    33    36    37   ar
    34    37    38   ar
    35    38    39   ar
    36    39    40    1
    37    39    41   ar
    38    41    42   ar
    39     6     7    1
    40    11    12    1
    41    12    13    1
    42    13     8    1
    43     7     3    1
    44    22    17   ar
    45    42    36   ar
@<TRIPOS>MOLECULE
*****
 42 45 0 0 0
SMALL
GASTEIGER

@<TRIPOS>ATOM
      1 C          -4.8792  -15.9971   24.2291 C.2     1  UNL1        0.2252
      2 O          -4.3645  -15.1142   25.3270 O.2     1  UNL1       -0.2749
      3 N          -6.3361  -16.3494   24.1708 N.am    1  UNL1       -0.2774
      4 C          -7.3921  -15.8962   25.1350 C.3     1  UNL1        0.0956
      5 C          -8.7015  -16.4835   24.6981 C.3     1  UNL1        0.0497
      6 C          -8.4547  -17.2997   23.4640 C.3     1  UNL1        0.1533
      7 C          -6.9929  -17.2168   23.1381 C.3     1  UNL1        0.1198
      8 C          -2.0528  -17.5890   21.1102 C.3     1  UNL1        0.0366
      9 C          -2.9329  -18.5319   21.8760 C.3     1  UNL1        0.0060
     10 C          -3.8751  -18.0012   22.9157 C.3     1  UNL1        0.0094
     11 C          -3.9371  -16.5278   23.1895 C.3     1  UNL1        0.0767
     12 C          -3.0570  -15.5849   22.4237 C.3     1  UNL1        0.0094
     13 C          -2.1149  -16.1156   21.3840 C.3     1  UNL1        0.0060
     14 O          -1.6220  -18.4727   18.7054 O.co2   1  UNL1       -0.5492
     15 C          -1.1107  -18.1197   20.0706 C.2     1  UNL1        0.0500
     16 O           0.3427  -18.2973   20.3963 O.co2   1  UNL1       -0.5492
     17 C          -9.9293  -17.5648   23.5350 C.ar    1  UNL1       -0.0005
     18 C         -10.4515  -18.6709   24.4032 C.ar    1  UNL1       -0.0029
     19 C         -11.9262  -18.9359   24.4743 C.ar    1  UNL1       -0.0015
     20 C         -12.8786  -18.0949   23.6772 C.ar    1  UNL1        0.0235
     21 C         -12.3565  -16.9887   22.8089 C.ar    1  UNL1       -0.0015
     22 C         -10.8818  -16.7237   22.7379 C.ar    1  UNL1       -0.0029
     23 C         -14.3534  -18.3600   23.7482 C.3     1  UNL1        0.3242
     24 F         -14.4009  -18.4954   22.2551 F       1  UNL1       -0.2176
     25 C         -15.8280  -18.6251   23.8193 C.3     1  UNL1        0.4363
     26 F         -17.3027  -18.8902   23.8903 F       1  UNL1       -0.1666
     27 F         -15.8490  -18.9035   22.3455 F       1  UNL1       -0.1666
     28 F         -15.9219  -18.4811   24.6882 F       1  UNL1       -0.1666
     29 C         -14.3057  -18.2246   25.2413 C.3     1  UNL1        0.4363
     30 F         -14.2580  -18.0892   26.7344 F       1  UNL1       -0.1666
     31 F         -13.8192  -17.4849   25.2671 F       1  UNL1       -0.1666
     32 F         -15.0939  -19.4003   25.7377 F       1  UNL1       -0.1666
     33 S          -8.5161  -18.1712   22.2448 S.O2    1  UNL1        0.0106
     34 O          -8.7132  -19.4118   22.7396 O.2     1  UNL1       -0.1684
     35 O          -8.3058  -16.9681   21.3740 O.2     1  UNL1       -0.1684
     36 C          -8.5776  -19.0428   21.0256 C.ar    1  UNL1        0.1061
     37 C          -7.3548  -19.7824   20.5699 C.ar    1  UNL1        0.0207
     38 C          -7.4162  -20.6540   19.3506 C.ar    1  UNL1        0.0310
     39 C          -8.7005  -20.7861   18.5871 C.ar    1  UNL1        0.1402
     40 F          -8.7620  -21.6577   17.3679 F       1  UNL1       -0.2042
     41 C          -9.9235  -20.0466   19.0427 C.ar    1  UNL1        0.0310
     42 C          -9.8620  -19.1749   20.2619 C.ar    1  UNL1        0.0207
@<TRIPOS>UNITY_ATOM_ATTR
14 1
charge -1
@<TRIPOS>BOND
     1    14    15   ar
     2    15    16   ar
     3     8    15    1
     4     8     9    1
     5     9    10    1
     6    10    11    1
     7    11     1    1
     8     1     2    2
     9     1     3   am
    10     3     4    1
    11     4     5    1
    12     5     6    1
    13     6    17    1
    14    17    18   ar
    15    18    19   ar
    16    19    20   ar
    17    20    23    1
    18    23    24    1
    19    23    25    1
    20    25    26    1
    21    25    27    1
    22    25    28    1
    23    23    29    1
    24    29    30    1
    25    29    31    1
    26    29    32    1
    27    20    21   ar
    28    21    22   ar
    29     6    33    1
    30    33    34    2
    31    33    35    2
    32    33    36    1
    33    36    37   ar
    34    37    38   ar
    35    38    39   ar
    36    39    40    1
    37    39    41   ar
    38    41    42   ar
    39     6     7    1
    40    11    12    1
    41    12    13    1
    42    13     8    1
    43     7     3    1
    44    22    17   ar
    45    42    36   ar
@<TRIPOS>MOLECULE
*****
 42 45 0 0 0
SMALL
GASTEIGER

@<TRIPOS>ATOM
      1 C           8.3863   -5.7945   23.4341 C.2     1  UNL1        0.2252
      2 O           9.2440   -6.6873   22.5872 O.2     1  UNL1       -0.2749
      3 N           7.5523   -4.7262   22.7915 N.am    1  UNL1       -0.2774
      4 C           7.4736   -4.4333   21.3224 C.3     1  UNL1        0.0956
      5 C           6.5231   -3.2892   21.1280 C.3     1  UNL1        0.0497
      6 C           6.0143   -2.8750   22.4770 C.3     1  UNL1        0.1533
      7 C           6.6503   -3.7631   23.5050 C.3     1  UNL1        0.1198
      8 C           8.3155   -6.3210   27.9026 C.3     1  UNL1        0.0366
      9 C           7.6040   -7.3034   27.0203 C.3     1  UNL1        0.0060
     10 C           7.6276   -7.1279   25.5308 C.3     1  UNL1        0.0094
     11 C           8.3627   -5.9700   24.9236 C.3     1  UNL1        0.0767
     12 C           9.0742   -4.9875   25.8059 C.3     1  UNL1        0.0094
     13 C           9.0506   -5.1630   27.2954 C.3     1  UNL1        0.0060
     14 O           9.4319   -7.1825   30.0847 O.co2   1  UNL1       -0.5492
     15 C           8.2919   -6.4964   29.3921 C.2     1  UNL1        0.0500
     16 O           7.1282   -5.9859   30.1891 O.co2   1  UNL1       -0.5492
     17 C           5.2380   -1.8559   21.6969 C.ar    1  UNL1       -0.0005
     18 C           5.7493   -0.4504   21.5821 C.ar    1  UNL1       -0.0029
     19 C           4.9730    0.5688   20.8020 C.ar    1  UNL1       -0.0015
     20 C           3.6854    0.1825   20.1367 C.ar    1  UNL1        0.0235
     21 C           3.1740   -1.2230   20.2514 C.ar    1  UNL1       -0.0015
     22 C           3.9503   -2.2421   21.0315 C.ar    1  UNL1       -0.0029
     23 C           2.9091    1.2018   19.3565 C.3     1  UNL1        0.3242
     24 F           2.7146    2.0094   20.6054 F       1  UNL1       -0.2176
     25 C           2.1329    2.2210   18.5764 C.3     1  UNL1        0.4363
     26 F           1.3566    3.2403   17.7963 F       1  UNL1       -0.1666
     27 F           0.8585    1.7178   19.1870 F       1  UNL1       -0.1666
     28 F           2.8239    2.5893   18.1624 F       1  UNL1       -0.1666
     29 C           3.1037    0.3941   18.1077 C.3     1  UNL1        0.4363
     30 F           3.2983   -0.4137   16.8588 F       1  UNL1       -0.1666
     31 F           2.2677    0.1119   18.0303 F       1  UNL1       -0.1666
     32 F           4.5580    0.5696   17.7848 F       1  UNL1       -0.1666
     33 S           5.3432   -2.2479   23.6628 S.O2    1  UNL1        0.0106
     34 O           4.0716   -2.6959   23.5934 O.2     1  UNL1       -0.1684
     35 O           6.6320   -1.5784   24.0381 O.2     1  UNL1       -0.1684
     36 C           4.6721   -1.6207   24.8487 C.ar    1  UNL1        0.1061
     37 C           3.4838   -0.7267   24.6520 C.ar    1  UNL1        0.0207
     38 C           2.8127   -0.0995   25.8378 C.ar    1  UNL1        0.0310
     39 C           3.3297   -0.3663   27.2204 C.ar    1  UNL1        0.1402
     40 F           2.6586    0.2608   28.4062 F       1  UNL1       -0.2042
     41 C           4.5180   -1.2604   27.4171 C.ar    1  UNL1        0.0310
     42 C           5.1891   -1.8876   26.2313 C.ar    1  UNL1        0.0207
@<TRIPOS>UNITY_ATOM_ATTR
14 1
charge -1
@<TRIPOS>BOND
     1    14    15   ar
     2    15    16   ar
     3     8    15    1
     4     8     9    1
     5     9    10    1
     6    10    11    1
     7    11     1    1
     8     1     2    2
     9     1     3   am
    10     3     4    1
    11     4     5    1
    12     5     6    1
    13     6    17    1
    14    17    18   ar
    15    18    19   ar
    16    19    20   ar
    17    20    23    1
    18    23    24    1
    19    23    25    1
    20    25    26    1
    21    25    27    1
    22    25    28    1
    23    23    29    1
    24    29    30    1
    25    29    31    1
    26    29    32    1
    27    20    21   ar
    28    21    22   ar
    29     6    33    1
    30    33    34    2
    31    33    35    2
    32    33    36    1
    33    36    37   ar
    34    37    38   ar
    35    38    39   ar
    36    39    40    1
    37    39    41   ar
    38    41    42   ar
    39     6     7    1
    40    11    12    1
    41    12    13    1
    42    13     8    1
    43     7     3    1
    44    22    17   ar
    45    42    36   ar
@<TRIPOS>MOLECULE
*****
 42 45 0 0 0
SMALL
GASTEIGER

@<TRIPOS>ATOM
      1 C          -1.4114    2.8646   25.6497 C.2     1  UNL1        0.2252
      2 O          -1.3270    2.5264   27.1086 O.2     1  UNL1       -0.2749
      3 N          -0.4560    2.2377   24.6780 N.am    1  UNL1       -0.2774
      4 C           0.6307    1.2604   25.0160 C.3     1  UNL1        0.0956
      5 C           1.3388    0.8967   23.7446 C.3     1  UNL1        0.0497
      6 C           0.6898    1.6492   22.6209 C.3     1  UNL1        0.1533
      7 C          -0.4194    2.4779   23.1978 C.3     1  UNL1        0.1198
      8 C          -4.5307    5.7599   24.1878 C.3     1  UNL1        0.0366
      9 C          -4.8022    4.2851   24.1548 C.3     1  UNL1        0.0060
     10 C          -3.7624    3.3200   24.6420 C.3     1  UNL1        0.0094
     11 C          -2.4512    3.8297   25.1624 C.3     1  UNL1        0.0767
     12 C          -2.1797    5.3045   25.1955 C.3     1  UNL1        0.0094
     13 C          -3.2195    6.2697   24.7082 C.3     1  UNL1        0.0060
     14 O          -5.4469    7.3347   22.3357 O.co2   1  UNL1       -0.5492
     15 C          -5.5705    6.7251   23.7006 C.2     1  UNL1        0.0500
     16 O          -6.7338    7.0805   24.5782 O.co2   1  UNL1       -0.5492
     17 C           1.7078    0.9470   21.7720 C.ar    1  UNL1       -0.0005
     18 C           3.0977    1.4991   21.6571 C.ar    1  UNL1       -0.0029
     19 C           4.1158    0.7970   20.8082 C.ar    1  UNL1       -0.0015
     20 C           3.7439   -0.4572   20.0744 C.ar    1  UNL1        0.0235
     21 C           2.3539   -1.0094   20.1893 C.ar    1  UNL1       -0.0015
     22 C           1.3359   -0.3072   21.0381 C.ar    1  UNL1       -0.0029
     23 C           4.7620   -1.1594   19.2255 C.3     1  UNL1        0.3242
     24 F           5.5937   -1.4273   20.4447 F       1  UNL1       -0.2176
     25 C           5.7801   -1.8615   18.3767 C.3     1  UNL1        0.4363
     26 F           6.7982   -2.5636   17.5279 F       1  UNL1       -0.1666
     27 F           5.3925   -3.1717   18.9955 F       1  UNL1       -0.1666
     28 F           6.0806   -1.1441   17.9529 F       1  UNL1       -0.1666
     29 C           3.9303   -0.8914   18.0064 C.3     1  UNL1        0.4363
     30 F           3.0985   -0.6235   16.7872 F       1  UNL1       -0.1666
     31 F           3.6922   -1.7304   17.8516 F       1  UNL1       -0.1666
     32 F           4.0242    0.5943   17.8222 F       1  UNL1       -0.1666
     33 S           0.2536    2.2549   21.3199 S.O2    1  UNL1        0.0106
     34 O          -0.5632    1.3233   20.7834 O.2     1  UNL1       -0.1684
     35 O           1.0800    3.4727   21.6096 O.2     1  UNL1       -0.1684
     36 C          -0.1827    2.8605   20.0188 C.ar    1  UNL1        0.1061
     37 C           0.7107    2.7791   18.8166 C.ar    1  UNL1        0.0207
     38 C           0.2745    3.3847   17.5155 C.ar    1  UNL1        0.0310
     39 C          -1.0552    4.0718   17.4165 C.ar    1  UNL1        0.1402
     40 F          -1.4915    4.6774   16.1154 F       1  UNL1       -0.2042
     41 C          -1.9487    4.1533   18.6186 C.ar    1  UNL1        0.0310
     42 C          -1.5124    3.5476   19.9197 C.ar    1  UNL1        0.0207
@<TRIPOS>UNITY_ATOM_ATTR
14 1
charge -1
@<TRIPOS>BOND
     1    14    15   ar
     2    15    16   ar
     3     8    15    1
     4     8     9    1
     5     9    10    1
     6    10    11    1
     7    11     1    1
     8     1     2    2
     9     1     3   am
    10     3     4    1
    11     4     5    1
    12     5     6    1
    13     6    17    1
    14    17    18   ar
    15    18    19   ar
    16    19    20   ar
    17    20    23    1
    18    23    24    1
    19    23    25    1
    20    25    26    1
    21    25    27    1
    22    25    28    1
    23    23    29    1
    24    29    30    1
    25    29    31    1
    26    29    32    1
    27    20    21   ar
    28    21    22   ar
    29     6    33    1
    30    33    34    2
    31    33    35    2
    32    33    36    1
    33    36    37   ar
    34    37    38   ar
    35    38    39   ar
    36    39    40    1
    37    39    41   ar
    38    41    42   ar
    39     6     7    1
    40    11    12    1
    41    12    13    1
    42    13     8    1
    43     7     3    1
    44    22    17   ar
    45    42    36   ar
@<TRIPOS>MOLECULE
*****
 42 45 0 0 0
SMALL
GASTEIGER

@<TRIPOS>ATOM
      1 C           4.3781    2.4749   37.7619 C.2     1  UNL1        0.2252
      2 O           4.9782    2.4328   39.1359 O.2     1  UNL1       -0.2749
      3 N           4.7681    1.4471   36.7413 N.am    1  UNL1       -0.2774
      4 C           5.7402    0.3236   36.9484 C.3     1  UNL1        0.0956
      5 C           5.8274   -0.4555   35.6694 C.3     1  UNL1        0.0497
      6 C           4.9092    0.1866   34.6720 C.3     1  UNL1        0.1533
      7 C           4.2545    1.3624   35.3345 C.3     1  UNL1        0.1198
      8 C           1.4076    5.6845   36.7015 C.3     1  UNL1        0.0366
      9 C           0.9478    4.4368   37.3955 C.3     1  UNL1        0.0060
     10 C           1.9380    3.3669   37.7489 C.3     1  UNL1        0.0094
     11 C           3.3879    3.5448   37.4084 C.3     1  UNL1        0.0767
     12 C           3.8477    4.7925   36.7144 C.3     1  UNL1        0.0094
     13 C           2.8575    5.8624   36.3610 C.3     1  UNL1        0.0060
     14 O          -0.8659    6.8718   37.1156 O.co2   1  UNL1       -0.5492
     15 C           0.4174    6.7544   36.3480 C.2     1  UNL1        0.0500
     16 O           0.7106    7.7068   35.2269 O.co2   1  UNL1       -0.5492
     17 C           5.3931   -0.9027   33.7613 C.ar    1  UNL1       -0.0005
     18 C           6.6151   -0.6879   32.9185 C.ar    1  UNL1       -0.0029
     19 C           7.0990   -1.7771   32.0078 C.ar    1  UNL1       -0.0015
     20 C           6.3608   -3.0811   31.9399 C.ar    1  UNL1        0.0235
     21 C           5.1387   -3.2960   32.7828 C.ar    1  UNL1       -0.0015
     22 C           4.6549   -2.2067   33.6935 C.ar    1  UNL1       -0.0029
     23 C           6.8448   -4.1703   31.0291 C.3     1  UNL1        0.3242
     24 F           6.8852   -5.1215   32.1883 F       1  UNL1       -0.2176
     25 C           7.3287   -5.2596   30.1184 C.3     1  UNL1        0.4363
     26 F           7.8126   -6.3488   29.2078 F       1  UNL1       -0.1666
     27 F           8.6543   -5.2576   30.8205 F       1  UNL1       -0.1666
     28 F           6.5866   -5.3391   29.6414 F       1  UNL1       -0.1666
     29 C           6.8044   -3.2191   29.8701 C.3     1  UNL1        0.4363
     30 F           6.7639   -2.2679   28.7110 F       1  UNL1       -0.1666
     31 F           5.9242   -3.1255   29.8379 F       1  UNL1       -0.1666
     32 F           8.2469   -3.0305   29.5048 F       1  UNL1       -0.1666
     33 S           4.0922    0.6009   33.4843 S.O2    1  UNL1        0.0106
     34 O           3.2283   -0.4218   33.3092 O.2     1  UNL1       -0.1684
     35 O           4.8775    1.8753   33.3886 O.2     1  UNL1       -0.1684
     36 C           3.2751    1.0152   32.2966 C.ar    1  UNL1        0.1061
     37 C           3.7703    0.7307   30.9095 C.ar    1  UNL1        0.0207
     38 C           2.9532    1.1450   29.7218 C.ar    1  UNL1        0.0310
     39 C           1.6410    1.8437   29.9210 C.ar    1  UNL1        0.1402
     40 F           0.8239    2.2580   28.7333 F       1  UNL1       -0.2042
     41 C           1.1457    2.1282   31.3080 C.ar    1  UNL1        0.0310
     42 C           1.9628    1.7139   32.4958 C.ar    1  UNL1        0.0207
@<TRIPOS>UNITY_ATOM_ATTR
14 1
charge -1
@<TRIPOS>BOND
     1    14    15   ar
     2    15    16   ar
     3     8    15    1
     4     8     9    1
     5     9    10    1
     6    10    11    1
     7    11     1    1
     8     1     2    2
     9     1     3   am
    10     3     4    1
    11     4     5    1
    12     5     6    1
    13     6    17    1
    14    17    18   ar
    15    18    19   ar
    16    19    20   ar
    17    20    23    1
    18    23    24    1
    19    23    25    1
    20    25    26    1
    21    25    27    1
    22    25    28    1
    23    23    29    1
    24    29    30    1
    25    29    31    1
    26    29    32    1
    27    20    21   ar
    28    21    22   ar
    29     6    33    1
    30    33    34    2
    31    33    35    2
    32    33    36    1
    33    36    37   ar
    34    37    38   ar
    35    38    39   ar
    36    39    40    1
    37    39    41   ar
    38    41    42   ar
    39     6     7    1
    40    11    12    1
    41    12    13    1
    42    13     8    1
    43     7     3    1
    44    22    17   ar
    45    42    36   ar
@<TRIPOS>MOLECULE
*****
 42 45 0 0 0
SMALL
GASTEIGER

@<TRIPOS>ATOM
      1 C           5.3944   -0.7091   33.1329 C.2     1  UNL1        0.2252
      2 O           6.3060   -1.8683   32.8585 O.2     1  UNL1       -0.2749
      3 N           4.4519   -0.2283   32.0697 N.am    1  UNL1       -0.2774
      4 C           4.3093   -0.8038   30.6918 C.3     1  UNL1        0.0956
      5 C           3.2557   -0.0186   29.9682 C.3     1  UNL1        0.0497
      6 C           2.7472    1.0422   30.8989 C.3     1  UNL1        0.1533
      7 C           3.4864    0.9127   32.1976 C.3     1  UNL1        0.1198
      8 C           5.4869    1.3256   37.1455 C.3     1  UNL1        0.0366
      9 C           6.3075    1.8653   36.0118 C.3     1  UNL1        0.0060
     10 C           6.2767    1.1870   34.6743 C.3     1  UNL1        0.0094
     11 C           5.4252   -0.0309   34.4704 C.3     1  UNL1        0.0767
     12 C           4.6047   -0.5706   35.6041 C.3     1  UNL1        0.0094
     13 C           4.6355    0.1076   36.9417 C.3     1  UNL1        0.0060
     14 O           4.2856    2.0328   39.3379 O.co2   1  UNL1       -0.5492
     15 C           5.5178    2.0038   38.4831 C.2     1  UNL1        0.0500
     16 O           6.7809    2.6530   38.9658 O.co2   1  UNL1       -0.5492
     17 C           1.8630    1.4096   29.7442 C.ar    1  UNL1       -0.0005
     18 C           0.5733    0.6760   29.5242 C.ar    1  UNL1       -0.0029
     19 C          -0.3109    1.0433   28.3695 C.ar    1  UNL1       -0.0015
     20 C           0.0946    2.1442   27.4349 C.ar    1  UNL1        0.0235
     21 C           1.3844    2.8778   27.6549 C.ar    1  UNL1       -0.0015
     22 C           2.2686    2.5105   28.8096 C.ar    1  UNL1       -0.0029
     23 C          -0.7896    2.5115   26.2802 C.3     1  UNL1        0.3242
     24 F          -0.5962    1.1432   25.6969 F       1  UNL1       -0.2176
     25 C          -1.6738    2.8788   25.1255 C.3     1  UNL1        0.4363
     26 F          -2.5580    3.2460   23.9709 F       1  UNL1       -0.1666
     27 F          -0.5297    2.6614   24.1802 F       1  UNL1       -0.1666
     28 F          -2.4081    3.0326   25.5965 F       1  UNL1       -0.1666
     29 C          -0.9830    3.8798   26.8636 C.3     1  UNL1        0.4363
     30 F          -1.1764    5.2480   27.4471 F       1  UNL1       -0.1666
     31 F          -1.4353    3.6278   27.5822 F       1  UNL1       -0.1666
     32 F          -0.3040    4.7911   25.8846 F       1  UNL1       -0.1666
     33 S           2.0539    2.1798   31.5881 S.O2    1  UNL1        0.0106
     34 O           0.8499    1.6715   31.9268 O.2     1  UNL1       -0.1684
     35 O           3.2596    3.0455   31.3722 O.2     1  UNL1       -0.1684
     36 C           1.3605    3.3173   32.2774 C.ar    1  UNL1        0.1061
     37 C           1.7227    3.6716   33.6893 C.ar    1  UNL1        0.0207
     38 C           1.0293    4.8091   34.3786 C.ar    1  UNL1        0.0310
     39 C          -0.0264    5.5925   33.6561 C.ar    1  UNL1        0.1402
     40 F          -0.7198    6.7300   34.3454 F       1  UNL1       -0.2042
     41 C          -0.3886    5.2383   32.2442 C.ar    1  UNL1        0.0310
     42 C           0.3048    4.1007   31.5549 C.ar    1  UNL1        0.0207
@<TRIPOS>UNITY_ATOM_ATTR
14 1
charge -1
@<TRIPOS>BOND
     1    14    15   ar
     2    15    16   ar
     3     8    15    1
     4     8     9    1
     5     9    10    1
     6    10    11    1
     7    11     1    1
     8     1     2    2
     9     1     3   am
    10     3     4    1
    11     4     5    1
    12     5     6    1
    13     6    17    1
    14    17    18   ar
    15    18    19   ar
    16    19    20   ar
    17    20    23    1
    18    23    24    1
    19    23    25    1
    20    25    26    1
    21    25    27    1
    22    25    28    1
    23    23    29    1
    24    29    30    1
    25    29    31    1
    26    29    32    1
    27    20    21   ar
    28    21    22   ar
    29     6    33    1
    30    33    34    2
    31    33    35    2
    32    33    36    1
    33    36    37   ar
    34    37    38   ar
    35    38    39   ar
    36    39    40    1
    37    39    41   ar
    38    41    42   ar
    39     6     7    1
    40    11    12    1
    41    12    13    1
    42    13     8    1
    43     7     3    1
    44    22    17   ar
    45    42    36   ar
@<TRIPOS>MOLECULE
*****
 42 45 0 0 0
SMALL
GASTEIGER

@<TRIPOS>ATOM
      1 C           7.7806   -4.0193   28.3652 C.2     1  UNL1        0.2252
      2 O           8.9184   -4.9809   28.5396 O.2     1  UNL1       -0.2749
      3 N           7.3225   -3.6413   26.9878 N.am    1  UNL1       -0.2774
      4 C           7.9022   -4.1411   25.6977 C.3     1  UNL1        0.0956
      5 C           7.1422   -3.5058   24.5712 C.3     1  UNL1        0.0497
      6 C           6.0928   -2.6135   25.1650 C.3     1  UNL1        0.1533
      7 C           6.2042   -2.6973   26.6585 C.3     1  UNL1        0.1198
      8 C           5.7414   -2.2679   31.9742 C.3     1  UNL1        0.0366
      9 C           6.2291   -3.6861   32.0027 C.3     1  UNL1        0.0060
     10 C           6.9088   -4.2699   30.7998 C.3     1  UNL1        0.0094
     11 C           7.1009   -3.4355   29.5682 C.3     1  UNL1        0.0767
     12 C           6.6132   -2.0173   29.5396 C.3     1  UNL1        0.0094
     13 C           5.9334   -1.4335   30.7426 C.3     1  UNL1        0.0060
     14 O           3.9114   -2.4069   33.8131 O.co2   1  UNL1       -0.5492
     15 C           5.0617   -1.6842   33.1771 C.2     1  UNL1        0.0500
     16 O           5.5322   -0.3777   33.7442 O.co2   1  UNL1       -0.5492
     17 C           5.7469   -2.3310   23.7331 C.ar    1  UNL1       -0.0005
     18 C           4.9912   -3.3473   22.9295 C.ar    1  UNL1       -0.0029
     19 C           4.6453   -3.0647   21.4975 C.ar    1  UNL1       -0.0015
     20 C           5.0552   -1.7659   20.8692 C.ar    1  UNL1        0.0235
     21 C           5.8109   -0.7494   21.6728 C.ar    1  UNL1       -0.0015
     22 C           6.1568   -1.0320   23.1047 C.ar    1  UNL1       -0.0029
     23 C           4.7092   -1.4833   19.4372 C.3     1  UNL1        0.3242
     24 F           6.1687   -1.3942   19.1023 F       1  UNL1       -0.2176
     25 C           4.3634   -1.2008   18.0052 C.3     1  UNL1        0.4363
     26 F           4.0175   -0.9183   16.5733 F       1  UNL1       -0.1666
     27 F           5.0251   -2.4821   17.5926 F       1  UNL1       -0.1666
     28 F           3.9507   -0.4294   18.1440 F       1  UNL1       -0.1666
     29 C           3.2499   -1.5725   19.7721 C.3     1  UNL1        0.4363
     30 F           1.7905   -1.6615   20.1071 F       1  UNL1       -0.1666
     31 F           3.1870   -0.7934   20.1888 F       1  UNL1       -0.1666
     32 F           2.8270   -2.8944   19.2034 F       1  UNL1       -0.1666
     33 S           4.9712   -1.6622   25.4596 S.O2    1  UNL1        0.0106
     34 O           3.9111   -2.1986   24.8184 O.2     1  UNL1       -0.1684
     35 O           5.9054   -0.8108   26.2672 O.2     1  UNL1       -0.1684
     36 C           3.8495   -0.7109   25.7540 C.ar    1  UNL1        0.1061
     37 C           3.0162   -0.1639   24.6331 C.ar    1  UNL1        0.0207
     38 C           1.8945    0.7874   24.9276 C.ar    1  UNL1        0.0310
     39 C           1.6060    1.1918   26.3430 C.ar    1  UNL1        0.1402
     40 F           0.4843    2.1431   26.6375 F       1  UNL1       -0.2042
     41 C           2.4392    0.6448   27.4640 C.ar    1  UNL1        0.0310
     42 C           3.5609   -0.3065   27.1695 C.ar    1  UNL1        0.0207
@<TRIPOS>UNITY_ATOM_ATTR
14 1
charge -1
@<TRIPOS>BOND
     1    14    15   ar
     2    15    16   ar
     3     8    15    1
     4     8     9    1
     5     9    10    1
     6    10    11    1
     7    11     1    1
     8     1     2    2
     9     1     3   am
    10     3     4    1
    11     4     5    1
    12     5     6    1
    13     6    17    1
    14    17    18   ar
    15    18    19   ar
    16    19    20   ar
    17    20    23    1
    18    23    24    1
    19    23    25    1
    20    25    26    1
    21    25    27    1
    22    25    28    1
    23    23    29    1
    24    29    30    1
    25    29    31    1
    26    29    32    1
    27    20    21   ar
    28    21    22   ar
    29     6    33    1
    30    33    34    2
    31    33    35    2
    32    33    36    1
    33    36    37   ar
    34    37    38   ar
    35    38    39   ar
    36    39    40    1
    37    39    41   ar
    38    41    42   ar
    39     6     7    1
    40    11    12    1
    41    12    13    1
    42    13     8    1
    43     7     3    1
    44    22    17   ar
    45    42    36   ar
