@<TRIPOS>MOLECULE
*****
 18 20 0 0 0
SMALL
GASTEIGER

@<TRIPOS>ATOM
      1 O          -7.8817  -15.4960   22.4177 O.3     1  UNL1       -0.4369
      2 C          -8.4104  -16.7540   21.7948 C.2     1  UNL1        0.2150
      3 N          -7.4595  -17.8089   21.3123 N.2     1  UNL1       -0.2130
      4 C          -7.9881  -19.0669   20.6894 C.2     1  UNL1        0.1030
      5 C          -9.4677  -19.2699   20.5490 C.2     1  UNL1        0.0362
      6 C         -10.4186  -18.2150   21.0316 C.2     1  UNL1        0.0732
      7 N         -11.9165  -18.1360   21.0270 N.2     1  UNL1       -0.2476
      8 C         -12.3136  -16.8291   21.6470 C.2     1  UNL1        0.0948
      9 C         -11.0611  -16.1005   22.0349 C.2     1  UNL1        0.0093
     10 C          -9.8899  -16.9570   21.6545 C.3     1  UNL1        0.1400
     11 F          -6.5442  -15.3764   28.2656 F       1  UNL1       -0.2041
     12 C          -6.8786  -15.4063   26.8036 C.ar    1  UNL1        0.1426
     13 C          -8.3009  -15.5880   26.3631 C.ar    1  UNL1        0.0329
     14 C          -8.6353  -15.6179   24.9011 C.ar    1  UNL1        0.0422
     15 C          -7.5474  -15.4661   23.8797 C.ar    1  UNL1        0.1742
     16 C          -6.1250  -15.2844   24.3201 C.ar    1  UNL1        0.1767
     17 F          -5.0370  -15.1327   23.2987 F       1  UNL1       -0.2009
     18 C          -5.7906  -15.2545   25.7821 C.ar    1  UNL1        0.0624
@<TRIPOS>BOND
     1    11    12    1
     2    12    13   ar
     3    13    14   ar
     4    14    15   ar
     5    15     1    1
     6     1     2    1
     7     2     3    2
     8     3     4    1
     9     4     5    2
    10     5     6    1
    11     6     7    2
    12     7     8    1
    13     8     9    2
    14     9    10    1
    15    15    16   ar
    16    16    17    1
    17    16    18   ar
    18    18    12   ar
    19    10     2    1
    20    10     6    1
@<TRIPOS>MOLECULE
*****
 18 20 0 0 0
SMALL
GASTEIGER

@<TRIPOS>ATOM
      1 O         -10.1097  -16.1890   24.1761 O.3     1  UNL1       -0.4369
      2 C         -10.3569  -17.3786   23.2966 C.2     1  UNL1        0.2150
      3 N         -10.1511  -18.7640   23.8335 N.2     1  UNL1       -0.2130
      4 C         -10.3983  -19.9536   22.9540 C.2     1  UNL1        0.1030
      5 C         -10.8515  -19.7579   21.5375 C.2     1  UNL1        0.0362
      6 C         -11.0573  -18.3725   21.0006 C.2     1  UNL1        0.0732
      7 N         -11.4956  -17.8720   19.6562 N.2     1  UNL1       -0.2476
      8 C         -11.5192  -16.3730   19.7049 C.2     1  UNL1        0.0948
      9 C         -11.0955  -15.9471   21.0793 C.2     1  UNL1        0.0093
     10 C         -10.8101  -17.1829   21.8801 C.3     1  UNL1        0.1400
     11 F          -4.5665  -15.0200   26.1530 F       1  UNL1       -0.2041
     12 C          -5.9524  -15.3123   25.6588 C.ar    1  UNL1        0.1426
     13 C          -7.0372  -15.6649   26.6328 C.ar    1  UNL1        0.0329
     14 C          -8.4230  -15.9571   26.1386 C.ar    1  UNL1        0.0422
     15 C          -8.7239  -15.8967   24.6703 C.ar    1  UNL1        0.1742
     16 C          -7.6391  -15.5441   23.6962 C.ar    1  UNL1        0.1767
     17 F          -7.9399  -15.4838   22.2280 F       1  UNL1       -0.2009
     18 C          -6.2533  -15.2519   24.1904 C.ar    1  UNL1        0.0624
@<TRIPOS>BOND
     1    11    12    1
     2    12    13   ar
     3    13    14   ar
     4    14    15   ar
     5    15     1    1
     6     1     2    1
     7     2     3    2
     8     3     4    1
     9     4     5    2
    10     5     6    1
    11     6     7    2
    12     7     8    1
    13     8     9    2
    14     9    10    1
    15    15    16   ar
    16    16    17    1
    17    16    18   ar
    18    18    12   ar
    19    10     2    1
    20    10     6    1
@<TRIPOS>MOLECULE
*****
 18 20 0 0 0
SMALL
GASTEIGER

@<TRIPOS>ATOM
      1 O          -7.4846  -16.3340   22.4315 O.3     1  UNL1       -0.4369
      2 C          -8.8650  -16.6867   21.9624 C.2     1  UNL1        0.2150
      3 N          -9.6397  -15.7200   21.1167 N.2     1  UNL1       -0.2130
      4 C         -11.0200  -16.0727   20.6477 C.2     1  UNL1        0.1030
      5 C         -11.6258  -17.3923   21.0243 C.2     1  UNL1        0.0362
      6 C         -10.8511  -18.3591   21.8700 C.2     1  UNL1        0.0732
      7 N         -11.1850  -19.7235   22.3962 N.2     1  UNL1       -0.2476
      8 C         -10.0109  -20.2140   23.1904 C.2     1  UNL1        0.0948
      9 C          -8.9514  -19.1527   23.1552 C.2     1  UNL1        0.0093
     10 C          -9.4707  -18.0063   22.3390 C.3     1  UNL1        0.1400
     11 F          -6.5468  -14.8892   28.1790 F       1  UNL1       -0.2041
     12 C          -6.7813  -15.2504   26.7421 C.ar    1  UNL1        0.1426
     13 C          -8.1776  -15.4800   26.2447 C.ar    1  UNL1        0.0329
     14 C          -8.4121  -15.8412   24.8078 C.ar    1  UNL1        0.0422
     15 C          -7.2501  -15.9728   23.8683 C.ar    1  UNL1        0.1742
     16 C          -5.8537  -15.7432   24.3657 C.ar    1  UNL1        0.1767
     17 F          -4.6917  -15.8748   23.4263 F       1  UNL1       -0.2009
     18 C          -5.6193  -15.3820   25.8025 C.ar    1  UNL1        0.0624
@<TRIPOS>BOND
     1    11    12    1
     2    12    13   ar
     3    13    14   ar
     4    14    15   ar
     5    15     1    1
     6     1     2    1
     7     2     3    2
     8     3     4    1
     9     4     5    2
    10     5     6    1
    11     6     7    2
    12     7     8    1
    13     8     9    2
    14     9    10    1
    15    15    16   ar
    16    16    17    1
    17    16    18   ar
    18    18    12   ar
    19    10     2    1
    20    10     6    1
@<TRIPOS>MOLECULE
*****
 18 20 0 0 0
SMALL
GASTEIGER

@<TRIPOS>ATOM
      1 O          -4.4785  -15.7034   23.3466 O.3     1  UNL1       -0.4369
      2 C          -4.0856  -17.0358   22.7806 C.2     1  UNL1        0.2150
      3 N          -4.9364  -18.2428   23.0437 N.2     1  UNL1       -0.2130
      4 C          -4.5436  -19.5751   22.4777 C.2     1  UNL1        0.1030
      5 C          -3.2999  -19.7006   21.6485 C.2     1  UNL1        0.0362
      6 C          -2.4491  -18.4936   21.3854 C.2     1  UNL1        0.0732
      7 N          -1.1776  -18.3114   20.6107 N.2     1  UNL1       -0.2476
      8 C          -0.7847  -16.8664   20.6979 C.2     1  UNL1        0.0948
      9 C          -1.8133  -16.1555   21.5266 C.2     1  UNL1        0.0093
     10 C          -2.8420  -17.1612   21.9514 C.3     1  UNL1        0.1400
     11 F          -8.7403  -15.3713   27.5570 F       1  UNL1       -0.2041
     12 C          -7.6748  -15.4544   26.5044 C.ar    1  UNL1        0.1426
     13 C          -6.2359  -15.5965   26.9033 C.ar    1  UNL1        0.0329
     14 C          -5.1704  -15.6795   25.8508 C.ar    1  UNL1        0.0422
     15 C          -5.5439  -15.6204   24.3992 C.ar    1  UNL1        0.1742
     16 C          -6.9829  -15.4782   24.0002 C.ar    1  UNL1        0.1767
     17 F          -7.3565  -15.4191   22.5487 F       1  UNL1       -0.2009
     18 C          -8.0484  -15.3952   25.0528 C.ar    1  UNL1        0.0624
@<TRIPOS>BOND
     1    11    12    1
     2    12    13   ar
     3    13    14   ar
     4    14    15   ar
     5    15     1    1
     6     1     2    1
     7     2     3    2
     8     3     4    1
     9     4     5    2
    10     5     6    1
    11     6     7    2
    12     7     8    1
    13     8     9    2
    14     9    10    1
    15    15    16   ar
    16    16    17    1
    17    16    18   ar
    18    18    12   ar
    19    10     2    1
    20    10     6    1
@<TRIPOS>MOLECULE
*****
 18 20 0 0 0
SMALL
GASTEIGER

@<TRIPOS>ATOM
      1 O          -6.8813  -20.0083   22.3191 O.3     1  UNL1       -0.4369
      2 C          -7.8287  -18.8515   22.4382 C.2     1  UNL1        0.2150
      3 N          -7.5263  -17.5594   21.7389 N.2     1  UNL1       -0.2130
      4 C          -8.4737  -16.4026   21.8580 C.2     1  UNL1        0.1030
      5 C          -9.7236  -16.5379   22.6764 C.2     1  UNL1        0.0362
      6 C         -10.0260  -17.8300   23.3756 C.2     1  UNL1        0.0732
      7 N         -11.1711  -18.2563   24.2456 N.2     1  UNL1       -0.2476
      8 C         -10.9313  -19.6766   24.6643 C.2     1  UNL1        0.0948
      9 C          -9.6381  -20.1281   24.0530 C.2     1  UNL1        0.0093
     10 C          -9.0785  -18.9868   23.2565 C.3     1  UNL1        0.1400
     11 F          -1.3517  -19.1469   20.1553 F       1  UNL1       -0.2041
     12 C          -2.7341  -19.3622   20.6963 C.ar    1  UNL1        0.1426
     13 C          -3.1405  -18.7242   21.9915 C.ar    1  UNL1        0.0329
     14 C          -4.5229  -18.9395   22.5325 C.ar    1  UNL1        0.0422
     15 C          -5.4989  -19.7929   21.7782 C.ar    1  UNL1        0.1742
     16 C          -5.0926  -20.4311   20.4829 C.ar    1  UNL1        0.1767
     17 F          -6.0686  -21.2845   19.7285 F       1  UNL1       -0.2009
     18 C          -3.7102  -20.2157   19.9419 C.ar    1  UNL1        0.0624
@<TRIPOS>BOND
     1    11    12    1
     2    12    13   ar
     3    13    14   ar
     4    14    15   ar
     5    15     1    1
     6     1     2    1
     7     2     3    2
     8     3     4    1
     9     4     5    2
    10     5     6    1
    11     6     7    2
    12     7     8    1
    13     8     9    2
    14     9    10    1
    15    15    16   ar
    16    16    17    1
    17    16    18   ar
    18    18    12   ar
    19    10     2    1
    20    10     6    1
@<TRIPOS>MOLECULE
*****
 18 20 0 0 0
SMALL
GASTEIGER

@<TRIPOS>ATOM
      1 O          -7.2877  -20.0319   22.1876 O.3     1  UNL1       -0.4369
      2 C          -8.4407  -19.3044   21.5619 C.2     1  UNL1        0.2150
      3 N          -8.9283  -19.7019   20.2002 N.2     1  UNL1       -0.2130
      4 C         -10.0812  -18.9745   19.5746 C.2     1  UNL1        0.1030
      5 C         -10.7467  -17.8495   20.3106 C.2     1  UNL1        0.0362
      6 C         -10.2591  -17.4521   21.6723 C.2     1  UNL1        0.0732
      7 N         -10.7131  -16.3913   22.6308 N.2     1  UNL1       -0.2476
      8 C          -9.8406  -16.4632   23.8489 C.2     1  UNL1        0.0948
      9 C          -8.8475  -17.5684   23.6432 C.2     1  UNL1        0.0093
     10 C          -9.1061  -18.1795   22.2980 C.3     1  UNL1        0.1400
     11 F          -1.7138  -19.1280   20.1591 F       1  UNL1       -0.2041
     12 C          -3.1073  -19.3540   20.6663 C.ar    1  UNL1        0.1426
     13 C          -3.6077  -18.5843   21.8524 C.ar    1  UNL1        0.0329
     14 C          -5.0013  -18.8103   22.3596 C.ar    1  UNL1        0.0422
     15 C          -5.8942  -19.8059   21.6805 C.ar    1  UNL1        0.1742
     16 C          -5.3938  -20.5757   20.4942 C.ar    1  UNL1        0.1767
     17 F          -6.2868  -21.5713   19.8151 F       1  UNL1       -0.2009
     18 C          -4.0003  -20.3497   19.9871 C.ar    1  UNL1        0.0624
@<TRIPOS>BOND
     1    11    12    1
     2    12    13   ar
     3    13    14   ar
     4    14    15   ar
     5    15     1    1
     6     1     2    1
     7     2     3    2
     8     3     4    1
     9     4     5    2
    10     5     6    1
    11     6     7    2
    12     7     8    1
    13     8     9    2
    14     9    10    1
    15    15    16   ar
    16    16    17    1
    17    16    18   ar
    18    18    12   ar
    19    10     2    1
    20    10     6    1
@<TRIPOS>MOLECULE
*****
 18 20 0 0 0
SMALL
GASTEIGER

@<TRIPOS>ATOM
      1 O          -4.5721  -15.5281   23.4071 O.3     1  UNL1       -0.4369
      2 C          -5.6534  -15.6059   24.4438 C.2     1  UNL1        0.2150
      3 N          -5.3166  -15.4224   25.8940 N.2     1  UNL1       -0.2130
      4 C          -6.3978  -15.5001   26.9306 C.2     1  UNL1        0.1030
      5 C          -7.8159  -15.7615   26.5173 C.2     1  UNL1        0.0362
      6 C          -8.1527  -15.9450   25.0672 C.2     1  UNL1        0.0732
      7 N          -9.4504  -16.2134   24.3643 N.2     1  UNL1       -0.2476
      8 C          -9.1711  -16.3014   22.8932 C.2     1  UNL1        0.0948
      9 C          -7.7008  -16.0875   22.6868 C.2     1  UNL1        0.0093
     10 C          -7.0714  -15.8673   24.0304 C.3     1  UNL1        0.1400
     11 F          -2.1168  -20.5597   21.2496 F       1  UNL1       -0.2041
     12 C          -2.7307  -19.3018   21.7890 C.ar    1  UNL1        0.1426
     13 C          -4.0435  -19.3582   22.5122 C.ar    1  UNL1        0.0329
     14 C          -4.6574  -18.1003   23.0516 C.ar    1  UNL1        0.0422
     15 C          -3.9583  -16.7860   22.8677 C.ar    1  UNL1        0.1742
     16 C          -2.6454  -16.7295   22.1445 C.ar    1  UNL1        0.1767
     17 F          -1.9463  -15.4152   21.9605 F       1  UNL1       -0.2009
     18 C          -2.0316  -17.9874   21.6051 C.ar    1  UNL1        0.0624
@<TRIPOS>BOND
     1    11    12    1
     2    12    13   ar
     3    13    14   ar
     4    14    15   ar
     5    15     1    1
     6     1     2    1
     7     2     3    2
     8     3     4    1
     9     4     5    2
    10     5     6    1
    11     6     7    2
    12     7     8    1
    13     8     9    2
    14     9    10    1
    15    15    16   ar
    16    16    17    1
    17    16    18   ar
    18    18    12   ar
    19    10     2    1
    20    10     6    1
@<TRIPOS>MOLECULE
*****
 18 20 0 0 0
SMALL
GASTEIGER

@<TRIPOS>ATOM
      1 O          -6.4283  -19.7381   22.2005 O.3     1  UNL1       -0.4369
      2 C          -7.4888  -18.6923   22.3788 C.2     1  UNL1        0.2150
      3 N          -7.2824  -17.3131   21.8266 N.2     1  UNL1       -0.2130
      4 C          -8.3428  -16.2674   22.0049 C.2     1  UNL1        0.1030
      5 C          -9.6098  -16.6009   22.7356 C.2     1  UNL1        0.0362
      6 C          -9.8161  -17.9801   23.2879 C.2     1  UNL1        0.0732
      7 N         -10.9527  -18.5974   24.0474 N.2     1  UNL1       -0.2476
      8 C         -10.5947  -20.0247   24.3385 C.2     1  UNL1        0.0948
      9 C          -9.2368  -20.2895   23.7588 C.2     1  UNL1        0.0093
     10 C          -8.7556  -19.0259   23.1095 C.3     1  UNL1        0.1400
     11 F          -1.2225  -18.3148   19.5784 F       1  UNL1       -0.2041
     12 C          -2.5240  -18.6707   20.2339 C.ar    1  UNL1        0.1426
     13 C          -3.5870  -19.3841   19.4524 C.ar    1  UNL1        0.0329
     14 C          -4.8885  -19.7399   20.1079 C.ar    1  UNL1        0.0422
     15 C          -5.1268  -19.3823   21.5449 C.ar    1  UNL1        0.1742
     16 C          -4.0638  -18.6688   22.3266 C.ar    1  UNL1        0.1767
     17 F          -4.3021  -18.3112   23.7637 F       1  UNL1       -0.2009
     18 C          -2.7624  -18.3130   21.6711 C.ar    1  UNL1        0.0624
@<TRIPOS>BOND
     1    11    12    1
     2    12    13   ar
     3    13    14   ar
     4    14    15   ar
     5    15     1    1
     6     1     2    1
     7     2     3    2
     8     3     4    1
     9     4     5    2
    10     5     6    1
    11     6     7    2
    12     7     8    1
    13     8     9    2
    14     9    10    1
    15    15    16   ar
    16    16    17    1
    17    16    18   ar
    18    18    12   ar
    19    10     2    1
    20    10     6    1
@<TRIPOS>MOLECULE
*****
 18 20 0 0 0
SMALL
GASTEIGER

@<TRIPOS>ATOM
      1 O          -8.4152  -16.1050   23.3097 O.3     1  UNL1       -0.4369
      2 C          -9.7098  -16.8620   23.2790 C.2     1  UNL1        0.2150
      3 N         -10.0665  -17.7838   24.4072 N.2     1  UNL1       -0.2130
      4 C         -11.3610  -18.5408   24.3766 C.2     1  UNL1        0.1030
      5 C         -12.2990  -18.3761   23.2176 C.2     1  UNL1        0.0362
      6 C         -11.9423  -17.4543   22.0893 C.2     1  UNL1        0.0732
      7 N         -12.6615  -17.0916   20.8239 N.2     1  UNL1       -0.2476
      8 C         -11.8114  -16.1104   20.0726 C.2     1  UNL1        0.0948
      9 C         -10.5668  -15.8666   20.8736 C.2     1  UNL1        0.0093
     10 C         -10.6477  -16.6972   22.1200 C.3     1  UNL1        0.1400
     11 F          -3.2191  -19.0169   22.5873 F       1  UNL1       -0.2041
     12 C          -4.5182  -18.2889   22.7679 C.ar    1  UNL1        0.1426
     13 C          -5.7734  -18.8301   22.1502 C.ar    1  UNL1        0.0329
     14 C          -7.0724  -18.1021   22.3307 C.ar    1  UNL1        0.0422
     15 C          -7.1162  -16.8330   23.1291 C.ar    1  UNL1        0.1742
     16 C          -5.8610  -16.2917   23.7469 C.ar    1  UNL1        0.1767
     17 F          -5.9048  -15.0226   24.5453 F       1  UNL1       -0.2009
     18 C          -4.5620  -17.0197   23.5663 C.ar    1  UNL1        0.0624
@<TRIPOS>BOND
     1    11    12    1
     2    12    13   ar
     3    13    14   ar
     4    14    15   ar
     5    15     1    1
     6     1     2    1
     7     2     3    2
     8     3     4    1
     9     4     5    2
    10     5     6    1
    11     6     7    2
    12     7     8    1
    13     8     9    2
    14     9    10    1
    15    15    16   ar
    16    16    17    1
    17    16    18   ar
    18    18    12   ar
    19    10     2    1
    20    10     6    1
