@<TRIPOS>MOLECULE
*****
 36 39 0 0 0
SMALL
GASTEIGER

@<TRIPOS>ATOM
      1 C           7.8131   -7.3660   26.4562 C.ar    1  UNL1        0.1535
      2 C           8.3580   -7.6478   25.0874 C.ar    1  UNL1        0.0574
      3 C           8.1690   -6.6486   23.9846 C.ar    1  UNL1        0.0888
      4 N           8.7138   -6.9304   22.6157 N.ar    1  UNL1       -0.2238
      5 C           8.5248   -5.9313   21.5130 C.ar    1  UNL1        0.2000
      6 N           7.7910   -4.6504   21.7792 N.ar    1  UNL1       -0.2089
      7 C           7.2462   -4.3686   23.1480 C.ar    1  UNL1        0.1353
      8 C           7.4352   -5.3677   24.2507 C.ar    1  UNL1        0.0508
      9 C           6.8904   -5.0859   25.6196 C.ar    1  UNL1        0.0221
     10 C           7.0794   -6.0850   26.7223 C.ar    1  UNL1        0.0852
     11 N           6.5345   -5.8033   28.0912 N.am    1  UNL1       -0.2762
     12 C           7.4436   -5.2929   29.1698 C.2     1  UNL1        0.2769
     13 O           8.8974   -5.0644   28.8794 O.2     1  UNL1       -0.2674
     14 H           5.5804   -5.9533   28.2818 H       1  UNL1        0.1553
     15 C           6.8988   -5.0112   30.5386 C.2     1  UNL1        0.1905
     16 F           6.6809   -6.1371   31.5054 F       1  UNL1       -0.1997
     17 C           6.5720   -3.6035   30.9407 C.2     1  UNL1        0.0256
     18 C           6.0273   -3.3217   32.3095 C.3     1  UNL1        0.1013
     19 N           5.1831   -2.1043   32.5449 N.3     1  UNL1       -0.2689
     20 C           5.0671   -1.5274   33.9246 C.3     1  UNL1        0.0724
     21 C           4.2230   -0.3100   34.1599 C.3     1  UNL1        0.0174
     22 C           3.4949    0.3305   33.0155 C.3     1  UNL1        0.0029
     23 C           3.6108   -0.2465   31.6358 C.3     1  UNL1        0.0174
     24 C           4.4550   -1.4639   31.4004 C.3     1  UNL1        0.0724
     25 C           9.3852   -8.7418   28.0009 C.3     1  UNL1        0.2525
     26 O           8.0021   -8.3651   27.5590 O.3     1  UNL1       -0.4701
     27 N           6.5124   -3.0877   23.4141 N.pl3   1  UNL1       -0.2978
     28 H           6.7708   -2.5218   24.1772 H       1  UNL1        0.1536
     29 C           5.3851   -2.6690   22.5177 C.ar    1  UNL1        0.0504
     30 C           4.6040   -1.4259   22.8256 C.ar    1  UNL1        0.0170
     31 C           3.4766   -1.0072   21.9291 C.ar    1  UNL1        0.0318
     32 C           3.1302   -1.8315   20.7248 C.ar    1  UNL1        0.1507
     33 F           2.0027   -1.4128   19.8283 F       1  UNL1       -0.2033
     34 C           3.9112   -3.0746   20.4169 C.ar    1  UNL1        0.0863
     35 CL          3.5648   -3.8989   19.2125 Cl      1  UNL1       -0.0799
     36 C           5.0387   -3.4933   21.3133 C.ar    1  UNL1        0.0283
@<TRIPOS>BOND
     1    25    26    1
     2    26     1    1
     3     1     2   ar
     4     2     3   ar
     5     3     4   ar
     6     4     5   ar
     7     5     6   ar
     8     6     7   ar
     9     7    27    1
    10    27    29    1
    11    29    30   ar
    12    30    31   ar
    13    31    32   ar
    14    32    33    1
    15    32    34   ar
    16    34    35    1
    17    34    36   ar
    18     7     8   ar
    19     8     9   ar
    20     9    10   ar
    21    10    11    1
    22    11    12   am
    23    12    13    2
    24    12    15    1
    25    15    16    1
    26    15    17    2
    27    17    18    1
    28    18    19    1
    29    19    20    1
    30    20    21    1
    31    21    22    1
    32    22    23    1
    33    23    24    1
    34    10     1   ar
    35    24    19    1
    36     8     3   ar
    37    36    29   ar
    38    27    28    1
    39    11    14    1
@<TRIPOS>MOLECULE
*****
 36 39 0 0 0
SMALL
GASTEIGER

@<TRIPOS>ATOM
      1 C          -3.3002    4.1568   18.9736 C.ar    1  UNL1        0.1535
      2 C          -4.4336    5.1073   18.7248 C.ar    1  UNL1        0.0574
      3 C          -5.5307    5.2480   19.7380 C.ar    1  UNL1        0.0888
      4 N          -6.6641    6.1985   19.4892 N.ar    1  UNL1       -0.2238
      5 C          -7.7611    6.3391   20.5025 C.ar    1  UNL1        0.2000
      6 N          -7.7247    5.5293   21.7646 N.ar    1  UNL1       -0.2089
      7 C          -6.5913    4.5788   22.0134 C.ar    1  UNL1        0.1353
      8 C          -5.4943    4.4381   21.0001 C.ar    1  UNL1        0.0508
      9 C          -4.3609    3.4876   21.2489 C.ar    1  UNL1        0.0221
     10 C          -3.2639    3.3469   20.2356 C.ar    1  UNL1        0.0852
     11 N          -2.1304    2.3964   20.4844 N.am    1  UNL1       -0.2762
     12 C          -0.8949    2.8708   21.1904 C.2     1  UNL1        0.2769
     13 O          -0.7928    4.2959   21.6476 O.2     1  UNL1       -0.2674
     14 H          -2.1974    1.4611   20.1843 H       1  UNL1        0.1553
     15 C           0.2385    1.9204   21.4391 C.2     1  UNL1        0.1905
     16 F           1.2957    2.2613   22.4472 F       1  UNL1       -0.1997
     17 C           0.3148    0.6290   20.6799 C.2     1  UNL1        0.0256
     18 C           1.4482   -0.3215   20.9287 C.3     1  UNL1        0.1013
     19 N           2.3686   -0.7012   19.8068 N.3     1  UNL1       -0.2689
     20 C           3.1493   -1.9800   19.8773 C.3     1  UNL1        0.0724
     21 C           4.0697   -2.3598   18.7554 C.3     1  UNL1        0.0174
     22 C           4.2094   -1.4607   17.5629 C.3     1  UNL1        0.0029
     23 C           3.4286   -0.1818   17.4923 C.3     1  UNL1        0.0174
     24 C           2.5082    0.1980   18.6142 C.3     1  UNL1        0.0724
     25 C          -2.5375    3.9222   16.5010 C.3     1  UNL1        0.2525
     26 O          -2.2031    4.0161   17.9603 O.3     1  UNL1       -0.4701
     27 N          -6.5549    3.7689   23.2754 N.pl3   1  UNL1       -0.2978
     28 H          -6.9930    2.8878   23.3077 H       1  UNL1        0.1536
     29 C          -5.8512    4.3015   24.4883 C.ar    1  UNL1        0.0504
     30 C          -6.3966    5.5007   25.2057 C.ar    1  UNL1        0.0170
     31 C          -5.6928    6.0333   26.4186 C.ar    1  UNL1        0.0318
     32 C          -4.4438    5.3667   26.9141 C.ar    1  UNL1        0.1507
     33 F          -3.7401    5.8994   28.1271 F       1  UNL1       -0.2033
     34 C          -3.8985    4.1676   26.1968 C.ar    1  UNL1        0.0863
     35 CL         -2.6494    3.5010   26.6924 Cl      1  UNL1       -0.0799
     36 C          -4.6022    3.6349   24.9839 C.ar    1  UNL1        0.0283
@<TRIPOS>BOND
     1    25    26    1
     2    26     1    1
     3     1     2   ar
     4     2     3   ar
     5     3     4   ar
     6     4     5   ar
     7     5     6   ar
     8     6     7   ar
     9     7    27    1
    10    27    29    1
    11    29    30   ar
    12    30    31   ar
    13    31    32   ar
    14    32    33    1
    15    32    34   ar
    16    34    35    1
    17    34    36   ar
    18     7     8   ar
    19     8     9   ar
    20     9    10   ar
    21    10    11    1
    22    11    12   am
    23    12    13    2
    24    12    15    1
    25    15    16    1
    26    15    17    2
    27    17    18    1
    28    18    19    1
    29    19    20    1
    30    20    21    1
    31    21    22    1
    32    22    23    1
    33    23    24    1
    34    10     1   ar
    35    24    19    1
    36     8     3   ar
    37    36    29   ar
    38    27    28    1
    39    11    14    1
@<TRIPOS>MOLECULE
*****
 36 39 0 0 0
SMALL
GASTEIGER

@<TRIPOS>ATOM
      1 C          -2.9972    3.3695   21.0940 C.ar    1  UNL1        0.1535
      2 C          -4.0625    3.5246   22.1386 C.ar    1  UNL1        0.0574
      3 C          -3.6838    3.6286   23.5863 C.ar    1  UNL1        0.0888
      4 N          -4.7491    3.7837   24.6309 N.ar    1  UNL1       -0.2238
      5 C          -4.3704    3.8878   26.0785 C.ar    1  UNL1        0.2000
      6 N          -2.9265    3.8367   26.4816 N.ar    1  UNL1       -0.2089
      7 C          -1.8612    3.6816   25.4371 C.ar    1  UNL1        0.1353
      8 C          -2.2399    3.5776   23.9894 C.ar    1  UNL1        0.0508
      9 C          -1.1746    3.4225   22.9448 C.ar    1  UNL1        0.0221
     10 C          -1.5533    3.3185   21.4971 C.ar    1  UNL1        0.0852
     11 N          -0.4880    3.1634   20.4525 N.am    1  UNL1       -0.2762
     12 C           0.1670    1.8306   20.2413 C.2     1  UNL1        0.2769
     13 O          -0.2434    0.6528   21.0748 O.2     1  UNL1       -0.2674
     14 H          -0.2187    3.9364   19.9055 H       1  UNL1        0.1553
     15 C           1.2322    1.6754   19.1968 C.2     1  UNL1        0.1905
     16 F           1.6913    2.8678   18.4109 F       1  UNL1       -0.1997
     17 C           1.8383    0.3280   18.9380 C.2     1  UNL1        0.0256
     18 C           2.9035    0.1729   17.8934 C.3     1  UNL1        0.1013
     19 N           4.0334   -0.7894   18.1115 N.3     1  UNL1       -0.2689
     20 C           5.4156   -0.4415   17.6442 C.3     1  UNL1        0.0724
     21 C           6.5454   -1.4038   17.8623 C.3     1  UNL1        0.0174
     22 C           6.2930   -2.7140   18.5476 C.3     1  UNL1        0.0029
     23 C           4.9107   -3.0619   19.0149 C.3     1  UNL1        0.0174
     24 C           3.7809   -2.0996   18.7968 C.3     1  UNL1        0.0724
     25 C          -3.4998    4.5062   18.8125 C.3     1  UNL1        0.2525
     26 O          -3.3759    3.2654   19.6463 O.3     1  UNL1       -0.4701
     27 N          -0.4173    3.6306   25.8402 N.pl3   1  UNL1       -0.2978
     28 H           0.2165    4.2954   25.4857 H       1  UNL1        0.1536
     29 C           0.0609    2.5668   26.7833 C.ar    1  UNL1        0.0504
     30 C           1.4934    2.5476   27.2281 C.ar    1  UNL1        0.0170
     31 C           1.9716    1.4838   28.1712 C.ar    1  UNL1        0.0318
     32 C           1.0175    0.4392   28.6696 C.ar    1  UNL1        0.1507
     33 F           1.4958   -0.6247   29.6128 F       1  UNL1       -0.2033
     34 C          -0.4149    0.4584   28.2249 C.ar    1  UNL1        0.0863
     35 CL         -1.3690   -0.5863   28.7233 Cl      1  UNL1       -0.0799
     36 C          -0.8932    1.5222   27.2817 C.ar    1  UNL1        0.0283
@<TRIPOS>BOND
     1    25    26    1
     2    26     1    1
     3     1     2   ar
     4     2     3   ar
     5     3     4   ar
     6     4     5   ar
     7     5     6   ar
     8     6     7   ar
     9     7    27    1
    10    27    29    1
    11    29    30   ar
    12    30    31   ar
    13    31    32   ar
    14    32    33    1
    15    32    34   ar
    16    34    35    1
    17    34    36   ar
    18     7     8   ar
    19     8     9   ar
    20     9    10   ar
    21    10    11    1
    22    11    12   am
    23    12    13    2
    24    12    15    1
    25    15    16    1
    26    15    17    2
    27    17    18    1
    28    18    19    1
    29    19    20    1
    30    20    21    1
    31    21    22    1
    32    22    23    1
    33    23    24    1
    34    10     1   ar
    35    24    19    1
    36     8     3   ar
    37    36    29   ar
    38    27    28    1
    39    11    14    1
@<TRIPOS>MOLECULE
*****
 36 39 0 0 0
SMALL
GASTEIGER

@<TRIPOS>ATOM
      1 C           2.3615   -1.2316   20.6019 C.ar    1  UNL1        0.1535
      2 C           1.2194   -0.3816   20.1297 C.ar    1  UNL1        0.0574
      3 C           0.7143    0.7402   20.9880 C.ar    1  UNL1        0.0888
      4 N          -0.4278    1.5902   20.5158 N.ar    1  UNL1       -0.2238
      5 C          -0.9327    2.7120   21.3740 C.ar    1  UNL1        0.2000
      6 N          -0.2956    2.9837   22.7045 N.ar    1  UNL1       -0.2089
      7 C           0.8465    2.1337   23.1768 C.ar    1  UNL1        0.1353
      8 C           1.3515    1.0120   22.3185 C.ar    1  UNL1        0.0508
      9 C           2.4936    0.1619   22.7907 C.ar    1  UNL1        0.0221
     10 C           2.9986   -0.9598   21.9324 C.ar    1  UNL1        0.0852
     11 N           4.1408   -1.8099   22.4046 N.am    1  UNL1       -0.2762
     12 C           5.5518   -1.4172   22.0809 C.2     1  UNL1        0.2769
     13 O           5.8207   -0.1745   21.2850 O.2     1  UNL1       -0.2674
     14 H           3.9643   -2.6255   22.9270 H       1  UNL1        0.1553
     15 C           6.6940   -2.2672   22.5531 C.2     1  UNL1        0.1905
     16 F           7.8801   -1.6298   23.2139 F       1  UNL1       -0.1997
     17 C           6.6500   -3.7547   22.3644 C.2     1  UNL1        0.0256
     18 C           7.7921   -4.6047   22.8366 C.3     1  UNL1        0.1013
     19 N           7.6332   -5.4649   24.0551 N.3     1  UNL1       -0.2689
     20 C           6.9316   -4.9268   25.2668 C.3     1  UNL1        0.0724
     21 C           6.7727   -5.7871   26.4853 C.3     1  UNL1        0.0174
     22 C           7.3153   -7.1855   26.4920 C.3     1  UNL1        0.0029
     23 C           8.0168   -7.7237   25.2803 C.3     1  UNL1        0.0174
     24 C           8.1758   -6.8634   24.0618 C.3     1  UNL1        0.0724
     25 C           3.9429   -2.0968   18.7309 C.3     1  UNL1        0.2525
     26 O           2.8665   -2.3534   19.7436 O.3     1  UNL1       -0.4701
     27 N           1.4836    2.4054   24.5073 N.pl3   1  UNL1       -0.2978
     28 H           2.3358    2.8961   24.5539 H       1  UNL1        0.1536
     29 C           0.8223    1.9295   25.7667 C.ar    1  UNL1        0.0504
     30 C          -0.5801    2.3564   26.0849 C.ar    1  UNL1        0.0170
     31 C          -1.2414    1.8805   27.3443 C.ar    1  UNL1        0.0318
     32 C          -0.5004    0.9777   28.2855 C.ar    1  UNL1        0.1507
     33 F          -1.1617    0.5018   29.5450 F       1  UNL1       -0.2033
     34 C           0.9019    0.5509   27.9674 C.ar    1  UNL1        0.0863
     35 CL          1.6429   -0.3519   28.9086 Cl      1  UNL1       -0.0799
     36 C           1.5633    1.0268   26.7079 C.ar    1  UNL1        0.0283
@<TRIPOS>BOND
     1    25    26    1
     2    26     1    1
     3     1     2   ar
     4     2     3   ar
     5     3     4   ar
     6     4     5   ar
     7     5     6   ar
     8     6     7   ar
     9     7    27    1
    10    27    29    1
    11    29    30   ar
    12    30    31   ar
    13    31    32   ar
    14    32    33    1
    15    32    34   ar
    16    34    35    1
    17    34    36   ar
    18     7     8   ar
    19     8     9   ar
    20     9    10   ar
    21    10    11    1
    22    11    12   am
    23    12    13    2
    24    12    15    1
    25    15    16    1
    26    15    17    2
    27    17    18    1
    28    18    19    1
    29    19    20    1
    30    20    21    1
    31    21    22    1
    32    22    23    1
    33    23    24    1
    34    10     1   ar
    35    24    19    1
    36     8     3   ar
    37    36    29   ar
    38    27    28    1
    39    11    14    1
@<TRIPOS>MOLECULE
*****
 36 39 0 0 0
SMALL
GASTEIGER

@<TRIPOS>ATOM
      1 C           6.5166   -5.5159   27.2262 C.ar    1  UNL1        0.1535
      2 C           7.2625   -6.6342   26.5607 C.ar    1  UNL1        0.0574
      3 C           7.7970   -6.4564   25.1705 C.ar    1  UNL1        0.0888
      4 N           8.5430   -7.5747   24.5050 N.ar    1  UNL1       -0.2238
      5 C           9.0775   -7.3968   23.1148 C.ar    1  UNL1        0.2000
      6 N           8.8660   -6.1007   22.3901 N.ar    1  UNL1       -0.2089
      7 C           8.1201   -4.9823   23.0556 C.ar    1  UNL1        0.1353
      8 C           7.5856   -5.1602   24.4458 C.ar    1  UNL1        0.0508
      9 C           6.8396   -4.0419   25.1113 C.ar    1  UNL1        0.0221
     10 C           6.3051   -4.2197   26.5015 C.ar    1  UNL1        0.0852
     11 N           5.5591   -3.1014   27.1670 N.am    1  UNL1       -0.2762
     12 C           6.2904   -2.1311   28.0467 C.2     1  UNL1        0.2769
     13 O           7.7677   -2.2792   28.2608 O.2     1  UNL1       -0.2674
     14 H           4.5896   -3.0042   27.0264 H       1  UNL1        0.1553
     15 C           5.5445   -1.0128   28.7122 C.2     1  UNL1        0.1905
     16 F           6.1059   -0.3650   29.9431 F       1  UNL1       -0.1997
     17 C           4.2372   -0.5424   28.1469 C.2     1  UNL1        0.0256
     18 C           3.4913    0.5759   28.8124 C.3     1  UNL1        0.1013
     19 N           2.0442    0.8073   28.4922 N.3     1  UNL1       -0.2689
     20 C           1.6526    1.3785   27.1616 C.3     1  UNL1        0.0724
     21 C           0.2055    1.6099   26.8414 C.3     1  UNL1        0.0174
     22 C          -0.8498    1.2701   27.8517 C.3     1  UNL1        0.0029
     23 C          -0.4582    0.6989   29.1823 C.3     1  UNL1        0.0174
     24 C           0.9888    0.4675   29.5025 C.3     1  UNL1        0.0724
     25 C           6.8801   -5.4785   29.7985 C.3     1  UNL1        0.2525
     26 O           5.9820   -5.6937   28.6164 O.3     1  UNL1       -0.4701
     27 N           7.9087   -3.6862   22.3309 N.pl3   1  UNL1       -0.2978
     28 H           8.6241   -3.0101   22.3126 H       1  UNL1        0.1536
     29 C           6.6073   -3.4201   21.6341 C.ar    1  UNL1        0.0504
     30 C           5.7210   -2.3037   22.1012 C.ar    1  UNL1        0.0170
     31 C           4.4196   -2.0376   21.4044 C.ar    1  UNL1        0.0318
     32 C           4.0044   -2.8879   20.2405 C.ar    1  UNL1        0.1507
     33 F           2.7029   -2.6218   19.5437 F       1  UNL1       -0.2033
     34 C           4.8906   -4.0043   19.7734 C.ar    1  UNL1        0.0863
     35 CL          4.4755   -4.8547   18.6096 Cl      1  UNL1       -0.0799
     36 C           6.1921   -4.2704   20.4702 C.ar    1  UNL1        0.0283
@<TRIPOS>BOND
     1    25    26    1
     2    26     1    1
     3     1     2   ar
     4     2     3   ar
     5     3     4   ar
     6     4     5   ar
     7     5     6   ar
     8     6     7   ar
     9     7    27    1
    10    27    29    1
    11    29    30   ar
    12    30    31   ar
    13    31    32   ar
    14    32    33    1
    15    32    34   ar
    16    34    35    1
    17    34    36   ar
    18     7     8   ar
    19     8     9   ar
    20     9    10   ar
    21    10    11    1
    22    11    12   am
    23    12    13    2
    24    12    15    1
    25    15    16    1
    26    15    17    2
    27    17    18    1
    28    18    19    1
    29    19    20    1
    30    20    21    1
    31    21    22    1
    32    22    23    1
    33    23    24    1
    34    10     1   ar
    35    24    19    1
    36     8     3   ar
    37    36    29   ar
    38    27    28    1
    39    11    14    1
@<TRIPOS>MOLECULE
*****
 36 39 0 0 0
SMALL
GASTEIGER

@<TRIPOS>ATOM
      1 C           2.0080   -0.3351   28.8943 C.ar    1  UNL1        0.1535
      2 C           2.1169   -0.3617   30.3900 C.ar    1  UNL1        0.0574
      3 C           3.4068   -0.7650   31.0410 C.ar    1  UNL1        0.0888
      4 N           3.5158   -0.7916   32.5368 N.ar    1  UNL1       -0.2238
      5 C           4.8056   -1.1948   33.1877 C.ar    1  UNL1        0.2000
      6 N           5.9865   -1.5714   32.3428 N.ar    1  UNL1       -0.2089
      7 C           5.8775   -1.5448   30.8471 C.ar    1  UNL1        0.1353
      8 C           4.5876   -1.1416   30.1962 C.ar    1  UNL1        0.0508
      9 C           4.4786   -1.1150   28.7003 C.ar    1  UNL1        0.0221
     10 C           3.1888   -0.7118   28.0494 C.ar    1  UNL1        0.0852
     11 N           3.0797   -0.6852   26.5536 N.am    1  UNL1       -0.2762
     12 C           3.3680    0.5812   25.8030 C.2     1  UNL1        0.2769
     13 O           3.7652    1.8209   26.5483 O.2     1  UNL1       -0.2674
     14 H           2.8190   -1.4988   26.0644 H       1  UNL1        0.1553
     15 C           3.2589    0.6078   24.3072 C.2     1  UNL1        0.1905
     16 F           3.4141    1.9031   23.5669 F       1  UNL1       -0.1997
     17 C           2.9947   -0.6608   23.5518 C.2     1  UNL1        0.0256
     18 C           2.8857   -0.6342   22.0560 C.3     1  UNL1        0.1013
     19 N           3.4582   -1.7566   21.2421 N.3     1  UNL1       -0.2689
     20 C           3.0762   -1.9078   19.7995 C.3     1  UNL1        0.0724
     21 C           3.6487   -3.0302   18.9857 C.3     1  UNL1        0.0174
     22 C           4.6032   -4.0015   19.6144 C.3     1  UNL1        0.0029
     23 C           4.9853   -3.8504   21.0571 C.3     1  UNL1        0.0174
     24 C           4.4128   -2.7279   21.8710 C.3     1  UNL1        0.0724
     25 C          -0.5899   -0.3330   28.8583 C.3     1  UNL1        0.2525
     26 O           0.7181    0.0681   28.2433 O.3     1  UNL1       -0.4701
     27 N           7.0583   -1.9215   30.0022 N.pl3   1  UNL1       -0.2978
     28 H           7.6701   -1.2242   29.6725 H       1  UNL1        0.1536
     29 C           7.3070   -3.3605   29.6597 C.ar    1  UNL1        0.0504
     30 C           8.0648   -4.2379   30.6115 C.ar    1  UNL1        0.0170
     31 C           8.3135   -5.6769   30.2690 C.ar    1  UNL1        0.0318
     32 C           7.8044   -6.2386   28.9746 C.ar    1  UNL1        0.1507
     33 F           8.0531   -7.6777   28.6321 F       1  UNL1       -0.2033
     34 C           7.0465   -5.3612   28.0229 C.ar    1  UNL1        0.0863
     35 CL          6.5373   -5.9229   26.7285 Cl      1  UNL1       -0.0799
     36 C           6.7978   -3.9221   28.3654 C.ar    1  UNL1        0.0283
@<TRIPOS>BOND
     1    25    26    1
     2    26     1    1
     3     1     2   ar
     4     2     3   ar
     5     3     4   ar
     6     4     5   ar
     7     5     6   ar
     8     6     7   ar
     9     7    27    1
    10    27    29    1
    11    29    30   ar
    12    30    31   ar
    13    31    32   ar
    14    32    33    1
    15    32    34   ar
    16    34    35    1
    17    34    36   ar
    18     7     8   ar
    19     8     9   ar
    20     9    10   ar
    21    10    11    1
    22    11    12   am
    23    12    13    2
    24    12    15    1
    25    15    16    1
    26    15    17    2
    27    17    18    1
    28    18    19    1
    29    19    20    1
    30    20    21    1
    31    21    22    1
    32    22    23    1
    33    23    24    1
    34    10     1   ar
    35    24    19    1
    36     8     3   ar
    37    36    29   ar
    38    27    28    1
    39    11    14    1
@<TRIPOS>MOLECULE
*****
 36 39 0 0 0
SMALL
GASTEIGER

@<TRIPOS>ATOM
      1 C           6.9465   -5.7806   27.5484 C.ar    1  UNL1        0.1535
      2 C           7.0796   -5.9246   29.0355 C.ar    1  UNL1        0.0574
      3 C           6.8204   -4.7480   29.9292 C.ar    1  UNL1        0.0888
      4 N           6.9535   -4.8920   31.4163 N.ar    1  UNL1       -0.2238
      5 C           6.6943   -3.7154   32.3098 C.ar    1  UNL1        0.2000
      6 N           6.3020   -2.3949   31.7163 N.ar    1  UNL1       -0.2089
      7 C           6.1688   -2.2510   30.2292 C.ar    1  UNL1        0.1353
      8 C           6.4280   -3.4275   29.3356 C.ar    1  UNL1        0.0508
      9 C           6.2949   -3.2836   27.8484 C.ar    1  UNL1        0.0221
     10 C           6.5541   -4.4601   26.9549 C.ar    1  UNL1        0.0852
     11 N           6.4210   -4.3162   25.4677 N.am    1  UNL1       -0.2762
     12 C           7.6174   -3.9526   24.6393 C.2     1  UNL1        0.2769
     13 O           8.9471   -3.7330   25.2981 O.2     1  UNL1       -0.2674
     14 H           5.5483   -4.4603   25.0354 H       1  UNL1        0.1553
     15 C           7.4843   -3.8087   23.1522 C.2     1  UNL1        0.1905
     16 F           7.7862   -4.9730   22.2561 F       1  UNL1       -0.1997
     17 C           7.0494   -2.5004   22.5612 C.2     1  UNL1        0.0256
     18 C           6.9163   -2.3565   21.0741 C.3     1  UNL1        0.1013
     19 N           5.7002   -2.8879   20.3750 N.3     1  UNL1       -0.2689
     20 C           4.4444   -2.0690   20.3280 C.3     1  UNL1        0.0724
     21 C           3.2283   -2.6004   19.6288 C.3     1  UNL1        0.0174
     22 C           3.2680   -3.9506   18.9768 C.3     1  UNL1        0.0029
     23 C           4.5239   -4.7696   19.0239 C.3     1  UNL1        0.0174
     24 C           5.7400   -4.2382   19.7230 C.3     1  UNL1        0.0724
     25 C           8.6065   -7.2786   26.2254 C.3     1  UNL1        0.2525
     26 O           7.2057   -6.9572   26.6548 O.3     1  UNL1       -0.4701
     27 N           5.7764   -0.9304   29.6357 N.pl3   1  UNL1       -0.2978
     28 H           6.4588   -0.3555   29.2197 H       1  UNL1        0.1536
     29 C           4.3444   -0.4859   29.6758 C.ar    1  UNL1        0.0504
     30 C           3.4285   -0.8022   28.5308 C.ar    1  UNL1        0.0170
     31 C           1.9964   -0.3577   28.5710 C.ar    1  UNL1        0.0318
     32 C           1.4803    0.4031   29.7562 C.ar    1  UNL1        0.1507
     33 F           0.0481    0.8476   29.7964 F       1  UNL1       -0.2033
     34 C           2.3961    0.7194   30.9012 C.ar    1  UNL1        0.0863
     35 CL          1.8799    1.4802   32.0864 Cl      1  UNL1       -0.0799
     36 C           3.8282    0.2749   30.8611 C.ar    1  UNL1        0.0283
@<TRIPOS>BOND
     1    25    26    1
     2    26     1    1
     3     1     2   ar
     4     2     3   ar
     5     3     4   ar
     6     4     5   ar
     7     5     6   ar
     8     6     7   ar
     9     7    27    1
    10    27    29    1
    11    29    30   ar
    12    30    31   ar
    13    31    32   ar
    14    32    33    1
    15    32    34   ar
    16    34    35    1
    17    34    36   ar
    18     7     8   ar
    19     8     9   ar
    20     9    10   ar
    21    10    11    1
    22    11    12   am
    23    12    13    2
    24    12    15    1
    25    15    16    1
    26    15    17    2
    27    17    18    1
    28    18    19    1
    29    19    20    1
    30    20    21    1
    31    21    22    1
    32    22    23    1
    33    23    24    1
    34    10     1   ar
    35    24    19    1
    36     8     3   ar
    37    36    29   ar
    38    27    28    1
    39    11    14    1
@<TRIPOS>MOLECULE
*****
 36 39 0 0 0
SMALL
GASTEIGER

@<TRIPOS>ATOM
      1 C           3.2980    0.8643   25.0746 C.ar    1  UNL1        0.1535
      2 C           2.6343    2.0167   24.3808 C.ar    1  UNL1        0.0574
      3 C           2.0530    1.8331   23.0102 C.ar    1  UNL1        0.0888
      4 N           1.3893    2.9855   22.3165 N.ar    1  UNL1       -0.2238
      5 C           0.8081    2.8019   20.9459 C.ar    1  UNL1        0.2000
      6 N           0.8907    1.4658   20.2691 N.ar    1  UNL1       -0.2089
      7 C           1.5544    0.3133   20.9629 C.ar    1  UNL1        0.1353
      8 C           2.1356    0.4970   22.3334 C.ar    1  UNL1        0.0508
      9 C           2.7994   -0.6554   23.0272 C.ar    1  UNL1        0.0221
     10 C           3.3805   -0.4718   24.3978 C.ar    1  UNL1        0.0852
     11 N           4.0443   -1.6242   25.0916 N.am    1  UNL1       -0.2762
     12 C           5.5050   -1.8889   24.8760 C.2     1  UNL1        0.2769
     13 O           6.3018   -1.0012   23.9666 O.2     1  UNL1       -0.2674
     14 H           3.5213   -2.2069   25.6885 H       1  UNL1        0.1553
     15 C           6.1687   -3.0413   25.5698 C.2     1  UNL1        0.1905
     16 F           6.7154   -4.1852   24.7682 F       1  UNL1       -0.1997
     17 C           6.2859   -3.0498   27.0652 C.2     1  UNL1        0.0256
     18 C           6.9497   -4.2022   27.7589 C.3     1  UNL1        0.1013
     19 N           6.8737   -4.3232   29.2521 N.3     1  UNL1       -0.2689
     20 C           7.1051   -5.6514   29.9096 C.3     1  UNL1        0.0724
     21 C           7.0291   -5.7725   31.4028 C.3     1  UNL1        0.0174
     22 C           6.7218   -4.5654   32.2385 C.3     1  UNL1        0.0029
     23 C           6.4904   -3.2371   31.5810 C.3     1  UNL1        0.0174
     24 C           6.5663   -3.1160   30.0878 C.3     1  UNL1        0.0724
     25 C           5.3071    1.4798   26.6027 C.3     1  UNL1        0.2525
     26 O           3.8792    1.0479   26.4452 O.3     1  UNL1       -0.4701
     27 N           1.6370   -1.0227   20.2861 N.pl3   1  UNL1       -0.2978
     28 H           0.8556   -1.6217   20.2822 H       1  UNL1        0.1536
     29 C           2.9099   -1.4463   19.6152 C.ar    1  UNL1        0.0504
     30 C           3.8584   -0.4121   19.0850 C.ar    1  UNL1        0.0170
     31 C           5.1314   -0.8356   18.4142 C.ar    1  UNL1        0.0318
     32 C           5.4560   -2.2933   18.2734 C.ar    1  UNL1        0.1507
     33 F           6.7290   -2.7168   17.6025 F       1  UNL1       -0.2033
     34 C           4.5076   -3.3275   18.8036 C.ar    1  UNL1        0.0863
     35 CL          4.8322   -4.7851   18.6628 Cl      1  UNL1       -0.0799
     36 C           3.2345   -2.9039   19.4745 C.ar    1  UNL1        0.0283
@<TRIPOS>BOND
     1    25    26    1
     2    26     1    1
     3     1     2   ar
     4     2     3   ar
     5     3     4   ar
     6     4     5   ar
     7     5     6   ar
     8     6     7   ar
     9     7    27    1
    10    27    29    1
    11    29    30   ar
    12    30    31   ar
    13    31    32   ar
    14    32    33    1
    15    32    34   ar
    16    34    35    1
    17    34    36   ar
    18     7     8   ar
    19     8     9   ar
    20     9    10   ar
    21    10    11    1
    22    11    12   am
    23    12    13    2
    24    12    15    1
    25    15    16    1
    26    15    17    2
    27    17    18    1
    28    18    19    1
    29    19    20    1
    30    20    21    1
    31    21    22    1
    32    22    23    1
    33    23    24    1
    34    10     1   ar
    35    24    19    1
    36     8     3   ar
    37    36    29   ar
    38    27    28    1
    39    11    14    1
@<TRIPOS>MOLECULE
*****
 36 39 0 0 0
SMALL
GASTEIGER

@<TRIPOS>ATOM
      1 C           5.0246   -1.0294   28.8892 C.ar    1  UNL1        0.1535
      2 C           4.5811   -0.2523   30.0932 C.ar    1  UNL1        0.0574
      3 C           3.1708    0.2507   30.1835 C.ar    1  UNL1        0.0888
      4 N           2.7274    1.0278   31.3874 N.ar    1  UNL1       -0.2238
      5 C           1.3172    1.5308   31.4777 C.ar    1  UNL1        0.2000
      6 N           0.3504    1.2568   30.3640 N.ar    1  UNL1       -0.2089
      7 C           0.7938    0.4798   29.1601 C.ar    1  UNL1        0.1353
      8 C           2.2041   -0.0233   29.0698 C.ar    1  UNL1        0.0508
      9 C           2.6476   -0.8003   27.8658 C.ar    1  UNL1        0.0221
     10 C           4.0578   -1.3034   27.7755 C.ar    1  UNL1        0.0852
     11 N           4.5013   -2.0804   26.5715 N.am    1  UNL1       -0.2762
     12 C           5.1279   -1.3692   25.4089 C.2     1  UNL1        0.2769
     13 O           5.3109    0.1190   25.4503 O.2     1  UNL1       -0.2674
     14 H           4.3812   -3.0572   26.5444 H       1  UNL1        0.1553
     15 C           5.5714   -2.1462   24.2050 C.2     1  UNL1        0.1905
     16 F           5.4609   -3.6421   24.1954 F       1  UNL1       -0.1997
     17 C           6.1253   -1.4274   23.0107 C.2     1  UNL1        0.0256
     18 C           6.5688   -2.2043   21.8067 C.3     1  UNL1        0.1013
     19 N           5.5502   -2.7670   20.8602 N.3     1  UNL1       -0.2689
     20 C           5.8477   -4.0249   20.0992 C.3     1  UNL1        0.0724
     21 C           4.8292   -4.5876   19.1527 C.3     1  UNL1        0.0174
     22 C           3.5131   -3.8923   18.9672 C.3     1  UNL1        0.0029
     23 C           3.2155   -2.6344   19.7282 C.3     1  UNL1        0.0174
     24 C           4.2341   -2.0717   20.6747 C.3     1  UNL1        0.0724
     25 C           6.7855   -2.8840   29.3469 C.3     1  UNL1        0.2525
     26 O           6.4349   -1.5324   28.7989 O.3     1  UNL1       -0.4701
     27 N          -0.1729    0.2058   28.0464 N.pl3   1  UNL1       -0.2978
     28 H          -0.6470   -0.6562   28.0070 H       1  UNL1        0.1536
     29 C          -0.4174    1.2450   26.9927 C.ar    1  UNL1        0.0504
     30 C          -1.2843    2.4310   27.2959 C.ar    1  UNL1        0.0170
     31 C          -1.5287    3.4702   26.2422 C.ar    1  UNL1        0.0318
     32 C          -0.9063    3.3235   24.8854 C.ar    1  UNL1        0.1507
     33 F          -1.1508    4.3628   23.8317 F       1  UNL1       -0.2033
     34 C          -0.0394    2.1375   24.5822 C.ar    1  UNL1        0.0863
     35 CL          0.5831    1.9908   23.2254 Cl      1  UNL1       -0.0799
     36 C           0.2051    1.0982   25.6359 C.ar    1  UNL1        0.0283
@<TRIPOS>BOND
     1    25    26    1
     2    26     1    1
     3     1     2   ar
     4     2     3   ar
     5     3     4   ar
     6     4     5   ar
     7     5     6   ar
     8     6     7   ar
     9     7    27    1
    10    27    29    1
    11    29    30   ar
    12    30    31   ar
    13    31    32   ar
    14    32    33    1
    15    32    34   ar
    16    34    35    1
    17    34    36   ar
    18     7     8   ar
    19     8     9   ar
    20     9    10   ar
    21    10    11    1
    22    11    12   am
    23    12    13    2
    24    12    15    1
    25    15    16    1
    26    15    17    2
    27    17    18    1
    28    18    19    1
    29    19    20    1
    30    20    21    1
    31    21    22    1
    32    22    23    1
    33    23    24    1
    34    10     1   ar
    35    24    19    1
    36     8     3   ar
    37    36    29   ar
    38    27    28    1
    39    11    14    1
