@<TRIPOS>MOLECULE
*****
 38 41 0 0 0
SMALL
GASTEIGER

@<TRIPOS>ATOM
      1 N          -5.4487  -15.1388   22.9069 N.am    1  UNL1       -0.2683
      2 C          -4.3913  -16.1815   22.6955 C.2     1  UNL1        0.3045
      3 O          -4.7082  -17.6290   22.9285 O.2     1  UNL1       -0.2525
      4 N          -3.0170  -15.7767   22.2511 N.am    1  UNL1       -0.2887
      5 H          -5.2407  -14.1887   22.7539 H       1  UNL1        0.1564
      6 H          -2.8090  -14.8267   22.0982 H       1  UNL1        0.1510
      7 C          -8.4613  -16.2424   25.2427 C.ar    1  UNL1        0.0360
      8 C          -7.0871  -15.8376   24.7983 C.ar    1  UNL1        0.0176
      9 C          -6.8230  -15.5436   23.3513 C.ar    1  UNL1        0.0518
     10 C          -7.9331  -15.6545   22.3487 C.ar    1  UNL1        0.0178
     11 C          -9.3074  -16.0594   22.7931 C.ar    1  UNL1        0.0387
     12 C          -9.5714  -16.3533   24.2401 C.ar    1  UNL1        0.0060
     13 C         -10.4176  -16.1703   21.7905 C.ar    1  UNL1        0.1839
     14 N         -10.3288  -15.8207   20.3344 N.ar    1  UNL1       -0.1081
     15 N         -11.6678  -16.0846   19.7119 N.ar    1  UNL1       -0.0227
     16 N         -12.5841  -16.5972   20.7833 N.ar    1  UNL1       -0.0429
     17 N         -11.8114  -16.6502   22.0678 N.ar    1  UNL1       -0.2113
     18 C         -12.3398  -17.1034   23.3965 C.3     1  UNL1        0.1573
     19 C          -8.4922  -15.4763   27.7250 C.3     1  UNL1        0.0773
     20 C          -8.7254  -16.5363   26.6897 C.2     1  UNL1        0.1735
     21 O          -9.2226  -17.8903   27.1014 O.2     1  UNL1       -0.2913
     22 C          -1.9596  -16.8194   22.0397 C.3     1  UNL1        0.0924
     23 C          -1.5497  -17.2005   20.6480 C.3     1  UNL1        0.0386
     24 C          -2.5941  -17.4652   19.6045 C.3     1  UNL1        0.0738
     25 N          -3.5859  -18.5733   19.8002 N.3     1  UNL1       -0.2726
     26 C          -3.1102  -19.9532   20.1459 C.3     1  UNL1        0.0721
     27 C          -4.1020  -21.0614   20.3417 C.3     1  UNL1        0.0174
     28 C          -5.5696  -20.7897   20.1916 C.3     1  UNL1        0.0031
     29 C          -6.0453  -19.4098   19.8459 C.3     1  UNL1        0.0204
     30 C          -5.0534  -18.3016   19.6501 C.3     1  UNL1        0.0724
     31 C          -7.5128  -19.1380   19.6958 C.3     1  UNL1        0.0277
     32 C          -8.4488  -19.4257   20.8321 C.ar    1  UNL1       -0.0220
     33 C          -9.9002  -19.6887   20.5599 C.ar    1  UNL1       -0.0020
     34 C         -10.8362  -19.9764   21.6963 C.ar    1  UNL1        0.0293
     35 C         -10.3208  -20.0011   23.1047 C.ar    1  UNL1        0.1401
     36 F         -11.2568  -20.2888   24.2410 F       1  UNL1       -0.2042
     37 C          -8.8693  -19.7381   23.3768 C.ar    1  UNL1        0.0293
     38 C          -7.9333  -19.4504   22.2406 C.ar    1  UNL1       -0.0020
@<TRIPOS>BOND
     1    19    20    1
     2    20    21    2
     3    20     7    1
     4     7     8   ar
     5     8     9   ar
     6     9     1    1
     7     1     2   am
     8     2     3    2
     9     2     4   am
    10     4    22    1
    11    22    23    1
    12    23    24    1
    13    24    25    1
    14    25    26    1
    15    26    27    1
    16    27    28    1
    17    28    29    1
    18    29    31    1
    19    31    32    1
    20    32    33   ar
    21    33    34   ar
    22    34    35   ar
    23    35    36    1
    24    35    37   ar
    25    37    38   ar
    26    29    30    1
    27     9    10   ar
    28    10    11   ar
    29    11    13    1
    30    13    14   ar
    31    14    15   ar
    32    15    16   ar
    33    16    17   ar
    34    17    18    1
    35    11    12   ar
    36    12     7   ar
    37    30    25    1
    38    17    13   ar
    39    38    32   ar
    40     1     5    1
    41     4     6    1
@<TRIPOS>MOLECULE
*****
 38 41 0 0 0
SMALL
GASTEIGER

@<TRIPOS>ATOM
      1 N          -5.3957  -20.4962   20.4537 N.am    1  UNL1       -0.2683
      2 C          -6.6327  -19.9543   19.8008 C.2     1  UNL1        0.3045
      3 O          -6.8922  -18.4769   19.7956 O.2     1  UNL1       -0.2525
      4 N          -7.6100  -20.8897   19.1530 N.am    1  UNL1       -0.2887
      5 H          -5.2254  -21.4658   20.4572 H       1  UNL1        0.1564
      6 H          -7.4397  -21.8594   19.1564 H       1  UNL1        0.1510
      7 C          -2.1400  -18.3124   21.0712 C.ar    1  UNL1        0.0360
      8 C          -3.1174  -19.2478   20.4235 C.ar    1  UNL1        0.0176
      9 C          -4.4183  -19.5607   21.1015 C.ar    1  UNL1        0.0518
     10 C          -4.7418  -18.9380   22.4273 C.ar    1  UNL1        0.0178
     11 C          -3.7645  -18.0026   23.0750 C.ar    1  UNL1        0.0387
     12 C          -2.4635  -17.6897   22.3969 C.ar    1  UNL1        0.0060
     13 C          -4.0880  -17.3799   24.4008 C.ar    1  UNL1        0.1839
     14 N          -3.6834  -17.9082   25.7451 N.ar    1  UNL1       -0.1081
     15 N          -4.2182  -16.9745   26.7902 N.ar    1  UNL1       -0.0227
     16 N          -4.9533  -15.8691   26.0917 N.ar    1  UNL1       -0.0429
     17 N          -4.8728  -16.1197   24.6150 N.ar    1  UNL1       -0.2113
     18 C          -5.4720  -15.2609   23.5410 C.3     1  UNL1        0.1573
     19 C          -0.3584  -16.5811   20.3108 C.3     1  UNL1        0.0773
     20 C          -0.8391  -17.9995   20.3932 C.2     1  UNL1        0.1735
     21 O          -0.0189  -19.1051   19.7975 O.2     1  UNL1       -0.2913
     22 C          -8.8470  -20.3478   18.5001 C.3     1  UNL1        0.0924
     23 C         -10.0787  -20.0969   19.3187 C.3     1  UNL1        0.0386
     24 C         -10.4559  -18.6949   19.6957 C.3     1  UNL1        0.0738
     25 N         -11.0795  -18.4196   21.0318 N.3     1  UNL1       -0.2726
     26 C         -12.4744  -17.8738   21.1103 C.3     1  UNL1        0.0721
     27 C         -13.0980  -17.5985   22.4464 C.3     1  UNL1        0.0174
     28 C         -12.3266  -17.8689   23.7042 C.3     1  UNL1        0.0031
     29 C         -10.9316  -18.4147   23.6257 C.3     1  UNL1        0.0204
     30 C         -10.3080  -18.6900   22.2895 C.3     1  UNL1        0.0724
     31 C         -10.1602  -18.6851   24.8834 C.3     1  UNL1        0.0277
     32 C          -9.4542  -17.5635   25.5859 C.ar    1  UNL1       -0.0220
     33 C          -9.0964  -17.6944   27.0367 C.ar    1  UNL1       -0.0020
     34 C          -8.3903  -16.5728   27.7392 C.ar    1  UNL1        0.0293
     35 C          -8.0420  -15.3204   26.9909 C.ar    1  UNL1        0.1401
     36 F          -7.3359  -14.1987   27.6934 F       1  UNL1       -0.2042
     37 C          -8.3997  -15.1895   25.5401 C.ar    1  UNL1        0.0293
     38 C          -9.1058  -16.3110   24.8376 C.ar    1  UNL1       -0.0020
@<TRIPOS>BOND
     1    19    20    1
     2    20    21    2
     3    20     7    1
     4     7     8   ar
     5     8     9   ar
     6     9     1    1
     7     1     2   am
     8     2     3    2
     9     2     4   am
    10     4    22    1
    11    22    23    1
    12    23    24    1
    13    24    25    1
    14    25    26    1
    15    26    27    1
    16    27    28    1
    17    28    29    1
    18    29    31    1
    19    31    32    1
    20    32    33   ar
    21    33    34   ar
    22    34    35   ar
    23    35    36    1
    24    35    37   ar
    25    37    38   ar
    26    29    30    1
    27     9    10   ar
    28    10    11   ar
    29    11    13    1
    30    13    14   ar
    31    14    15   ar
    32    15    16   ar
    33    16    17   ar
    34    17    18    1
    35    11    12   ar
    36    12     7   ar
    37    30    25    1
    38    17    13   ar
    39    38    32   ar
    40     1     5    1
    41     4     6    1
@<TRIPOS>MOLECULE
*****
 38 41 0 0 0
SMALL
GASTEIGER

@<TRIPOS>ATOM
      1 N          -6.6488  -19.9426   21.6069 N.am    1  UNL1       -0.2683
      2 C          -7.5017  -19.6891   20.3993 C.2     1  UNL1        0.3045
      3 O          -7.2309  -18.4998   19.5261 O.2     1  UNL1       -0.2525
      4 N          -8.6253  -20.6248   20.0649 N.am    1  UNL1       -0.2887
      5 H          -6.8265  -20.7231   22.1800 H       1  UNL1        0.1564
      6 H          -8.8030  -21.4053   20.6380 H       1  UNL1        0.1510
      7 C          -4.5497  -17.0942   23.4044 C.ar    1  UNL1        0.0360
      8 C          -5.6733  -18.0300   23.0700 C.ar    1  UNL1        0.0176
      9 C          -5.5251  -19.0068   21.9413 C.ar    1  UNL1        0.0518
     10 C          -4.2534  -19.0478   21.1470 C.ar    1  UNL1        0.0178
     11 C          -3.1298  -18.1121   21.4814 C.ar    1  UNL1        0.0387
     12 C          -3.2780  -17.1353   22.6101 C.ar    1  UNL1        0.0060
     13 C          -1.8580  -18.1531   20.6871 C.ar    1  UNL1        0.1839
     14 N          -0.5272  -18.6411   21.1780 N.ar    1  UNL1       -0.1081
     15 N           0.4596  -18.5029   20.0568 N.ar    1  UNL1       -0.0227
     16 N          -0.2613  -17.9295   18.8729 N.ar    1  UNL1       -0.0429
     17 N          -1.6936  -17.7133   19.2625 N.ar    1  UNL1       -0.2113
     18 C          -2.7721  -17.1552   18.3820 C.3     1  UNL1        0.1573
     19 C          -4.5150  -16.5750   25.9498 C.3     1  UNL1        0.0773
     20 C          -4.6978  -16.1175   24.5331 C.2     1  UNL1        0.1735
     21 O          -5.0289  -14.6831   24.2450 O.2     1  UNL1       -0.2913
     22 C          -9.4782  -20.3713   18.8573 C.3     1  UNL1        0.0924
     23 C         -10.7659  -19.6141   18.9941 C.3     1  UNL1        0.0386
     24 C         -10.7837  -18.2838   19.6869 C.3     1  UNL1        0.0738
     25 N         -11.3201  -18.1724   21.0832 N.3     1  UNL1       -0.2726
     26 C         -12.7412  -17.7487   21.3092 C.3     1  UNL1        0.0721
     27 C         -13.2776  -17.6374   22.7055 C.3     1  UNL1        0.0174
     28 C         -12.3929  -17.9498   23.8760 C.3     1  UNL1        0.0031
     29 C         -10.9719  -18.3735   23.6500 C.3     1  UNL1        0.0204
     30 C         -10.4355  -18.4848   22.2536 C.3     1  UNL1        0.0724
     31 C         -10.0872  -18.6859   24.8204 C.3     1  UNL1        0.0277
     32 C          -9.3380  -17.5841   25.5093 C.ar    1  UNL1       -0.0220
     33 C          -9.0759  -17.6634   26.9841 C.ar    1  UNL1       -0.0020
     34 C          -8.3267  -16.5615   27.6730 C.ar    1  UNL1        0.0293
     35 C          -7.8396  -15.3804   26.8872 C.ar    1  UNL1        0.1401
     36 F          -7.0903  -14.2785   27.5761 F       1  UNL1       -0.2042
     37 C          -8.1017  -15.3011   25.4124 C.ar    1  UNL1        0.0293
     38 C          -8.8509  -16.4029   24.7235 C.ar    1  UNL1       -0.0020
@<TRIPOS>BOND
     1    19    20    1
     2    20    21    2
     3    20     7    1
     4     7     8   ar
     5     8     9   ar
     6     9     1    1
     7     1     2   am
     8     2     3    2
     9     2     4   am
    10     4    22    1
    11    22    23    1
    12    23    24    1
    13    24    25    1
    14    25    26    1
    15    26    27    1
    16    27    28    1
    17    28    29    1
    18    29    31    1
    19    31    32    1
    20    32    33   ar
    21    33    34   ar
    22    34    35   ar
    23    35    36    1
    24    35    37   ar
    25    37    38   ar
    26    29    30    1
    27     9    10   ar
    28    10    11   ar
    29    11    13    1
    30    13    14   ar
    31    14    15   ar
    32    15    16   ar
    33    16    17   ar
    34    17    18    1
    35    11    12   ar
    36    12     7   ar
    37    30    25    1
    38    17    13   ar
    39    38    32   ar
    40     1     5    1
    41     4     6    1
@<TRIPOS>MOLECULE
*****
 38 41 0 0 0
SMALL
GASTEIGER

@<TRIPOS>ATOM
      1 N          -4.8755  -20.2913   20.5580 N.am    1  UNL1       -0.2683
      2 C          -4.0631  -19.2549   19.8398 C.2     1  UNL1        0.3045
      3 O          -4.7450  -18.0974   19.1724 O.2     1  UNL1       -0.2525
      4 N          -2.5689  -19.3759   19.7890 N.am    1  UNL1       -0.2887
      5 H          -4.4280  -21.0510   20.9961 H       1  UNL1        0.1564
      6 H          -2.1214  -20.1356   20.2270 H       1  UNL1        0.1510
      7 C          -8.6761  -20.2583   19.4159 C.ar    1  UNL1        0.0360
      8 C          -7.1819  -20.3794   19.3651 C.ar    1  UNL1        0.0176
      9 C          -6.3698  -20.1702   20.6088 C.ar    1  UNL1        0.0518
     10 C          -7.0519  -19.8400   21.9033 C.ar    1  UNL1        0.0178
     11 C          -8.5461  -19.7189   21.9540 C.ar    1  UNL1        0.0387
     12 C          -9.3582  -19.9281   20.7103 C.ar    1  UNL1        0.0060
     13 C          -9.2283  -19.3887   23.2485 C.ar    1  UNL1        0.1839
     14 N          -9.2727  -20.2596   24.4690 N.ar    1  UNL1       -0.1081
     15 N         -10.0577  -19.5388   25.5245 N.ar    1  UNL1       -0.0227
     16 N         -10.4985  -18.2223   24.9564 N.ar    1  UNL1       -0.0429
     17 N          -9.9859  -18.1296   23.5497 N.ar    1  UNL1       -0.2113
     18 C         -10.1944  -16.9797   22.6095 C.3     1  UNL1        0.1573
     19 C          -8.9702  -21.3537   17.0784 C.3     1  UNL1        0.0773
     20 C          -9.4882  -20.4675   18.1722 C.2     1  UNL1        0.1735
     21 O         -10.8183  -19.7906   18.0223 O.2     1  UNL1       -0.2913
     22 C          -1.7565  -18.3395   19.0707 C.3     1  UNL1        0.0924
     23 C          -0.6509  -17.6233   19.7884 C.3     1  UNL1        0.0386
     24 C          -0.9759  -16.6116   20.8470 C.3     1  UNL1        0.0738
     25 N          -2.0528  -16.8967   21.8515 N.3     1  UNL1       -0.2726
     26 C          -2.1255  -18.2415   22.5119 C.3     1  UNL1        0.0721
     27 C          -3.2024  -18.5266   23.5163 C.3     1  UNL1        0.0174
     28 C          -4.2067  -17.4668   23.8605 C.3     1  UNL1        0.0031
     29 C          -4.1340  -16.1220   23.2001 C.3     1  UNL1        0.0204
     30 C          -3.0570  -15.8369   22.1956 C.3     1  UNL1        0.0724
     31 C          -5.1382  -15.0622   23.5441 C.3     1  UNL1        0.0277
     32 C          -6.0695  -15.2596   24.7032 C.ar    1  UNL1       -0.0220
     33 C          -5.5217  -15.3693   26.0953 C.ar    1  UNL1       -0.0020
     34 C          -6.4532  -15.5667   27.2544 C.ar    1  UNL1        0.0293
     35 C          -7.9324  -15.6543   27.0215 C.ar    1  UNL1        0.1401
     36 F          -8.8638  -15.8517   28.1806 F       1  UNL1       -0.2042
     37 C          -8.4802  -15.5446   25.6294 C.ar    1  UNL1        0.0293
     38 C          -7.5488  -15.3472   24.4703 C.ar    1  UNL1       -0.0020
@<TRIPOS>BOND
     1    19    20    1
     2    20    21    2
     3    20     7    1
     4     7     8   ar
     5     8     9   ar
     6     9     1    1
     7     1     2   am
     8     2     3    2
     9     2     4   am
    10     4    22    1
    11    22    23    1
    12    23    24    1
    13    24    25    1
    14    25    26    1
    15    26    27    1
    16    27    28    1
    17    28    29    1
    18    29    31    1
    19    31    32    1
    20    32    33   ar
    21    33    34   ar
    22    34    35   ar
    23    35    36    1
    24    35    37   ar
    25    37    38   ar
    26    29    30    1
    27     9    10   ar
    28    10    11   ar
    29    11    13    1
    30    13    14   ar
    31    14    15   ar
    32    15    16   ar
    33    16    17   ar
    34    17    18    1
    35    11    12   ar
    36    12     7   ar
    37    30    25    1
    38    17    13   ar
    39    38    32   ar
    40     1     5    1
    41     4     6    1
@<TRIPOS>MOLECULE
*****
 38 41 0 0 0
SMALL
GASTEIGER

@<TRIPOS>ATOM
      1 N          -5.7417  -20.0067   21.5779 N.am    1  UNL1       -0.2683
      2 C          -4.9377  -19.3370   20.5032 C.2     1  UNL1        0.3045
      3 O          -5.4813  -18.1261   19.8043 O.2     1  UNL1       -0.2525
      4 N          -3.5901  -19.8781   20.1273 N.am    1  UNL1       -0.2887
      5 H          -5.3849  -20.8015   22.0366 H       1  UNL1        0.1564
      6 H          -3.2334  -20.6728   20.5860 H       1  UNL1        0.1510
      7 C          -9.2132  -19.5552   23.4474 C.ar    1  UNL1        0.0360
      8 C          -7.8656  -20.0963   23.0715 C.ar    1  UNL1        0.0176
      9 C          -7.0893  -19.4656   21.9538 C.ar    1  UNL1        0.0518
     10 C          -7.6605  -18.2938   21.2118 C.ar    1  UNL1        0.0178
     11 C          -9.0080  -17.7527   21.5877 C.ar    1  UNL1        0.0387
     12 C          -9.7844  -18.3834   22.7055 C.ar    1  UNL1        0.0060
     13 C          -9.5793  -16.5808   20.8458 C.ar    1  UNL1        0.1839
     14 N          -9.0699  -15.1709   20.8979 N.ar    1  UNL1       -0.1081
     15 N          -9.9360  -14.3318   20.0059 N.ar    1  UNL1       -0.0227
     16 N         -10.9807  -15.2231   19.4024 N.ar    1  UNL1       -0.0429
     17 N         -10.7602  -16.6130   19.9215 N.ar    1  UNL1       -0.2113
     18 C         -11.5773  -17.8228   19.5768 C.3     1  UNL1        0.1573
     19 C         -11.1817  -19.4812   25.1414 C.3     1  UNL1        0.0773
     20 C          -9.9895  -20.1860   24.5652 C.2     1  UNL1        0.1735
     21 O          -9.5737  -21.5215   25.1069 O.2     1  UNL1       -0.2913
     22 C          -2.7861  -19.2084   19.0526 C.3     1  UNL1        0.0924
     23 C          -1.5854  -18.3861   19.4164 C.3     1  UNL1        0.0386
     24 C          -1.7472  -17.1526   20.2545 C.3     1  UNL1        0.0738
     25 N          -2.4580  -17.2297   21.5731 N.3     1  UNL1       -0.2726
     26 C          -2.1572  -18.3511   22.5229 C.3     1  UNL1        0.0721
     27 C          -2.8680  -18.4281   23.8415 C.3     1  UNL1        0.0174
     28 C          -3.8796  -17.3838   24.2104 C.3     1  UNL1        0.0031
     29 C          -4.1804  -16.2624   23.2606 C.3     1  UNL1        0.0204
     30 C          -3.4695  -16.1854   21.9420 C.3     1  UNL1        0.0724
     31 C          -5.1920  -15.2181   23.6295 C.3     1  UNL1        0.0277
     32 C          -6.1385  -15.4598   24.7677 C.ar    1  UNL1       -0.0220
     33 C          -7.5186  -15.9818   24.4975 C.ar    1  UNL1       -0.0020
     34 C          -8.4652  -16.2235   25.6358 C.ar    1  UNL1        0.0293
     35 C          -8.0317  -15.9432   27.0442 C.ar    1  UNL1        0.1401
     36 F          -8.9783  -16.1849   28.1825 F       1  UNL1       -0.2042
     37 C          -6.6516  -15.4212   27.3143 C.ar    1  UNL1        0.0293
     38 C          -5.7051  -15.1795   26.1761 C.ar    1  UNL1       -0.0020
@<TRIPOS>BOND
     1    19    20    1
     2    20    21    2
     3    20     7    1
     4     7     8   ar
     5     8     9   ar
     6     9     1    1
     7     1     2   am
     8     2     3    2
     9     2     4   am
    10     4    22    1
    11    22    23    1
    12    23    24    1
    13    24    25    1
    14    25    26    1
    15    26    27    1
    16    27    28    1
    17    28    29    1
    18    29    31    1
    19    31    32    1
    20    32    33   ar
    21    33    34   ar
    22    34    35   ar
    23    35    36    1
    24    35    37   ar
    25    37    38   ar
    26    29    30    1
    27     9    10   ar
    28    10    11   ar
    29    11    13    1
    30    13    14   ar
    31    14    15   ar
    32    15    16   ar
    33    16    17   ar
    34    17    18    1
    35    11    12   ar
    36    12     7   ar
    37    30    25    1
    38    17    13   ar
    39    38    32   ar
    40     1     5    1
    41     4     6    1
@<TRIPOS>MOLECULE
*****
 38 41 0 0 0
SMALL
GASTEIGER

@<TRIPOS>ATOM
      1 N           5.0916   -3.4676   32.8743 N.am    1  UNL1       -0.2683
      2 C           6.3435   -3.7658   32.1037 C.2     1  UNL1        0.3045
      3 O           7.1316   -2.6463   31.4908 O.2     1  UNL1       -0.2525
      4 N           6.8074   -5.1835   31.9460 N.am    1  UNL1       -0.2887
      5 H           4.5744   -4.2024   33.2765 H       1  UNL1        0.1564
      6 H           6.2901   -5.9183   32.3483 H       1  UNL1        0.1510
      7 C           4.5343    0.1460   34.4175 C.ar    1  UNL1        0.0360
      8 C           4.9980   -1.2718   34.2598 C.ar    1  UNL1        0.0176
      9 C           4.6278   -2.0498   33.0320 C.ar    1  UNL1        0.0518
     10 C           3.7938   -1.4102   31.9619 C.ar    1  UNL1        0.0178
     11 C           3.3300    0.0076   32.1196 C.ar    1  UNL1        0.0387
     12 C           3.7002    0.7856   33.3474 C.ar    1  UNL1        0.0060
     13 C           2.4959    0.6473   31.0494 C.ar    1  UNL1        0.1839
     14 N           1.1056    1.1846   31.2184 N.ar    1  UNL1       -0.1081
     15 N           0.6561    1.7315   29.8959 N.ar    1  UNL1       -0.0227
     16 N           1.7686    1.5321   28.9096 N.ar    1  UNL1       -0.0429
     17 N           2.9056    0.8620   29.6226 N.ar    1  UNL1       -0.2113
     18 C           4.2213    0.4747   29.0152 C.3     1  UNL1        0.1573
     19 C           4.7656    0.2969   37.0008 C.3     1  UNL1        0.0773
     20 C           4.9045    0.9240   35.6453 C.2     1  UNL1        0.1735
     21 O           5.4137    2.3291   35.5176 O.2     1  UNL1       -0.2913
     22 C           8.0593   -5.4818   31.1755 C.3     1  UNL1        0.0924
     23 C           7.9723   -6.1245   29.8229 C.3     1  UNL1        0.0386
     24 C           7.2663   -5.4206   28.7021 C.3     1  UNL1        0.0738
     25 N           7.5145   -5.8346   27.2819 N.3     1  UNL1       -0.2726
     26 C           7.6420   -7.2886   26.9359 C.3     1  UNL1        0.0721
     27 C           7.8902   -7.7026   25.5157 C.3     1  UNL1        0.0174
     28 C           8.0110   -6.6626   24.4415 C.3     1  UNL1        0.0031
     29 C           7.8836   -5.2087   24.7875 C.3     1  UNL1        0.0204
     30 C           7.6353   -4.7947   26.2078 C.3     1  UNL1        0.0724
     31 C           8.0044   -4.1687   23.7134 C.3     1  UNL1        0.0277
     32 C           6.8972   -3.9866   22.7179 C.ar    1  UNL1       -0.0220
     33 C           5.4988   -3.7221   23.1915 C.ar    1  UNL1       -0.0020
     34 C           4.3916   -3.5400   22.1959 C.ar    1  UNL1        0.0293
     35 C           4.6829   -3.6225   20.7268 C.ar    1  UNL1        0.1401
     36 F           3.5757   -3.4404   19.7313 F       1  UNL1       -0.2042
     37 C           6.0814   -3.8870   20.2532 C.ar    1  UNL1        0.0293
     38 C           7.1885   -4.0691   21.2487 C.ar    1  UNL1       -0.0020
@<TRIPOS>BOND
     1    19    20    1
     2    20    21    2
     3    20     7    1
     4     7     8   ar
     5     8     9   ar
     6     9     1    1
     7     1     2   am
     8     2     3    2
     9     2     4   am
    10     4    22    1
    11    22    23    1
    12    23    24    1
    13    24    25    1
    14    25    26    1
    15    26    27    1
    16    27    28    1
    17    28    29    1
    18    29    31    1
    19    31    32    1
    20    32    33   ar
    21    33    34   ar
    22    34    35   ar
    23    35    36    1
    24    35    37   ar
    25    37    38   ar
    26    29    30    1
    27     9    10   ar
    28    10    11   ar
    29    11    13    1
    30    13    14   ar
    31    14    15   ar
    32    15    16   ar
    33    16    17   ar
    34    17    18    1
    35    11    12   ar
    36    12     7   ar
    37    30    25    1
    38    17    13   ar
    39    38    32   ar
    40     1     5    1
    41     4     6    1
@<TRIPOS>MOLECULE
*****
 38 41 0 0 0
SMALL
GASTEIGER

@<TRIPOS>ATOM
      1 N          -8.8911  -19.7592   23.5181 N.am    1  UNL1       -0.2683
      2 C          -7.9702  -20.1257   22.3922 C.2     1  UNL1        0.3045
      3 O          -8.2935  -19.7012   20.9903 O.2     1  UNL1       -0.2525
      4 N          -6.7260  -20.9167   22.6683 N.am    1  UNL1       -0.2887
      5 H          -8.6790  -20.0378   24.4382 H       1  UNL1        0.1564
      6 H          -6.5138  -21.1953   23.5884 H       1  UNL1        0.1510
      7 C         -12.5727  -18.3181   23.8642 C.ar    1  UNL1        0.0360
      8 C         -11.3285  -19.1091   24.1402 C.ar    1  UNL1        0.0176
      9 C         -10.1354  -18.9682   23.2420 C.ar    1  UNL1        0.0518
     10 C         -10.1866  -18.0364   22.0677 C.ar    1  UNL1        0.0178
     11 C         -11.4309  -17.2454   21.7916 C.ar    1  UNL1        0.0387
     12 C         -12.6239  -17.3863   22.6899 C.ar    1  UNL1        0.0060
     13 C         -11.4821  -16.3135   20.6172 C.ar    1  UNL1        0.1839
     14 N         -12.6111  -16.1915   19.6372 N.ar    1  UNL1       -0.1081
     15 N         -12.2402  -15.1427   18.6310 N.ar    1  UNL1       -0.0227
     16 N         -10.8819  -14.6165   18.9893 N.ar    1  UNL1       -0.0429
     17 N         -10.4135  -15.3401   20.2168 N.ar    1  UNL1       -0.2113
     18 C          -9.1058  -15.1277   20.9203 C.3     1  UNL1        0.1573
     19 C         -15.1496  -18.3754   24.1899 C.3     1  UNL1        0.0773
     20 C         -13.7657  -18.4590   24.7624 C.2     1  UNL1        0.1735
     21 O         -13.5748  -18.6835   26.2331 O.2     1  UNL1       -0.2913
     22 C          -5.8050  -21.2832   21.5424 C.3     1  UNL1        0.0924
     23 C          -5.5986  -20.3308   20.4020 C.3     1  UNL1        0.0386
     24 C          -4.2119  -19.8990   20.0271 C.3     1  UNL1        0.0738
     25 N          -3.5772  -18.7301   20.7204 N.3     1  UNL1       -0.2726
     26 C          -2.5776  -17.8796   19.9942 C.3     1  UNL1        0.0721
     27 C          -1.9430  -16.7107   20.6875 C.3     1  UNL1        0.0174
     28 C          -2.3079  -16.3922   22.1072 C.3     1  UNL1        0.0031
     29 C          -3.3075  -17.2427   22.8335 C.3     1  UNL1        0.0204
     30 C          -3.9422  -18.4116   22.1401 C.3     1  UNL1        0.0724
     31 C          -3.6724  -16.9242   24.2531 C.3     1  UNL1        0.0277
     32 C          -5.0520  -16.4352   24.5812 C.ar    1  UNL1       -0.0220
     33 C          -6.1669  -16.6179   23.5944 C.ar    1  UNL1       -0.0020
     34 C          -7.5465  -16.1289   23.9226 C.ar    1  UNL1        0.0293
     35 C          -7.8112  -15.4572   25.2374 C.ar    1  UNL1        0.1401
     36 F          -9.1908  -14.9682   25.5655 F       1  UNL1       -0.2042
     37 C          -6.6963  -15.2746   26.2241 C.ar    1  UNL1        0.0293
     38 C          -5.3167  -15.7635   25.8961 C.ar    1  UNL1       -0.0020
@<TRIPOS>BOND
     1    19    20    1
     2    20    21    2
     3    20     7    1
     4     7     8   ar
     5     8     9   ar
     6     9     1    1
     7     1     2   am
     8     2     3    2
     9     2     4   am
    10     4    22    1
    11    22    23    1
    12    23    24    1
    13    24    25    1
    14    25    26    1
    15    26    27    1
    16    27    28    1
    17    28    29    1
    18    29    31    1
    19    31    32    1
    20    32    33   ar
    21    33    34   ar
    22    34    35   ar
    23    35    36    1
    24    35    37   ar
    25    37    38   ar
    26    29    30    1
    27     9    10   ar
    28    10    11   ar
    29    11    13    1
    30    13    14   ar
    31    14    15   ar
    32    15    16   ar
    33    16    17   ar
    34    17    18    1
    35    11    12   ar
    36    12     7   ar
    37    30    25    1
    38    17    13   ar
    39    38    32   ar
    40     1     5    1
    41     4     6    1
@<TRIPOS>MOLECULE
*****
 38 41 0 0 0
SMALL
GASTEIGER

@<TRIPOS>ATOM
      1 N           4.9947   -3.3044   32.9861 N.am    1  UNL1       -0.2683
      2 C           6.2029   -3.5925   32.1451 C.2     1  UNL1        0.3045
      3 O           6.9777   -2.4630   31.5335 O.2     1  UNL1       -0.2525
      4 N           6.6363   -5.0101   31.9156 N.am    1  UNL1       -0.2887
      5 H           4.4862   -4.0457   33.3875 H       1  UNL1        0.1564
      6 H           6.1278   -5.7514   32.3169 H       1  UNL1        0.1510
      7 C           3.4124    0.2810   32.3611 C.ar    1  UNL1        0.0360
      8 C           3.8457   -1.1365   32.1317 C.ar    1  UNL1        0.0176
      9 C           4.5614   -1.8868   33.2156 C.ar    1  UNL1        0.0518
     10 C           4.8437   -1.2195   34.5290 C.ar    1  UNL1        0.0178
     11 C           4.4104    0.1981   34.7584 C.ar    1  UNL1        0.0387
     12 C           3.6947    0.9483   33.6745 C.ar    1  UNL1        0.0060
     13 C           4.6927    0.8654   36.0718 C.ar    1  UNL1        0.1839
     14 N           3.7031    1.0930   37.1759 N.ar    1  UNL1       -0.1081
     15 N           4.4129    1.7905   38.2982 N.ar    1  UNL1       -0.0227
     16 N           5.8412    1.9941   37.8877 N.ar    1  UNL1       -0.0429
     17 N           6.0141    1.4224   36.5118 N.ar    1  UNL1       -0.2113
     18 C           7.2853    1.4098   35.7156 C.3     1  UNL1        0.1573
     19 C           3.3620    2.1964   30.6065 C.3     1  UNL1        0.0773
     20 C           2.6967    1.0313   31.2772 C.2     1  UNL1        0.1735
     21 O           1.3157    0.6165   30.8640 O.2     1  UNL1       -0.2913
     22 C           7.8444   -5.2982   31.0745 C.3     1  UNL1        0.0924
     23 C           7.7033   -6.0794   29.8017 C.3     1  UNL1        0.0386
     24 C           6.9411   -5.5002   28.6469 C.3     1  UNL1        0.0738
     25 N           7.3145   -5.8684   27.2416 N.3     1  UNL1       -0.2726
     26 C           7.5709   -7.3027   26.8850 C.3     1  UNL1        0.0721
     27 C           7.9443   -7.6710   25.4797 C.3     1  UNL1        0.0174
     28 C           8.0613   -6.6049   24.4309 C.3     1  UNL1        0.0031
     29 C           7.8049   -5.1707   24.7875 C.3     1  UNL1        0.0204
     30 C           7.4315   -4.8024   26.1929 C.3     1  UNL1        0.0724
     31 C           7.9220   -4.1046   23.7388 C.3     1  UNL1        0.0277
     32 C           6.8261   -3.9202   22.7314 C.ar    1  UNL1       -0.0220
     33 C           5.4213   -3.6628   23.1900 C.ar    1  UNL1       -0.0020
     34 C           4.3254   -3.4783   22.1825 C.ar    1  UNL1        0.0293
     35 C           4.6343   -3.5512   20.7164 C.ar    1  UNL1        0.1401
     36 F           3.5383   -3.3667   19.7089 F       1  UNL1       -0.2042
     37 C           6.0391   -3.8086   20.2579 C.ar    1  UNL1        0.0293
     38 C           7.1349   -3.9931   21.2653 C.ar    1  UNL1       -0.0020
@<TRIPOS>BOND
     1    19    20    1
     2    20    21    2
     3    20     7    1
     4     7     8   ar
     5     8     9   ar
     6     9     1    1
     7     1     2   am
     8     2     3    2
     9     2     4   am
    10     4    22    1
    11    22    23    1
    12    23    24    1
    13    24    25    1
    14    25    26    1
    15    26    27    1
    16    27    28    1
    17    28    29    1
    18    29    31    1
    19    31    32    1
    20    32    33   ar
    21    33    34   ar
    22    34    35   ar
    23    35    36    1
    24    35    37   ar
    25    37    38   ar
    26    29    30    1
    27     9    10   ar
    28    10    11   ar
    29    11    13    1
    30    13    14   ar
    31    14    15   ar
    32    15    16   ar
    33    16    17   ar
    34    17    18    1
    35    11    12   ar
    36    12     7   ar
    37    30    25    1
    38    17    13   ar
    39    38    32   ar
    40     1     5    1
    41     4     6    1
@<TRIPOS>MOLECULE
*****
 38 41 0 0 0
SMALL
GASTEIGER

@<TRIPOS>ATOM
      1 N           4.4230   -2.4270   24.0601 N.am    1  UNL1       -0.2683
      2 C           5.1314   -1.3945   24.8860 C.2     1  UNL1        0.3045
      3 O           5.3574   -0.0182   24.3336 O.2     1  UNL1       -0.2525
      4 N           5.6139   -1.7381   26.2640 N.am    1  UNL1       -0.2887
      5 H           4.2747   -3.3303   24.4226 H       1  UNL1        0.1564
      6 H           5.4655   -2.6413   26.6265 H       1  UNL1        0.1510
      7 C           3.9727   -2.5004   20.1178 C.ar    1  UNL1        0.0360
      8 C           4.4551   -2.8440   21.4959 C.ar    1  UNL1        0.0176
      9 C           3.9406   -2.0834   22.6820 C.ar    1  UNL1        0.0518
     10 C           2.9437   -0.9791   22.4900 C.ar    1  UNL1        0.0178
     11 C           2.4614   -0.6355   21.1119 C.ar    1  UNL1        0.0387
     12 C           2.9758   -1.3961   19.9258 C.ar    1  UNL1        0.0060
     13 C           1.4645    0.4687   20.9198 C.ar    1  UNL1        0.1839
     14 N          -0.0152    0.2995   20.7406 N.ar    1  UNL1       -0.1081
     15 N          -0.6220    1.6622   20.5833 N.ar    1  UNL1       -0.0227
     16 N           0.4827    2.6737   20.6652 N.ar    1  UNL1       -0.0429
     17 N           1.7721    1.9361   20.8732 N.ar    1  UNL1       -0.2113
     18 C           3.1307    2.5569   21.0104 C.3     1  UNL1        0.1573
     19 C           4.3633   -4.7552   18.8877 C.3     1  UNL1        0.0773
     20 C           4.4872   -3.2610   18.9317 C.2     1  UNL1        0.1735
     21 O           5.1255   -2.5274   17.7897 O.2     1  UNL1       -0.2913
     22 C           6.3223   -0.7055   27.0899 C.3     1  UNL1        0.0924
     23 C           5.7176   -0.2317   28.3783 C.3     1  UNL1        0.0386
     24 C           4.5280   -0.9410   28.9540 C.3     1  UNL1        0.0738
     25 N           3.2927   -0.1674   29.3086 N.3     1  UNL1       -0.2726
     26 C           3.2672    0.6785   30.5470 C.3     1  UNL1        0.0721
     27 C           2.0320    1.4521   30.9016 C.3     1  UNL1        0.0174
     28 C           0.8221    1.3797   30.0177 C.3     1  UNL1        0.0031
     29 C           0.8476    0.5337   28.7793 C.3     1  UNL1        0.0204
     30 C           2.0830   -0.2399   28.4248 C.3     1  UNL1        0.0724
     31 C          -0.3621    0.4612   27.8955 C.3     1  UNL1        0.0277
     32 C          -0.4910    1.3881   26.7232 C.ar    1  UNL1       -0.0220
     33 C          -1.3375    2.6216   26.8318 C.ar    1  UNL1       -0.0020
     34 C          -1.4664    3.5484   25.6594 C.ar    1  UNL1        0.0293
     35 C          -0.7487    3.2417   24.3785 C.ar    1  UNL1        0.1401
     36 F          -0.8776    4.1686   23.2061 F       1  UNL1       -0.2042
     37 C           0.0978    2.0082   24.2698 C.ar    1  UNL1        0.0293
     38 C           0.2267    1.0814   25.4421 C.ar    1  UNL1       -0.0020
@<TRIPOS>BOND
     1    19    20    1
     2    20    21    2
     3    20     7    1
     4     7     8   ar
     5     8     9   ar
     6     9     1    1
     7     1     2   am
     8     2     3    2
     9     2     4   am
    10     4    22    1
    11    22    23    1
    12    23    24    1
    13    24    25    1
    14    25    26    1
    15    26    27    1
    16    27    28    1
    17    28    29    1
    18    29    31    1
    19    31    32    1
    20    32    33   ar
    21    33    34   ar
    22    34    35   ar
    23    35    36    1
    24    35    37   ar
    25    37    38   ar
    26    29    30    1
    27     9    10   ar
    28    10    11   ar
    29    11    13    1
    30    13    14   ar
    31    14    15   ar
    32    15    16   ar
    33    16    17   ar
    34    17    18    1
    35    11    12   ar
    36    12     7   ar
    37    30    25    1
    38    17    13   ar
    39    38    32   ar
    40     1     5    1
    41     4     6    1
