@<TRIPOS>MOLECULE
*****
 37 40 0 0 0
SMALL
GASTEIGER

@<TRIPOS>ATOM
      1 N           3.8154   -1.1405   27.2528 N.pl3   1  UNL1       -0.2780
      2 C           5.0445   -1.9739   27.4642 C.3     1  UNL1        0.0941
      3 C           5.8116   -2.4919   26.2838 C.3     1  UNL1        0.0306
      4 C           5.3496   -2.1765   24.8920 C.3     1  UNL1        0.0799
      5 C           4.1205   -1.3431   24.6806 C.3     1  UNL1        0.0306
      6 C           3.3534   -0.8250   25.8611 C.3     1  UNL1        0.0941
      7 C           0.8932    0.4331   29.4287 C.ar    1  UNL1        0.2217
      8 N           1.6603   -0.0849   28.2483 N.ar    1  UNL1       -0.1808
      9 C           3.0484   -0.6225   28.4332 C.ar    1  UNL1        0.2249
     10 N           3.6694   -0.6420   29.7984 N.ar    1  UNL1       -0.1807
     11 C           2.9024   -0.1240   30.9788 C.ar    1  UNL1        0.2250
     12 N           1.5142    0.4135   30.7939 N.ar    1  UNL1       -0.1808
     13 N           3.5234   -0.1436   32.3441 N.pl3   1  UNL1       -0.2752
     14 C           4.2834   -1.3518   32.8051 C.3     1  UNL1        0.1109
     15 C           4.9044   -1.3714   34.1704 C.3     1  UNL1        0.0939
     16 N           4.7654   -0.1826   35.0747 N.3     1  UNL1       -0.2686
     17 C           5.3864   -0.2021   36.4399 C.3     1  UNL1        0.0897
     18 C           4.0054    1.0256   34.6136 C.3     1  UNL1        0.0939
     19 C           3.3844    1.0451   33.2483 C.3     1  UNL1        0.1109
     20 C          -1.6432    0.0277   29.0385 C.3     1  UNL1        0.1108
     21 N          -0.4949    0.9706   29.2438 N.pl3   1  UNL1       -0.3012
     22 H          -0.6523    1.9424   29.2572 H       1  UNL1        0.1497
     23 C           6.1166   -2.6945   23.7117 C.2     1  UNL1        0.2223
     24 O           7.5920   -2.4445   23.6077 O.2     1  UNL1       -0.2751
     25 N           5.4083   -3.4625   22.6353 N.am    1  UNL1       -0.3004
     26 H           4.4400   -3.6265   22.7036 H       1  UNL1        0.1497
     27 C           6.1754   -3.9805   21.4550 C.3     1  UNL1        0.1163
     28 C           6.2998   -3.1445   20.2158 C.ar    1  UNL1        0.0013
     29 C           7.4694   -2.2204   20.0487 C.ar    1  UNL1       -0.0027
     30 C           7.5937   -1.3843   18.8095 C.ar    1  UNL1       -0.0003
     31 C           6.5485   -1.4724   17.7374 C.ar    1  UNL1       -0.0001
     32 C           5.3787   -2.3966   17.9044 C.ar    1  UNL1        0.0036
     33 C           5.2544   -3.2326   19.1436 C.ar    1  UNL1        0.0691
     34 C           4.0848   -4.1567   19.3106 C.3     1  UNL1        0.4183
     35 F           2.9151   -5.0808   19.4777 F       1  UNL1       -0.1659
     36 F           4.8365   -5.2379   18.5925 F       1  UNL1       -0.1659
     37 F           3.3330   -3.0754   20.0287 F       1  UNL1       -0.1659
@<TRIPOS>BOND
     1    20    21    1
     2    21     7    1
     3     7     8   ar
     4     8     9   ar
     5     9     1    1
     6     1     2    1
     7     2     3    1
     8     3     4    1
     9     4    23    1
    10    23    24    2
    11    23    25   am
    12    25    27    1
    13    27    28    1
    14    28    29   ar
    15    29    30   ar
    16    30    31   ar
    17    31    32   ar
    18    32    33   ar
    19    33    34    1
    20    34    35    1
    21    34    36    1
    22    34    37    1
    23     4     5    1
    24     5     6    1
    25     9    10   ar
    26    10    11   ar
    27    11    13    1
    28    13    14    1
    29    14    15    1
    30    15    16    1
    31    16    17    1
    32    16    18    1
    33    18    19    1
    34    11    12   ar
    35    12     7   ar
    36     6     1    1
    37    19    13    1
    38    33    28   ar
    39    21    22    1
    40    25    26    1
@<TRIPOS>MOLECULE
*****
 37 40 0 0 0
SMALL
GASTEIGER

@<TRIPOS>ATOM
      1 N           7.0529   -4.5420   27.4722 N.pl3   1  UNL1       -0.2780
      2 C           7.3880   -5.8335   26.7868 C.3     1  UNL1        0.0941
      3 C           7.4667   -5.8898   25.2899 C.3     1  UNL1        0.0306
      4 C           7.2103   -4.6546   24.4784 C.3     1  UNL1        0.0799
      5 C           6.8753   -3.3631   25.1638 C.3     1  UNL1        0.0306
      6 C           6.7966   -3.3068   26.6607 C.3     1  UNL1        0.0941
      7 C           7.5223   -5.5140   31.2912 C.ar    1  UNL1        0.2217
      8 N           7.6010   -5.5702   29.7943 N.ar    1  UNL1       -0.1808
      9 C           6.9742   -4.4857   28.9691 C.ar    1  UNL1        0.2249
     10 N           6.2688   -3.3450   29.6407 N.ar    1  UNL1       -0.1807
     11 C           6.1901   -3.2888   31.1375 C.ar    1  UNL1        0.2250
     12 N           6.8169   -4.3733   31.9628 N.ar    1  UNL1       -0.1808
     13 N           5.4847   -2.1480   31.8092 N.pl3   1  UNL1       -0.2752
     14 C           4.9852   -2.2987   33.2155 C.3     1  UNL1        0.1109
     15 C           4.2798   -1.1579   33.8872 C.3     1  UNL1        0.0939
     16 N           4.0739    0.1335   33.1525 N.3     1  UNL1       -0.2686
     17 C           3.3685    1.2742   33.8241 C.3     1  UNL1        0.0897
     18 C           4.5734    0.2841   31.7461 C.3     1  UNL1        0.0939
     19 C           5.2788   -0.8566   31.0745 C.3     1  UNL1        0.1109
     20 C           9.4992   -7.1371   31.7465 C.3     1  UNL1        0.1108
     21 N           8.1490   -6.5985   32.1164 N.pl3   1  UNL1       -0.3012
     22 H           7.6742   -6.9568   32.9009 H       1  UNL1        0.1497
     23 C           7.2891   -4.7109   22.9815 C.2     1  UNL1        0.2223
     24 O           8.2268   -5.6737   22.3156 O.2     1  UNL1       -0.2751
     25 N           6.4300   -3.8044   22.1507 N.am    1  UNL1       -0.3004
     26 H           5.8146   -3.1725   22.5878 H       1  UNL1        0.1497
     27 C           6.5087   -3.8607   20.6538 C.3     1  UNL1        0.1163
     28 C           6.2059   -2.6374   19.8403 C.ar    1  UNL1        0.0013
     29 C           7.1766   -1.4942   19.8150 C.ar    1  UNL1       -0.0027
     30 C           6.8738   -0.2709   19.0015 C.ar    1  UNL1       -0.0003
     31 C           5.6001   -0.1908   18.2132 C.ar    1  UNL1       -0.0001
     32 C           4.6293   -1.3341   18.2385 C.ar    1  UNL1        0.0036
     33 C           4.9321   -2.5574   19.0520 C.ar    1  UNL1        0.0691
     34 C           3.9614   -3.7006   19.0773 C.3     1  UNL1        0.4183
     35 F           2.9906   -4.8438   19.1026 F       1  UNL1       -0.1659
     36 F           4.8587   -4.4827   18.1646 F       1  UNL1       -0.1659
     37 F           3.0641   -2.9184   19.9900 F       1  UNL1       -0.1659
@<TRIPOS>BOND
     1    20    21    1
     2    21     7    1
     3     7     8   ar
     4     8     9   ar
     5     9     1    1
     6     1     2    1
     7     2     3    1
     8     3     4    1
     9     4    23    1
    10    23    24    2
    11    23    25   am
    12    25    27    1
    13    27    28    1
    14    28    29   ar
    15    29    30   ar
    16    30    31   ar
    17    31    32   ar
    18    32    33   ar
    19    33    34    1
    20    34    35    1
    21    34    36    1
    22    34    37    1
    23     4     5    1
    24     5     6    1
    25     9    10   ar
    26    10    11   ar
    27    11    13    1
    28    13    14    1
    29    14    15    1
    30    15    16    1
    31    16    17    1
    32    16    18    1
    33    18    19    1
    34    11    12   ar
    35    12     7   ar
    36     6     1    1
    37    19    13    1
    38    33    28   ar
    39    21    22    1
    40    25    26    1
@<TRIPOS>MOLECULE
*****
 37 40 0 0 0
SMALL
GASTEIGER

@<TRIPOS>ATOM
      1 N           6.5899   -4.0350   27.6652 N.pl3   1  UNL1       -0.2780
      2 C           6.9616   -5.2480   26.8649 C.3     1  UNL1        0.0941
      3 C           6.8903   -5.2093   25.3672 C.3     1  UNL1        0.0306
      4 C           6.4472   -3.9574   24.6695 C.3     1  UNL1        0.0799
      5 C           6.0755   -2.7443   25.4698 C.3     1  UNL1        0.0306
      6 C           6.1469   -2.7832   26.9676 C.3     1  UNL1        0.0941
      7 C           7.3477   -5.2933   31.3520 C.ar    1  UNL1        0.2217
      8 N           7.2763   -5.2545   29.8542 N.ar    1  UNL1       -0.1808
      9 C           6.6612   -4.0738   29.1630 C.ar    1  UNL1        0.2249
     10 N           6.1175   -2.9320   29.9696 N.ar    1  UNL1       -0.1807
     11 C           6.1889   -2.9709   31.4674 C.ar    1  UNL1        0.2250
     12 N           6.8040   -4.1516   32.1586 N.ar    1  UNL1       -0.1808
     13 N           5.6451   -1.8291   32.2741 N.pl3   1  UNL1       -0.2752
     14 C           4.2247   -1.3860   32.0840 C.3     1  UNL1        0.1109
     15 C           3.6810   -0.2441   32.8907 C.3     1  UNL1        0.0939
     16 N           4.5577    0.4545   33.8874 N.3     1  UNL1       -0.2686
     17 C           4.0140    1.5963   34.6941 C.3     1  UNL1        0.0897
     18 C           5.9781    0.0113   34.0774 C.3     1  UNL1        0.0939
     19 C           6.5218   -1.1305   33.2707 C.3     1  UNL1        0.1109
     20 C           9.3508   -6.9143   31.6834 C.3     1  UNL1        0.1108
     21 N           7.9628   -6.4740   32.0431 N.pl3   1  UNL1       -0.3012
     22 H           7.4554   -6.9599   32.7329 H       1  UNL1        0.1497
     23 C           6.3759   -3.9186   23.1718 C.2     1  UNL1        0.2223
     24 O           7.3454   -4.7191   22.3538 O.2     1  UNL1       -0.2751
     25 N           5.3350   -3.0793   22.4920 N.am    1  UNL1       -0.3004
     26 H           4.6987   -2.5539   23.0288 H       1  UNL1        0.1497
     27 C           5.2637   -3.0405   20.9942 C.3     1  UNL1        0.1163
     28 C           4.3350   -2.0801   20.3122 C.ar    1  UNL1        0.0013
     29 C           3.0810   -1.6314   21.0021 C.ar    1  UNL1       -0.0027
     30 C           2.1523   -0.6710   20.3201 C.ar    1  UNL1       -0.0003
     31 C           2.4776   -0.1593   18.9481 C.ar    1  UNL1       -0.0001
     32 C           3.7317   -0.6081   18.2581 C.ar    1  UNL1        0.0036
     33 C           4.6604   -1.5684   18.9401 C.ar    1  UNL1        0.0691
     34 C           5.9144   -2.0172   18.2502 C.3     1  UNL1        0.4183
     35 F           7.1684   -2.4659   17.5603 F       1  UNL1       -0.1659
     36 F           6.5990   -0.7505   18.6708 F       1  UNL1       -0.1659
     37 F           5.2298   -3.2838   17.8296 F       1  UNL1       -0.1659
@<TRIPOS>BOND
     1    20    21    1
     2    21     7    1
     3     7     8   ar
     4     8     9   ar
     5     9     1    1
     6     1     2    1
     7     2     3    1
     8     3     4    1
     9     4    23    1
    10    23    24    2
    11    23    25   am
    12    25    27    1
    13    27    28    1
    14    28    29   ar
    15    29    30   ar
    16    30    31   ar
    17    31    32   ar
    18    32    33   ar
    19    33    34    1
    20    34    35    1
    21    34    36    1
    22    34    37    1
    23     4     5    1
    24     5     6    1
    25     9    10   ar
    26    10    11   ar
    27    11    13    1
    28    13    14    1
    29    14    15    1
    30    15    16    1
    31    16    17    1
    32    16    18    1
    33    18    19    1
    34    11    12   ar
    35    12     7   ar
    36     6     1    1
    37    19    13    1
    38    33    28   ar
    39    21    22    1
    40    25    26    1
@<TRIPOS>MOLECULE
*****
 37 40 0 0 0
SMALL
GASTEIGER

@<TRIPOS>ATOM
      1 N           7.2858   -4.6184   25.4480 N.pl3   1  UNL1       -0.2780
      2 C           7.9112   -5.2590   24.2445 C.3     1  UNL1        0.0941
      3 C           7.4453   -4.8850   22.8686 C.3     1  UNL1        0.0306
      4 C           6.3540   -3.8704   22.6963 C.3     1  UNL1        0.0799
      5 C           5.7286   -3.2298   23.8998 C.3     1  UNL1        0.0306
      6 C           6.1946   -3.6038   25.2757 C.3     1  UNL1        0.0941
      7 C           8.8769   -6.6935   28.4335 C.ar    1  UNL1        0.2217
      8 N           8.4109   -6.3194   27.0577 N.ar    1  UNL1       -0.1808
      9 C           7.7518   -4.9924   26.8240 C.ar    1  UNL1        0.2249
     10 N           7.5586   -4.0395   27.9661 N.ar    1  UNL1       -0.1807
     11 C           8.0245   -4.4135   29.3419 C.ar    1  UNL1        0.2250
     12 N           8.6836   -5.7405   29.5756 N.ar    1  UNL1       -0.1808
     13 N           7.8313   -3.4606   30.4842 N.pl3   1  UNL1       -0.2752
     14 C           8.8803   -3.3448   31.5500 C.3     1  UNL1        0.1109
     15 C           8.6871   -2.3919   32.6922 C.3     1  UNL1        0.0939
     16 N           7.4448   -1.5547   32.7685 N.3     1  UNL1       -0.2686
     17 C           7.2516   -0.6017   33.9107 C.3     1  UNL1        0.0897
     18 C           6.3958   -1.6704   31.7026 C.3     1  UNL1        0.0939
     19 C           6.5890   -2.6233   30.5604 C.3     1  UNL1        0.1109
     20 C           9.3774   -9.1238   27.6635 C.3     1  UNL1        0.1108
     21 N           9.5360   -8.0205   28.6672 N.pl3   1  UNL1       -0.3012
     22 H          10.0727   -8.1672   29.4794 H       1  UNL1        0.1497
     23 C           5.8881   -3.4964   21.3204 C.2     1  UNL1        0.2223
     24 O           6.0941   -4.4435   20.1756 O.2     1  UNL1       -0.2751
     25 N           5.2162   -2.1754   21.0893 N.am    1  UNL1       -0.3004
     26 H           5.0810   -1.5538   21.8407 H       1  UNL1        0.1497
     27 C           4.7503   -1.8014   19.7134 C.3     1  UNL1        0.1163
     28 C           3.4684   -1.0430   19.5360 C.ar    1  UNL1        0.0013
     29 C           2.3522   -1.2153   20.5230 C.ar    1  UNL1       -0.0027
     30 C           1.0703   -0.4569   20.3456 C.ar    1  UNL1       -0.0003
     31 C           0.9046    0.4739   19.1811 C.ar    1  UNL1       -0.0001
     32 C           2.0209    0.6463   18.1940 C.ar    1  UNL1        0.0036
     33 C           3.3028   -0.1121   18.3714 C.ar    1  UNL1        0.0691
     34 C           4.4190    0.0602   17.3844 C.3     1  UNL1        0.4183
     35 F           5.5352    0.2326   16.3973 F       1  UNL1       -0.1659
     36 F           5.0209    1.1261   18.2512 F       1  UNL1       -0.1659
     37 F           3.8171   -1.0057   16.5175 F       1  UNL1       -0.1659
@<TRIPOS>BOND
     1    20    21    1
     2    21     7    1
     3     7     8   ar
     4     8     9   ar
     5     9     1    1
     6     1     2    1
     7     2     3    1
     8     3     4    1
     9     4    23    1
    10    23    24    2
    11    23    25   am
    12    25    27    1
    13    27    28    1
    14    28    29   ar
    15    29    30   ar
    16    30    31   ar
    17    31    32   ar
    18    32    33   ar
    19    33    34    1
    20    34    35    1
    21    34    36    1
    22    34    37    1
    23     4     5    1
    24     5     6    1
    25     9    10   ar
    26    10    11   ar
    27    11    13    1
    28    13    14    1
    29    14    15    1
    30    15    16    1
    31    16    17    1
    32    16    18    1
    33    18    19    1
    34    11    12   ar
    35    12     7   ar
    36     6     1    1
    37    19    13    1
    38    33    28   ar
    39    21    22    1
    40    25    26    1
@<TRIPOS>MOLECULE
*****
 37 40 0 0 0
SMALL
GASTEIGER

@<TRIPOS>ATOM
      1 N           6.6260   -3.7609   26.4166 N.pl3   1  UNL1       -0.2780
      2 C           7.0283   -4.8016   25.4141 C.3     1  UNL1        0.0941
      3 C           6.6886   -4.6177   23.9647 C.3     1  UNL1        0.0306
      4 C           5.9466   -3.3930   23.5178 C.3     1  UNL1        0.0799
      5 C           5.5443   -2.3523   24.5203 C.3     1  UNL1        0.0306
      6 C           5.8840   -2.5362   25.9697 C.3     1  UNL1        0.0941
      7 C           8.2392   -5.2258   29.7335 C.ar    1  UNL1        0.2217
      8 N           7.8995   -5.0418   28.2841 N.ar    1  UNL1       -0.1808
      9 C           6.9657   -3.9449   27.8660 C.ar    1  UNL1        0.2249
     10 N           6.3716   -3.0319   28.8973 N.ar    1  UNL1       -0.1807
     11 C           6.7113   -3.2159   30.3467 C.ar    1  UNL1        0.2250
     12 N           7.6451   -4.3129   30.7648 N.ar    1  UNL1       -0.1808
     13 N           6.1173   -2.3030   31.3781 N.pl3   1  UNL1       -0.2752
     14 C           6.2396   -0.8161   31.2231 C.3     1  UNL1        0.1109
     15 C           5.6456    0.0969   32.2545 C.3     1  UNL1        0.0939
     16 N           4.9292   -0.4771   33.4408 N.3     1  UNL1       -0.2686
     17 C           4.3351    0.4357   34.4721 C.3     1  UNL1        0.0897
     18 C           4.8068   -1.9642   33.5957 C.3     1  UNL1        0.0939
     19 C           5.4009   -2.8770   32.5643 C.3     1  UNL1        0.1109
     20 C           9.1795   -6.8009   31.5732 C.3     1  UNL1        0.1108
     21 N           9.1730   -6.3228   30.1515 N.pl3   1  UNL1       -0.3012
     22 H           9.7815   -6.7289   29.4928 H       1  UNL1        0.1497
     23 C           5.6070   -3.2091   22.0684 C.2     1  UNL1        0.2223
     24 O           5.9608   -4.2749   21.0741 O.2     1  UNL1       -0.2751
     25 N           4.9134   -1.9593   21.6133 N.am    1  UNL1       -0.3004
     26 H           4.6811   -1.2597   22.2659 H       1  UNL1        0.1497
     27 C           4.5737   -1.7754   20.1639 C.3     1  UNL1        0.1163
     28 C           3.3607   -0.9847   19.7724 C.ar    1  UNL1        0.0013
     29 C           2.1360   -1.0121   20.6380 C.ar    1  UNL1       -0.0027
     30 C           0.9229   -0.2215   20.2464 C.ar    1  UNL1       -0.0003
     31 C           0.9345    0.5966   18.9892 C.ar    1  UNL1       -0.0001
     32 C           2.1593    0.6240   18.1235 C.ar    1  UNL1        0.0036
     33 C           3.3723   -0.1666   18.5151 C.ar    1  UNL1        0.0691
     34 C           4.5970   -0.1392   17.6494 C.3     1  UNL1        0.4183
     35 F           5.8217   -0.1118   16.7838 F       1  UNL1       -0.1659
     36 F           4.0374   -1.2583   16.8222 F       1  UNL1       -0.1659
     37 F           5.1567    0.9799   18.4767 F       1  UNL1       -0.1659
@<TRIPOS>BOND
     1    20    21    1
     2    21     7    1
     3     7     8   ar
     4     8     9   ar
     5     9     1    1
     6     1     2    1
     7     2     3    1
     8     3     4    1
     9     4    23    1
    10    23    24    2
    11    23    25   am
    12    25    27    1
    13    27    28    1
    14    28    29   ar
    15    29    30   ar
    16    30    31   ar
    17    31    32   ar
    18    32    33   ar
    19    33    34    1
    20    34    35    1
    21    34    36    1
    22    34    37    1
    23     4     5    1
    24     5     6    1
    25     9    10   ar
    26    10    11   ar
    27    11    13    1
    28    13    14    1
    29    14    15    1
    30    15    16    1
    31    16    17    1
    32    16    18    1
    33    18    19    1
    34    11    12   ar
    35    12     7   ar
    36     6     1    1
    37    19    13    1
    38    33    28   ar
    39    21    22    1
    40    25    26    1
@<TRIPOS>MOLECULE
*****
 37 40 0 0 0
SMALL
GASTEIGER

@<TRIPOS>ATOM
      1 N           1.4935    0.2070   21.0487 N.pl3   1  UNL1       -0.2780
      2 C           1.1463    0.9507   22.3043 C.3     1  UNL1        0.0941
      3 C           0.1415    2.0636   22.2632 C.3     1  UNL1        0.0306
      4 C          -0.5162    2.4329   20.9666 C.3     1  UNL1        0.0799
      5 C          -0.1689    1.6893   19.7110 C.3     1  UNL1        0.0306
      6 C           0.8360    0.5763   19.7521 C.3     1  UNL1        0.0941
      7 C           3.7656   -2.8381   19.9020 C.ar    1  UNL1        0.2217
      8 N           2.7608   -1.7252   19.8610 N.ar    1  UNL1       -0.1808
      9 C           2.4984   -0.9059   21.0898 C.ar    1  UNL1        0.2249
     10 N           3.2407   -1.1997   22.3597 N.ar    1  UNL1       -0.1807
     11 C           4.2455   -2.3126   22.4007 C.ar    1  UNL1        0.2250
     12 N           4.5080   -3.1318   21.1719 N.ar    1  UNL1       -0.1808
     13 N           4.9879   -2.6063   23.6706 N.pl3   1  UNL1       -0.2752
     14 C           4.7928   -1.7311   24.8730 C.3     1  UNL1        0.1109
     15 C           5.5352   -2.0249   26.1430 C.3     1  UNL1        0.0939
     16 N           6.4728   -3.1939   26.2103 N.3     1  UNL1       -0.2686
     17 C           7.2152   -3.4877   27.4802 C.3     1  UNL1        0.0897
     18 C           6.6678   -4.0691   25.0078 C.3     1  UNL1        0.0939
     19 C           5.9254   -3.7753   23.7380 C.3     1  UNL1        0.1109
     20 C           4.5150   -5.0700   18.8035 C.3     1  UNL1        0.1108
     21 N           4.0280   -3.6573   18.6732 N.pl3   1  UNL1       -0.3012
     22 H           3.8807   -3.2677   17.7811 H       1  UNL1        0.1497
     23 C          -1.5210    3.5459   20.9256 C.2     1  UNL1        0.2223
     24 O          -1.9538    4.1173   19.6080 O.2     1  UNL1       -0.2751
     25 N          -2.0929    4.0874   22.2021 N.am    1  UNL1       -0.3004
     26 H          -1.8089    3.7123   23.0669 H       1  UNL1        0.1497
     27 C          -3.0977    5.2003   22.1611 C.3     1  UNL1        0.1163
     28 C          -4.4322    5.0308   22.8247 C.ar    1  UNL1        0.0013
     29 C          -4.6620    5.5851   24.1994 C.ar    1  UNL1       -0.0027
     30 C          -5.9965    5.4155   24.8630 C.ar    1  UNL1       -0.0003
     31 C          -7.1012    4.6917   24.1520 C.ar    1  UNL1       -0.0001
     32 C          -6.8715    4.1374   22.7772 C.ar    1  UNL1        0.0036
     33 C          -5.5370    4.3069   22.1135 C.ar    1  UNL1        0.0691
     34 C          -5.3072    3.7526   20.7388 C.3     1  UNL1        0.4183
     35 F          -5.0774    3.1983   19.3641 F       1  UNL1       -0.1659
     36 F          -4.8070    2.4720   21.3388 F       1  UNL1       -0.1659
     37 F          -5.8073    5.0332   20.1389 F       1  UNL1       -0.1659
@<TRIPOS>BOND
     1    20    21    1
     2    21     7    1
     3     7     8   ar
     4     8     9   ar
     5     9     1    1
     6     1     2    1
     7     2     3    1
     8     3     4    1
     9     4    23    1
    10    23    24    2
    11    23    25   am
    12    25    27    1
    13    27    28    1
    14    28    29   ar
    15    29    30   ar
    16    30    31   ar
    17    31    32   ar
    18    32    33   ar
    19    33    34    1
    20    34    35    1
    21    34    36    1
    22    34    37    1
    23     4     5    1
    24     5     6    1
    25     9    10   ar
    26    10    11   ar
    27    11    13    1
    28    13    14    1
    29    14    15    1
    30    15    16    1
    31    16    17    1
    32    16    18    1
    33    18    19    1
    34    11    12   ar
    35    12     7   ar
    36     6     1    1
    37    19    13    1
    38    33    28   ar
    39    21    22    1
    40    25    26    1
@<TRIPOS>MOLECULE
*****
 37 40 0 0 0
SMALL
GASTEIGER

@<TRIPOS>ATOM
      1 N           2.5278   -0.0490   22.4474 N.pl3   1  UNL1       -0.2780
      2 C           2.9753   -0.2712   23.8618 C.3     1  UNL1        0.0941
      3 C           3.9105   -1.3987   24.1841 C.3     1  UNL1        0.0306
      4 C           4.3983   -2.3041   23.0921 C.3     1  UNL1        0.0799
      5 C           3.9508   -2.0819   21.6778 C.3     1  UNL1        0.0306
      6 C           3.0155   -0.9543   21.3554 C.3     1  UNL1        0.0941
      7 C           0.7416    2.8935   20.4722 C.ar    1  UNL1        0.2217
      8 N           1.6768    1.7660   20.7945 N.ar    1  UNL1       -0.1808
      9 C           1.5925    1.0787   22.1251 C.ar    1  UNL1        0.2249
     10 N           0.5730    1.5189   23.1334 N.ar    1  UNL1       -0.1807
     11 C          -0.3622    2.6465   22.8111 C.ar    1  UNL1        0.2250
     12 N          -0.2779    3.3338   21.4804 N.ar    1  UNL1       -0.1808
     13 N          -1.3819    3.0868   23.8194 N.pl3   1  UNL1       -0.2752
     14 C          -1.1771    2.7845   25.2742 C.3     1  UNL1        0.1109
     15 C          -2.1967    3.2249   26.2825 C.3     1  UNL1        0.0939
     16 N          -3.4211    3.9675   25.8358 N.3     1  UNL1       -0.2686
     17 C          -4.4406    4.4078   26.8440 C.3     1  UNL1        0.0897
     18 C          -3.6258    4.2698   24.3809 C.3     1  UNL1        0.0939
     19 C          -2.6062    3.8295   23.3727 C.3     1  UNL1        0.1109
     20 C          -0.2825    3.4217   18.1437 C.3     1  UNL1        0.1108
     21 N           0.8260    3.5808   19.1416 N.pl3   1  UNL1       -0.3012
     22 H           1.6089    4.1363   18.9232 H       1  UNL1        0.1497
     23 C           5.3335   -3.4317   23.4144 C.2     1  UNL1        0.2223
     24 O           5.7591   -4.3843   22.3369 O.2     1  UNL1       -0.2751
     25 N           5.8431   -3.6065   24.8144 N.am    1  UNL1       -0.3004
     26 H           5.5637   -2.9813   25.5216 H       1  UNL1        0.1497
     27 C           6.7783   -4.7341   25.1367 C.3     1  UNL1        0.1163
     28 C           6.9971   -5.1425   26.5633 C.ar    1  UNL1        0.0013
     29 C           6.4505   -4.2995   27.6771 C.ar    1  UNL1       -0.0027
     30 C           6.6693   -4.7079   29.1037 C.ar    1  UNL1       -0.0003
     31 C           7.4346   -5.9594   29.4166 C.ar    1  UNL1       -0.0001
     32 C           7.9813   -6.8025   28.3029 C.ar    1  UNL1        0.0036
     33 C           7.7625   -6.3941   26.8762 C.ar    1  UNL1        0.0691
     34 C           8.3091   -7.2371   25.7625 C.3     1  UNL1        0.4183
     35 F           8.8557   -8.0802   24.6488 F       1  UNL1       -0.1659
     36 F           7.0827   -8.0993   25.8132 F       1  UNL1       -0.1659
     37 F           9.5355   -6.3749   25.7118 F       1  UNL1       -0.1659
@<TRIPOS>BOND
     1    20    21    1
     2    21     7    1
     3     7     8   ar
     4     8     9   ar
     5     9     1    1
     6     1     2    1
     7     2     3    1
     8     3     4    1
     9     4    23    1
    10    23    24    2
    11    23    25   am
    12    25    27    1
    13    27    28    1
    14    28    29   ar
    15    29    30   ar
    16    30    31   ar
    17    31    32   ar
    18    32    33   ar
    19    33    34    1
    20    34    35    1
    21    34    36    1
    22    34    37    1
    23     4     5    1
    24     5     6    1
    25     9    10   ar
    26    10    11   ar
    27    11    13    1
    28    13    14    1
    29    14    15    1
    30    15    16    1
    31    16    17    1
    32    16    18    1
    33    18    19    1
    34    11    12   ar
    35    12     7   ar
    36     6     1    1
    37    19    13    1
    38    33    28   ar
    39    21    22    1
    40    25    26    1
@<TRIPOS>MOLECULE
*****
 37 40 0 0 0
SMALL
GASTEIGER

@<TRIPOS>ATOM
      1 N           4.9686   -1.7003   27.2656 N.pl3   1  UNL1       -0.2780
      2 C           3.9292   -1.2141   26.2996 C.3     1  UNL1        0.0941
      3 C           4.0034   -1.6115   24.8551 C.3     1  UNL1        0.0306
      4 C           5.1172   -2.4951   24.3766 C.3     1  UNL1        0.0799
      5 C           6.1566   -2.9813   25.3426 C.3     1  UNL1        0.0306
      6 C           6.0823   -2.5839   26.7871 C.3     1  UNL1        0.0941
      7 C           5.7346   -1.5456   31.1565 C.ar    1  UNL1        0.2217
      8 N           5.8088   -1.9430   29.7121 N.ar    1  UNL1       -0.1808
      9 C           4.8943   -1.3029   28.7101 C.ar    1  UNL1        0.2249
     10 N           3.9056   -0.2653   29.1526 N.ar    1  UNL1       -0.1807
     11 C           3.8314    0.1321   30.5971 C.ar    1  UNL1        0.2250
     12 N           4.7459   -0.5081   31.5990 N.ar    1  UNL1       -0.1808
     13 N           2.8426    1.1697   31.0397 N.pl3   1  UNL1       -0.2752
     14 C           2.0868    1.9687   30.0198 C.3     1  UNL1        0.1109
     15 C           1.0980    3.0063   30.4623 C.3     1  UNL1        0.0939
     16 N           0.8651    3.2448   31.9248 N.3     1  UNL1       -0.2686
     17 C          -0.1236    4.2824   32.3674 C.3     1  UNL1        0.0897
     18 C           1.6210    2.4457   32.9448 C.3     1  UNL1        0.0939
     19 C           2.6097    1.4082   32.5022 C.3     1  UNL1        0.1109
     20 C           6.8718   -3.6688   32.1304 C.3     1  UNL1        0.1108
     21 N           6.6491   -2.1858   32.1585 N.pl3   1  UNL1       -0.3012
     22 H           7.1031   -1.6325   32.8345 H       1  UNL1        0.1497
     23 C           5.1914   -2.8925   22.9321 C.2     1  UNL1        0.2223
     24 O           4.2489   -3.9254   22.3891 O.2     1  UNL1       -0.2751
     25 N           6.2081   -2.2571   22.0307 N.am    1  UNL1       -0.3004
     26 H           6.8267   -1.5792   22.3872 H       1  UNL1        0.1497
     27 C           6.2823   -2.6545   20.5863 C.3     1  UNL1        0.1163
     28 C           5.7755   -1.7232   19.5252 C.ar    1  UNL1        0.0013
     29 C           6.4758   -0.4209   19.2735 C.ar    1  UNL1       -0.0027
     30 C           5.9690    0.5104   18.2124 C.ar    1  UNL1       -0.0003
     31 C           4.7619    0.1393   17.4030 C.ar    1  UNL1       -0.0001
     32 C           4.0616   -1.1632   17.6547 C.ar    1  UNL1        0.0036
     33 C           4.5684   -2.0944   18.7157 C.ar    1  UNL1        0.0691
     34 C           3.8681   -3.3968   18.9674 C.3     1  UNL1        0.4183
     35 F           3.1678   -4.6992   19.2191 F       1  UNL1       -0.1659
     36 F           4.9025   -4.1111   18.1491 F       1  UNL1       -0.1659
     37 F           2.8337   -2.6825   19.7857 F       1  UNL1       -0.1659
@<TRIPOS>BOND
     1    20    21    1
     2    21     7    1
     3     7     8   ar
     4     8     9   ar
     5     9     1    1
     6     1     2    1
     7     2     3    1
     8     3     4    1
     9     4    23    1
    10    23    24    2
    11    23    25   am
    12    25    27    1
    13    27    28    1
    14    28    29   ar
    15    29    30   ar
    16    30    31   ar
    17    31    32   ar
    18    32    33   ar
    19    33    34    1
    20    34    35    1
    21    34    36    1
    22    34    37    1
    23     4     5    1
    24     5     6    1
    25     9    10   ar
    26    10    11   ar
    27    11    13    1
    28    13    14    1
    29    14    15    1
    30    15    16    1
    31    16    17    1
    32    16    18    1
    33    18    19    1
    34    11    12   ar
    35    12     7   ar
    36     6     1    1
    37    19    13    1
    38    33    28   ar
    39    21    22    1
    40    25    26    1
@<TRIPOS>MOLECULE
*****
 37 40 0 0 0
SMALL
GASTEIGER

@<TRIPOS>ATOM
      1 N          -0.8611    2.2811   27.0449 N.pl3   1  UNL1       -0.2780
      2 C           0.5707    2.6138   26.7463 C.3     1  UNL1        0.0941
      3 C           1.6733    1.8992   27.4698 C.3     1  UNL1        0.0306
      4 C           1.3441    0.8519   28.4920 C.3     1  UNL1        0.0799
      5 C          -0.0877    0.5192   28.7906 C.3     1  UNL1        0.0306
      6 C          -1.1903    1.2339   28.0670 C.3     1  UNL1        0.0941
      7 C          -4.1668    4.3719   26.3733 C.ar    1  UNL1        0.2217
      8 N          -3.0642    3.6573   27.0968 N.ar    1  UNL1       -0.1808
      9 C          -1.9638    2.9958   26.3213 C.ar    1  UNL1        0.2249
     10 N          -1.9659    3.0489   24.8223 N.ar    1  UNL1       -0.1807
     11 C          -3.0685    3.7636   24.0987 C.ar    1  UNL1        0.2250
     12 N          -4.1690    4.4251   24.8743 N.ar    1  UNL1       -0.1808
     13 N          -3.0707    3.8167   22.5996 N.pl3   1  UNL1       -0.2752
     14 C          -4.2626    3.3247   21.8335 C.3     1  UNL1        0.1109
     15 C          -4.2648    3.3778   20.3343 C.3     1  UNL1        0.0939
     16 N          -3.0750    3.9231   19.6015 N.3     1  UNL1       -0.2686
     17 C          -3.0772    3.9762   18.1025 C.3     1  UNL1        0.0897
     18 C          -1.8830    4.4151   20.3678 C.3     1  UNL1        0.0939
     19 C          -1.8809    4.3620   21.8668 C.3     1  UNL1        0.1109
     20 C          -6.3337    5.8042   26.4287 C.3     1  UNL1        0.1108
     21 N          -5.2673    5.0334   27.1488 N.pl3   1  UNL1       -0.3012
     22 H          -5.2896    4.9617   28.1304 H       1  UNL1        0.1497
     23 C           2.4467    0.1373   29.2156 C.2     1  UNL1        0.2223
     24 O           3.6820   -0.2811   28.4746 O.2     1  UNL1       -0.2751
     25 N           2.3141   -0.1589   30.6800 N.am    1  UNL1       -0.3004
     26 H           1.5033    0.1157   31.1663 H       1  UNL1        0.1497
     27 C           3.4167   -0.8735   31.4036 C.3     1  UNL1        0.1163
     28 C           3.8360   -0.4177   32.7697 C.ar    1  UNL1        0.0013
     29 C           3.3163    0.8771   33.3207 C.ar    1  UNL1       -0.0027
     30 C           3.7356    1.3329   34.6868 C.ar    1  UNL1       -0.0003
     31 C           4.6744    0.4940   35.5021 C.ar    1  UNL1       -0.0001
     32 C           5.1941   -0.8008   34.9512 C.ar    1  UNL1        0.0036
     33 C           4.7749   -1.2567   33.5850 C.ar    1  UNL1        0.0691
     34 C           5.2945   -2.5514   33.0341 C.3     1  UNL1        0.4183
     35 F           5.8141   -3.8462   32.4832 F       1  UNL1       -0.1659
     36 F           6.4274   -1.8181   32.3793 F       1  UNL1       -0.1659
     37 F           4.1616   -3.2847   33.6889 F       1  UNL1       -0.1659
@<TRIPOS>BOND
     1    20    21    1
     2    21     7    1
     3     7     8   ar
     4     8     9   ar
     5     9     1    1
     6     1     2    1
     7     2     3    1
     8     3     4    1
     9     4    23    1
    10    23    24    2
    11    23    25   am
    12    25    27    1
    13    27    28    1
    14    28    29   ar
    15    29    30   ar
    16    30    31   ar
    17    31    32   ar
    18    32    33   ar
    19    33    34    1
    20    34    35    1
    21    34    36    1
    22    34    37    1
    23     4     5    1
    24     5     6    1
    25     9    10   ar
    26    10    11   ar
    27    11    13    1
    28    13    14    1
    29    14    15    1
    30    15    16    1
    31    16    17    1
    32    16    18    1
    33    18    19    1
    34    11    12   ar
    35    12     7   ar
    36     6     1    1
    37    19    13    1
    38    33    28   ar
    39    21    22    1
    40    25    26    1
