@<TRIPOS>MOLECULE
*****
 31 33 0 0 0
SMALL
GASTEIGER

@<TRIPOS>ATOM
      1 C           2.9661   -0.4800   20.4431 C.ar    1  UNL1        0.0305
      2 C           1.5847   -0.0520   20.8410 C.ar    1  UNL1        0.0148
      3 C           0.8070    0.8828   19.9628 C.ar    1  UNL1        0.0505
      4 C           1.4108    1.3896   18.6867 C.ar    1  UNL1        0.0170
      5 C           2.7923    0.9616   18.2887 C.ar    1  UNL1        0.0307
      6 C           3.5699    0.0268   19.1669 C.ar    1  UNL1        0.1383
      7 F           4.9514   -0.4013   18.7690 F       1  UNL1       -0.2044
      8 C           3.7816   -0.1743   22.1636 C.3     1  UNL1        0.0338
      9 C           3.7438   -1.4149   21.3213 C.3     1  UNL1        0.1308
     10 C           3.4359   -2.3309   20.1741 C.2     1  UNL1        0.0358
     11 C           3.9188   -3.7508   20.1976 C.2     1  UNL1        0.1594
     12 O           4.7097   -4.2548   21.3683 O.2     1  UNL1       -0.4276
     13 C           5.0176   -3.3388   22.5155 C.2     1  UNL1        0.2815
     14 N           5.8084   -3.8428   23.6863 N.pl3   1  UNL1       -0.3130
     15 N           4.5347   -1.9189   22.4921 N.2     1  UNL1       -0.2196
     16 H           6.1254   -4.7747   23.7017 H       1  UNL1        0.1466
     17 H           6.0105   -3.2416   24.4393 H       1  UNL1        0.1466
     18 C           3.6109   -4.6668   19.0503 C.3     1  UNL1        0.2567
     19 F           4.7207   -5.4022   18.3590 F       1  UNL1       -0.2256
     20 N          -0.5745    1.3108   20.3607 N.am    1  UNL1       -0.2791
     21 C          -0.7963    2.6695   20.9565 C.2     1  UNL1        0.2672
     22 O           0.3635    3.6000   21.1544 O.2     1  UNL1       -0.2682
     23 H          -1.3356    0.7001   20.2308 H       1  UNL1        0.1552
     24 C          -2.1777    3.0975   21.3544 C.ar    1  UNL1        0.1348
     25 C          -2.4100    3.7304   22.6944 C.ar    1  UNL1        0.0245
     26 C          -3.7915    4.1585   23.0922 C.ar    1  UNL1        0.0135
     27 C          -4.9406    3.9537   22.1502 C.ar    1  UNL1        0.0876
     28 C          -4.7083    3.3208   20.8102 C.ar    1  UNL1        0.1092
     29 N          -3.3269    2.8927   20.4123 N.ar    1  UNL1       -0.2385
     30 C          -6.3221    4.3817   22.5481 C.1     1  UNL1        0.1020
     31 N          -7.7036    4.8098   22.9460 N.1     1  UNL1       -0.1908
@<TRIPOS>BOND
     1     9     8    1
     2     9     1    1
     3     1     2   ar
     4     2     3   ar
     5     3    20    1
     6    20    21   am
     7    21    22    2
     8    21    24    1
     9    24    25   ar
    10    25    26   ar
    11    26    27   ar
    12    27    30    1
    13    30    31    3
    14    27    28   ar
    15    28    29   ar
    16     3     4   ar
    17     4     5   ar
    18     5     6   ar
    19     6     7    1
    20     9    10    1
    21    10    11    2
    22    11    18    1
    23    18    19    1
    24    11    12    1
    25    12    13    1
    26    13    14    1
    27    13    15    2
    28    15     9    1
    29     6     1   ar
    30    29    24   ar
    31    20    23    1
    32    14    16    1
    33    14    17    1
@<TRIPOS>MOLECULE
*****
 31 33 0 0 0
SMALL
GASTEIGER

@<TRIPOS>ATOM
      1 C         -10.0064  -19.2492   21.3746 C.ar    1  UNL1        0.0305
      2 C          -8.5793  -18.7902   21.4250 C.ar    1  UNL1        0.0148
      3 C          -7.6823  -18.9982   20.2409 C.ar    1  UNL1        0.0505
      4 C          -8.2124  -19.6652   19.0064 C.ar    1  UNL1        0.0170
      5 C          -9.6395  -20.1242   18.9560 C.ar    1  UNL1        0.0307
      6 C         -10.5365  -19.9162   20.1401 C.ar    1  UNL1        0.1383
      7 F         -11.9637  -20.3753   20.0897 F       1  UNL1       -0.2044
      8 C         -10.1126  -20.2233   23.0355 C.3     1  UNL1        0.0338
      9 C         -10.9035  -19.0412   22.5587 C.3     1  UNL1        0.1308
     10 C         -11.3827  -17.9314   21.6708 C.2     1  UNL1        0.0358
     11 C         -12.4844  -17.0241   22.1324 C.2     1  UNL1        0.1594
     12 O         -13.1068  -17.2266   23.4821 O.2     1  UNL1       -0.4276
     13 C         -12.6275  -18.3365   24.3701 C.2     1  UNL1        0.2815
     14 N         -13.2499  -18.5390   25.7198 N.pl3   1  UNL1       -0.3130
     15 N         -11.5259  -19.2438   23.9084 N.2     1  UNL1       -0.2196
     16 H         -13.9729  -17.9436   26.0228 H       1  UNL1        0.1466
     17 H         -12.9353  -19.2675   26.3026 H       1  UNL1        0.1466
     18 C         -12.9636  -15.9142   21.2444 C.3     1  UNL1        0.2567
     19 F         -12.5057  -15.8445   19.8176 F       1  UNL1       -0.2256
     20 N          -6.2551  -18.5391   20.2913 N.am    1  UNL1       -0.2791
     21 C          -5.1419  -19.5426   20.2301 C.2     1  UNL1        0.2672
     22 O          -5.4559  -21.0052   20.1184 O.2     1  UNL1       -0.2682
     23 H          -6.0491  -17.5792   20.3645 H       1  UNL1        0.1552
     24 C          -3.7148  -19.0837   20.2804 C.ar    1  UNL1        0.1348
     25 C          -2.8716  -19.3863   21.4835 C.ar    1  UNL1        0.0245
     26 C          -1.4444  -18.9273   21.5339 C.ar    1  UNL1        0.0135
     27 C          -0.8604  -18.1657   20.3811 C.ar    1  UNL1        0.0876
     28 C          -1.7036  -17.8630   19.1780 C.ar    1  UNL1        0.1092
     29 N          -3.1307  -18.3220   19.1277 N.ar    1  UNL1       -0.2385
     30 C           0.5667  -17.7067   20.4315 C.1     1  UNL1        0.1020
     31 N           1.9939  -17.2477   20.4819 N.1     1  UNL1       -0.1908
@<TRIPOS>BOND
     1     9     8    1
     2     9     1    1
     3     1     2   ar
     4     2     3   ar
     5     3    20    1
     6    20    21   am
     7    21    22    2
     8    21    24    1
     9    24    25   ar
    10    25    26   ar
    11    26    27   ar
    12    27    30    1
    13    30    31    3
    14    27    28   ar
    15    28    29   ar
    16     3     4   ar
    17     4     5   ar
    18     5     6   ar
    19     6     7    1
    20     9    10    1
    21    10    11    2
    22    11    18    1
    23    18    19    1
    24    11    12    1
    25    12    13    1
    26    13    14    1
    27    13    15    2
    28    15     9    1
    29     6     1   ar
    30    29    24   ar
    31    20    23    1
    32    14    16    1
    33    14    17    1
@<TRIPOS>MOLECULE
*****
 31 33 0 0 0
SMALL
GASTEIGER

@<TRIPOS>ATOM
      1 C           3.3536   -0.6436   19.7826 C.ar    1  UNL1        0.0305
      2 C           2.3974   -0.2394   20.8653 C.ar    1  UNL1        0.0148
      3 C           1.1780    0.5657   20.5266 C.ar    1  UNL1        0.0505
      4 C           0.9149    0.9668   19.1054 C.ar    1  UNL1        0.0170
      5 C           1.8712    0.5626   18.0227 C.ar    1  UNL1        0.0307
      6 C           3.0905   -0.2426   18.3614 C.ar    1  UNL1        0.1383
      7 F           4.0469   -0.6469   17.2787 F       1  UNL1       -0.2044
      8 C           5.0861   -0.0679   20.4039 C.3     1  UNL1        0.0338
      9 C           4.5731   -1.4489   20.1212 C.3     1  UNL1        0.1308
     10 C           3.6367   -2.5501   19.7210 C.2     1  UNL1        0.0358
     11 C           4.0978   -3.9770   19.7575 C.2     1  UNL1        0.1594
     12 O           5.4954   -4.3026   20.1943 O.2     1  UNL1       -0.4276
     13 C           6.4318   -3.2014   20.5945 C.2     1  UNL1        0.2815
     14 N           7.8294   -3.5270   21.0313 N.pl3   1  UNL1       -0.3130
     15 N           5.9707   -1.7745   20.5580 N.2     1  UNL1       -0.2196
     16 H           8.1321   -4.4635   21.0553 H       1  UNL1        0.1466
     17 H           8.4441   -2.8042   21.2940 H       1  UNL1        0.1466
     18 C           3.1613   -5.0783   19.3572 C.3     1  UNL1        0.2567
     19 F           2.8329   -6.1735   20.3283 F       1  UNL1       -0.2256
     20 N           0.2216    0.9700   21.6093 N.am    1  UNL1       -0.2791
     21 C           0.0822    2.4153   21.9855 C.2     1  UNL1        0.2672
     22 O           0.8990    3.4564   21.2791 O.2     1  UNL1       -0.2682
     23 H          -0.3145    0.2867   22.0729 H       1  UNL1        0.1552
     24 C          -0.8741    2.8196   23.0681 C.ar    1  UNL1        0.1348
     25 C          -0.5895    2.4548   24.4950 C.ar    1  UNL1        0.0245
     26 C          -1.5459    2.8591   25.5776 C.ar    1  UNL1        0.0135
     27 C          -2.7868    3.6282   25.2333 C.ar    1  UNL1        0.0876
     28 C          -3.0714    3.9930   23.8065 C.ar    1  UNL1        0.1092
     29 N          -2.1151    3.5887   22.7239 N.ar    1  UNL1       -0.2385
     30 C          -3.7431    4.0324   26.3159 C.1     1  UNL1        0.1020
     31 N          -4.6994    4.4367   27.3986 N.1     1  UNL1       -0.1908
@<TRIPOS>BOND
     1     9     8    1
     2     9     1    1
     3     1     2   ar
     4     2     3   ar
     5     3    20    1
     6    20    21   am
     7    21    22    2
     8    21    24    1
     9    24    25   ar
    10    25    26   ar
    11    26    27   ar
    12    27    30    1
    13    30    31    3
    14    27    28   ar
    15    28    29   ar
    16     3     4   ar
    17     4     5   ar
    18     5     6   ar
    19     6     7    1
    20     9    10    1
    21    10    11    2
    22    11    18    1
    23    18    19    1
    24    11    12    1
    25    12    13    1
    26    13    14    1
    27    13    15    2
    28    15     9    1
    29     6     1   ar
    30    29    24   ar
    31    20    23    1
    32    14    16    1
    33    14    17    1
@<TRIPOS>MOLECULE
*****
 31 33 0 0 0
SMALL
GASTEIGER

@<TRIPOS>ATOM
      1 C           3.3179    0.5588   18.4707 C.ar    1  UNL1        0.0305
      2 C           1.8882    1.0040   18.5584 C.ar    1  UNL1        0.0148
      3 C           1.5548    2.4661   18.5267 C.ar    1  UNL1        0.0505
      4 C           2.6510    3.4830   18.4073 C.ar    1  UNL1        0.0170
      5 C           4.0807    3.0378   18.3196 C.ar    1  UNL1        0.0307
      6 C           4.4141    1.5757   18.3513 C.ar    1  UNL1        0.1383
      7 F           5.8439    1.1304   18.2636 F       1  UNL1       -0.2044
      8 C           3.6788   -0.6619   17.0221 C.3     1  UNL1        0.0338
      9 C           3.6514   -0.9033   18.5024 C.3     1  UNL1        0.1308
     10 C           3.5082   -0.6370   19.9715 C.2     1  UNL1        0.0358
     11 C           3.7080   -1.7488   20.9583 C.2     1  UNL1        0.1594
     12 O           4.0510   -3.1271   20.4759 O.2     1  UNL1       -0.4276
     13 C           4.1942   -3.3935   19.0068 C.2     1  UNL1        0.2815
     14 N           4.5373   -4.7718   18.5244 N.pl3   1  UNL1       -0.3130
     15 N           3.9944   -2.2817   18.0200 N.2     1  UNL1       -0.2196
     16 H           4.6684   -5.5016   19.1720 H       1  UNL1        0.1466
     17 H           4.6312   -4.9467   17.5601 H       1  UNL1        0.1466
     18 C           3.5648   -1.4824   22.4276 C.3     1  UNL1        0.2567
     19 F           2.4561   -0.6033   22.9257 F       1  UNL1       -0.2256
     20 N           0.1250    2.9114   18.6143 N.am    1  UNL1       -0.2791
     21 C          -0.4776    3.2403   19.9480 C.2     1  UNL1        0.2672
     22 O           0.3495    3.1238   21.1940 O.2     1  UNL1       -0.2682
     23 H          -0.4178    2.9879   17.7966 H       1  UNL1        0.1552
     24 C          -1.9073    3.6855   20.0358 C.ar    1  UNL1        0.1348
     25 C          -2.3248    4.9914   19.4272 C.ar    1  UNL1        0.0245
     26 C          -3.7546    5.4367   19.5149 C.ar    1  UNL1        0.0135
     27 C          -4.7667    4.5761   20.2112 C.ar    1  UNL1        0.0876
     28 C          -4.3492    3.2702   20.8198 C.ar    1  UNL1        0.1092
     29 N          -2.9195    2.8249   20.7321 N.ar    1  UNL1       -0.2385
     30 C          -6.1964    5.0214   20.2990 C.1     1  UNL1        0.1020
     31 N          -7.6261    5.4667   20.3867 N.1     1  UNL1       -0.1908
@<TRIPOS>BOND
     1     9     8    1
     2     9     1    1
     3     1     2   ar
     4     2     3   ar
     5     3    20    1
     6    20    21   am
     7    21    22    2
     8    21    24    1
     9    24    25   ar
    10    25    26   ar
    11    26    27   ar
    12    27    30    1
    13    30    31    3
    14    27    28   ar
    15    28    29   ar
    16     3     4   ar
    17     4     5   ar
    18     5     6   ar
    19     6     7    1
    20     9    10    1
    21    10    11    2
    22    11    18    1
    23    18    19    1
    24    11    12    1
    25    12    13    1
    26    13    14    1
    27    13    15    2
    28    15     9    1
    29     6     1   ar
    30    29    24   ar
    31    20    23    1
    32    14    16    1
    33    14    17    1
@<TRIPOS>MOLECULE
*****
 31 33 0 0 0
SMALL
GASTEIGER

@<TRIPOS>ATOM
      1 C           3.9052    1.5521   35.3434 C.ar    1  UNL1        0.0305
      2 C           4.3994    0.3187   34.6473 C.ar    1  UNL1        0.0148
      3 C           3.8656   -0.0428   33.2930 C.ar    1  UNL1        0.0505
      4 C           2.8378    0.8291   32.6347 C.ar    1  UNL1        0.0170
      5 C           2.3436    2.0624   33.3308 C.ar    1  UNL1        0.0307
      6 C           2.8774    2.4239   34.6852 C.ar    1  UNL1        0.1383
      7 F           2.3832    3.6573   35.3813 F       1  UNL1       -0.2044
      8 C           5.5579    2.4160   35.8344 C.3     1  UNL1        0.0338
      9 C           4.4390    1.9136   36.6979 C.3     1  UNL1        0.1308
     10 C           3.1347    1.2856   37.0910 C.2     1  UNL1        0.0358
     11 C           2.7528    1.1937   38.5386 C.2     1  UNL1        0.1594
     12 O           3.6751    1.7297   39.5932 O.2     1  UNL1       -0.4276
     13 C           4.9794    2.3577   39.2001 C.2     1  UNL1        0.2815
     14 N           5.9017    2.8937   40.2546 N.pl3   1  UNL1       -0.3130
     15 N           5.3613    2.4497   37.7524 N.2     1  UNL1       -0.2196
     16 H           5.6510    2.8334   41.2047 H       1  UNL1        0.1466
     17 H           6.7577    3.3059   39.9966 H       1  UNL1        0.1466
     18 C           1.4485    0.5657   38.9317 C.3     1  UNL1        0.2567
     19 F           1.4046   -0.4359   40.0476 F       1  UNL1       -0.2256
     20 N           4.3598   -1.2762   32.5968 N.am    1  UNL1       -0.2791
     21 C           5.6625   -1.2471   31.8539 C.2     1  UNL1        0.2672
     22 O           6.4712    0.0155   31.8071 O.2     1  UNL1       -0.2682
     23 H           3.8290   -2.1048   32.6275 H       1  UNL1        0.1552
     24 C           6.1567   -2.4804   31.1577 C.ar    1  UNL1        0.1348
     25 C           6.5677   -3.6801   31.9588 C.ar    1  UNL1        0.0245
     26 C           7.0619   -4.9135   31.2626 C.ar    1  UNL1        0.0135
     27 C           7.1450   -4.9471   29.7653 C.ar    1  UNL1        0.0876
     28 C           6.7340   -3.7474   28.9642 C.ar    1  UNL1        0.1092
     29 N           6.2398   -2.5141   29.6603 N.ar    1  UNL1       -0.2385
     30 C           7.6392   -6.1804   29.0692 C.1     1  UNL1        0.1020
     31 N           8.1334   -7.4138   28.3729 N.1     1  UNL1       -0.1908
@<TRIPOS>BOND
     1     9     8    1
     2     9     1    1
     3     1     2   ar
     4     2     3   ar
     5     3    20    1
     6    20    21   am
     7    21    22    2
     8    21    24    1
     9    24    25   ar
    10    25    26   ar
    11    26    27   ar
    12    27    30    1
    13    30    31    3
    14    27    28   ar
    15    28    29   ar
    16     3     4   ar
    17     4     5   ar
    18     5     6   ar
    19     6     7    1
    20     9    10    1
    21    10    11    2
    22    11    18    1
    23    18    19    1
    24    11    12    1
    25    12    13    1
    26    13    14    1
    27    13    15    2
    28    15     9    1
    29     6     1   ar
    30    29    24   ar
    31    20    23    1
    32    14    16    1
    33    14    17    1
@<TRIPOS>MOLECULE
*****
 31 33 0 0 0
SMALL
GASTEIGER

@<TRIPOS>ATOM
      1 C           4.1524    1.2910   35.8111 C.ar    1  UNL1        0.0305
      2 C           3.3575    1.7779   34.6360 C.ar    1  UNL1        0.0148
      3 C           3.2552    0.9358   33.3990 C.ar    1  UNL1        0.0505
      4 C           3.9479   -0.3932   33.3370 C.ar    1  UNL1        0.0170
      5 C           4.7429   -0.8801   34.5121 C.ar    1  UNL1        0.0307
      6 C           4.8452   -0.0380   35.7491 C.ar    1  UNL1        0.1383
      7 F           5.6402   -0.5249   36.9243 F       1  UNL1       -0.2044
      8 C           5.4354    2.6516   36.2818 C.3     1  UNL1        0.0338
      9 C           4.2547    2.1331   37.0482 C.3     1  UNL1        0.1308
     10 C           3.0386    1.3222   37.3849 C.2     1  UNL1        0.0358
     11 C           2.3348    1.5335   38.6926 C.2     1  UNL1        0.1594
     12 O           2.8472    2.5557   39.6635 O.2     1  UNL1       -0.4276
     13 C           4.0633    3.3666   39.3268 C.2     1  UNL1        0.2815
     14 N           4.5757    4.3887   40.2978 N.pl3   1  UNL1       -0.3130
     15 N           4.7671    3.1553   38.0192 N.2     1  UNL1       -0.2196
     16 H           4.1137    4.5274   41.1560 H       1  UNL1        0.1466
     17 H           5.3739    4.9209   40.0767 H       1  UNL1        0.1466
     18 C           1.1186    0.7226   39.0293 C.3     1  UNL1        0.2567
     19 F           1.2580   -0.5471   39.8159 F       1  UNL1       -0.2256
     20 N           2.4602    1.4227   32.2238 N.am    1  UNL1       -0.2791
     21 C           2.1090    0.4781   31.1127 C.2     1  UNL1        0.2672
     22 O           2.5528   -0.9533   31.1768 O.2     1  UNL1       -0.2682
     23 H           2.1689    2.3622   32.1817 H       1  UNL1        0.1552
     24 C           1.3140    0.9649   29.9376 C.ar    1  UNL1        0.1348
     25 C           1.7312    2.2110   29.2142 C.ar    1  UNL1        0.0245
     26 C           0.9361    2.6978   28.0390 C.ar    1  UNL1        0.0135
     27 C          -0.2761    1.9386   27.5873 C.ar    1  UNL1        0.0876
     28 C          -0.6933    0.6925   28.3107 C.ar    1  UNL1        0.1092
     29 N           0.1017    0.2057   29.4858 N.ar    1  UNL1       -0.2385
     30 C          -1.0710    2.4254   26.4122 C.1     1  UNL1        0.1020
     31 N          -1.8661    2.9122   25.2370 N.1     1  UNL1       -0.1908
@<TRIPOS>BOND
     1     9     8    1
     2     9     1    1
     3     1     2   ar
     4     2     3   ar
     5     3    20    1
     6    20    21   am
     7    21    22    2
     8    21    24    1
     9    24    25   ar
    10    25    26   ar
    11    26    27   ar
    12    27    30    1
    13    30    31    3
    14    27    28   ar
    15    28    29   ar
    16     3     4   ar
    17     4     5   ar
    18     5     6   ar
    19     6     7    1
    20     9    10    1
    21    10    11    2
    22    11    18    1
    23    18    19    1
    24    11    12    1
    25    12    13    1
    26    13    14    1
    27    13    15    2
    28    15     9    1
    29     6     1   ar
    30    29    24   ar
    31    20    23    1
    32    14    16    1
    33    14    17    1
@<TRIPOS>MOLECULE
*****
 31 33 0 0 0
SMALL
GASTEIGER

@<TRIPOS>ATOM
      1 C         -10.1875  -18.9679   20.8562 C.ar    1  UNL1        0.0305
      2 C          -8.7588  -18.5242   20.9644 C.ar    1  UNL1        0.0148
      3 C          -7.7684  -18.9206   19.9099 C.ar    1  UNL1        0.0505
      4 C          -8.2068  -19.7607   18.7471 C.ar    1  UNL1        0.0170
      5 C          -9.6356  -20.2044   18.6389 C.ar    1  UNL1        0.0307
      6 C         -10.6259  -19.8080   19.6934 C.ar    1  UNL1        0.1383
      7 F         -12.0547  -20.2517   19.5851 F       1  UNL1       -0.2044
      8 C         -11.6741  -17.7431   20.7628 C.3     1  UNL1        0.0338
      9 C         -11.1780  -18.5715   21.9107 C.3     1  UNL1        0.1308
     10 C         -10.3379  -19.5376   22.6923 C.2     1  UNL1        0.0358
     11 C         -10.6606  -19.8196   24.1298 C.2     1  UNL1        0.1594
     12 O         -11.8233  -19.1355   24.7856 O.2     1  UNL1       -0.4276
     13 C         -12.6634  -18.1694   24.0040 C.2     1  UNL1        0.2815
     14 N         -13.8261  -17.4853   24.6599 N.pl3   1  UNL1       -0.3130
     15 N         -12.3407  -17.8874   22.5665 N.2     1  UNL1       -0.2196
     16 H         -14.0379  -17.6703   25.6033 H       1  UNL1        0.1466
     17 H         -14.3774  -16.8512   24.1468 H       1  UNL1        0.1466
     18 C          -9.8205  -20.7857   24.9114 C.3     1  UNL1        0.2567
     19 F          -8.6770  -21.4935   24.2468 F       1  UNL1       -0.2256
     20 N          -6.3396  -18.4768   20.0182 N.am    1  UNL1       -0.2791
     21 C          -5.2443  -19.4956   20.1289 C.2     1  UNL1        0.2672
     22 O          -5.5777  -20.9581   20.1315 O.2     1  UNL1       -0.2682
     23 H          -6.1208  -17.5170   20.0165 H       1  UNL1        0.1552
     24 C          -3.8155  -19.0520   20.2372 C.ar    1  UNL1        0.1348
     25 C          -3.1191  -18.4677   19.0440 C.ar    1  UNL1        0.0245
     26 C          -1.6903  -18.0240   19.1523 C.ar    1  UNL1        0.0135
     27 C          -0.9579  -18.1647   20.4537 C.ar    1  UNL1        0.0876
     28 C          -1.6542  -18.7490   21.6469 C.ar    1  UNL1        0.1092
     29 N          -3.0830  -19.1926   21.5386 N.ar    1  UNL1       -0.2385
     30 C           0.4709  -17.7210   20.5619 C.1     1  UNL1        0.1020
     31 N           1.8997  -17.2773   20.6702 N.1     1  UNL1       -0.1908
@<TRIPOS>BOND
     1     9     8    1
     2     9     1    1
     3     1     2   ar
     4     2     3   ar
     5     3    20    1
     6    20    21   am
     7    21    22    2
     8    21    24    1
     9    24    25   ar
    10    25    26   ar
    11    26    27   ar
    12    27    30    1
    13    30    31    3
    14    27    28   ar
    15    28    29   ar
    16     3     4   ar
    17     4     5   ar
    18     5     6   ar
    19     6     7    1
    20     9    10    1
    21    10    11    2
    22    11    18    1
    23    18    19    1
    24    11    12    1
    25    12    13    1
    26    13    14    1
    27    13    15    2
    28    15     9    1
    29     6     1   ar
    30    29    24   ar
    31    20    23    1
    32    14    16    1
    33    14    17    1
@<TRIPOS>MOLECULE
*****
 31 33 0 0 0
SMALL
GASTEIGER

@<TRIPOS>ATOM
      1 C         -17.2897    1.2550   20.3835 C.ar    1  UNL1        0.0305
      2 C         -16.4545    0.0091   20.3966 C.ar    1  UNL1        0.0148
      3 C         -15.6999   -0.4008   19.1668 C.ar    1  UNL1        0.0505
      4 C         -15.7805    0.4351   17.9239 C.ar    1  UNL1        0.0170
      5 C         -16.6158    1.6809   17.9108 C.ar    1  UNL1        0.0307
      6 C         -17.3704    2.0909   19.1406 C.ar    1  UNL1        0.1383
      7 F         -18.2056    3.3368   19.1276 F       1  UNL1       -0.2044
      8 C         -18.9731    0.6172   21.0750 C.3     1  UNL1        0.0338
      9 C         -18.0444    1.6650   21.6133 C.3     1  UNL1        0.1308
     10 C         -16.8537    2.5703   21.7245 C.2     1  UNL1        0.0358
     11 C         -16.7400    3.5218   22.8785 C.2     1  UNL1        0.1594
     12 O         -17.8173    3.5679   23.9214 O.2     1  UNL1       -0.4276
     13 C         -19.0080    2.6625   23.8102 C.2     1  UNL1        0.2815
     14 N         -20.0852    2.7086   24.8531 N.pl3   1  UNL1       -0.3130
     15 N         -19.1216    1.7111   22.6562 N.2     1  UNL1       -0.2196
     16 H         -20.0107    3.3331   25.6105 H       1  UNL1        0.1466
     17 H         -20.8668    2.1144   24.7801 H       1  UNL1        0.1466
     18 C         -15.5492    4.4271   22.9897 C.3     1  UNL1        0.2567
     19 F         -14.4412    4.3359   21.9826 F       1  UNL1       -0.2256
     20 N         -14.8646   -1.6467   19.1798 N.am    1  UNL1       -0.2791
     21 C         -13.3902   -1.5639   18.9169 C.2     1  UNL1        0.2672
     22 O         -12.7510   -0.2352   18.6410 O.2     1  UNL1       -0.2682
     23 H         -15.2842   -2.5188   19.3609 H       1  UNL1        0.1552
     24 C         -12.5549   -2.8097   18.9299 C.ar    1  UNL1        0.1348
     25 C         -11.0948   -2.7373   18.5940 C.ar    1  UNL1        0.0245
     26 C         -10.2595   -3.9832   18.6070 C.ar    1  UNL1        0.0135
     27 C         -10.8843   -5.3015   18.9560 C.ar    1  UNL1        0.0876
     28 C         -12.3444   -5.3739   19.2920 C.ar    1  UNL1        0.1092
     29 N         -13.1797   -4.1280   19.2790 N.ar    1  UNL1       -0.2385
     30 C         -10.0491   -6.5473   18.9690 C.1     1  UNL1        0.1020
     31 N          -9.2137   -7.7931   18.9821 N.1     1  UNL1       -0.1908
@<TRIPOS>BOND
     1     9     8    1
     2     9     1    1
     3     1     2   ar
     4     2     3   ar
     5     3    20    1
     6    20    21   am
     7    21    22    2
     8    21    24    1
     9    24    25   ar
    10    25    26   ar
    11    26    27   ar
    12    27    30    1
    13    30    31    3
    14    27    28   ar
    15    28    29   ar
    16     3     4   ar
    17     4     5   ar
    18     5     6   ar
    19     6     7    1
    20     9    10    1
    21    10    11    2
    22    11    18    1
    23    18    19    1
    24    11    12    1
    25    12    13    1
    26    13    14    1
    27    13    15    2
    28    15     9    1
    29     6     1   ar
    30    29    24   ar
    31    20    23    1
    32    14    16    1
    33    14    17    1
@<TRIPOS>MOLECULE
*****
 31 33 0 0 0
SMALL
GASTEIGER

@<TRIPOS>ATOM
      1 C         -11.8854   -5.9681   18.3215 C.ar    1  UNL1        0.0305
      2 C         -12.2823   -4.5973   17.8597 C.ar    1  UNL1        0.0148
      3 C         -11.3070   -3.4618   17.9561 C.ar    1  UNL1        0.0505
      4 C          -9.9348   -3.6970   18.5144 C.ar    1  UNL1        0.0170
      5 C          -9.5379   -5.0678   18.9762 C.ar    1  UNL1        0.0307
      6 C         -10.5132   -6.2033   18.8798 C.ar    1  UNL1        0.1383
      7 F         -10.1162   -7.5742   19.3417 F       1  UNL1       -0.2044
      8 C         -11.6731   -7.7222   17.5489 C.3     1  UNL1        0.0338
      9 C         -12.8607   -7.1037   18.2252 C.3     1  UNL1        0.1308
     10 C         -13.7095   -6.0910   18.9348 C.2     1  UNL1        0.0358
     11 C         -15.1212   -6.4285   19.3133 C.2     1  UNL1        0.1594
     12 O         -15.6840   -7.7789   18.9821 O.2     1  UNL1       -0.4276
     13 C         -14.8352   -8.7917   18.2724 C.2     1  UNL1        0.2815
     14 N         -15.3980  -10.1421   17.9411 N.pl3   1  UNL1       -0.3130
     15 N         -13.4235   -8.4541   17.8939 N.2     1  UNL1       -0.2196
     16 H         -16.3245  -10.3637   18.1895 H       1  UNL1        0.1466
     17 H         -14.8409  -10.8068   17.4753 H       1  UNL1        0.1466
     18 C         -15.9700   -5.4156   20.0230 C.3     1  UNL1        0.2567
     19 F         -15.3271   -4.2457   20.7074 F       1  UNL1       -0.2256
     20 N         -11.7039   -2.0909   17.4942 N.am    1  UNL1       -0.2791
     21 C         -12.6820   -1.2836   18.2952 C.2     1  UNL1        0.2672
     22 O         -13.2631   -1.8471   19.5581 O.2     1  UNL1       -0.2682
     23 H         -11.3225   -1.7211   16.6653 H       1  UNL1        0.1552
     24 C         -13.0789    0.0872   17.8334 C.ar    1  UNL1        0.1348
     25 C         -14.2758    0.7635   18.4335 C.ar    1  UNL1        0.0245
     26 C         -14.6727    2.1344   17.9716 C.ar    1  UNL1        0.0135
     27 C         -13.8727    2.8289   16.9097 C.ar    1  UNL1        0.0876
     28 C         -12.6758    2.1526   16.3097 C.ar    1  UNL1        0.1092
     29 N         -12.2789    0.7818   16.7715 N.ar    1  UNL1       -0.2385
     30 C         -14.2697    4.1997   16.4479 C.1     1  UNL1        0.1020
     31 N         -14.6666    5.5706   15.9860 N.1     1  UNL1       -0.1908
@<TRIPOS>BOND
     1     9     8    1
     2     9     1    1
     3     1     2   ar
     4     2     3   ar
     5     3    20    1
     6    20    21   am
     7    21    22    2
     8    21    24    1
     9    24    25   ar
    10    25    26   ar
    11    26    27   ar
    12    27    30    1
    13    30    31    3
    14    27    28   ar
    15    28    29   ar
    16     3     4   ar
    17     4     5   ar
    18     5     6   ar
    19     6     7    1
    20     9    10    1
    21    10    11    2
    22    11    18    1
    23    18    19    1
    24    11    12    1
    25    12    13    1
    26    13    14    1
    27    13    15    2
    28    15     9    1
    29     6     1   ar
    30    29    24   ar
    31    20    23    1
    32    14    16    1
    33    14    17    1
