@<TRIPOS>MOLECULE
*****
 41 44 0 0 0
SMALL
GASTEIGER

@<TRIPOS>ATOM
      1 C           6.3079   -2.8729   29.7324 C.ar    1  UNL1        0.0345
      2 C           6.5801   -3.7983   28.5838 C.ar    1  UNL1        0.0029
      3 C           6.9267   -5.2344   28.8436 C.ar    1  UNL1        0.0374
      4 C           7.0010   -5.7450   30.2520 C.ar    1  UNL1        0.0988
      5 N           6.7287   -4.8196   31.4007 N.ar    1  UNL1       -0.2294
      6 C           6.3822   -3.3835   31.1409 C.ar    1  UNL1        0.1318
      7 C           6.7339    2.2937   28.7294 C.3     1  UNL1        0.1538
      8 N           6.1572    0.9381   29.0116 N.ar    1  UNL1       -0.2473
      9 C           6.9373   -0.3259   29.2208 C.ar    1  UNL1        0.0968
     10 C           5.9613   -1.4367   29.4726 C.ar    1  UNL1        0.0423
     11 C           4.5779   -0.8593   29.4191 C.ar    1  UNL1        0.1217
     12 N           4.6990    0.6084   29.1341 N.ar    1  UNL1       -0.1676
     13 N           6.1099   -2.4580   32.2895 N.pl3   1  UNL1       -0.2903
     14 C           4.7505   -2.4283   32.9227 C.3     1  UNL1        0.1113
     15 C           4.4782   -1.5028   34.0713 C.3     1  UNL1        0.1173
     16 N           5.5654   -0.6070   34.5868 N.3     1  UNL1       -0.1520
     17 C           6.9248   -0.6367   33.9536 C.3     1  UNL1        0.1173
     18 C           7.1971   -1.5623   32.8049 C.3     1  UNL1        0.1113
     19 S           5.2931    0.3184   35.7354 S.O2    1  UNL1        0.0649
     20 O           6.0781   -0.5795   36.6450 O.2     1  UNL1       -0.1527
     21 O           4.5081    1.2164   34.8258 O.2     1  UNL1       -0.1527
     22 C           5.0208    1.2439   36.8840 C.ar    1  UNL1        0.1414
     23 C           5.7856    2.5281   37.0101 C.ar    1  UNL1        0.0244
     24 C           5.5133    3.4536   38.1588 C.ar    1  UNL1        0.0353
     25 C           4.4761    3.0948   39.1813 C.ar    1  UNL1        0.1255
     26 N           4.2038    4.0203   40.3299 N.pl3   1  UNL1       -0.3426
     27 N           3.7113    1.8107   39.0552 N.ar    1  UNL1       -0.2282
     28 C           3.9836    0.8852   37.9066 C.ar    1  UNL1        0.1201
     29 H           4.7058    4.8631   40.4126 H       1  UNL1        0.1437
     30 H           3.5231    3.7849   41.0010 H       1  UNL1        0.1437
     31 C           7.1989   -6.1599   27.6949 C.3     1  UNL1        0.2841
     32 O           6.0341   -5.5783   26.9501 O.3     1  UNL1       -0.3692
     33 H           6.0859   -4.6100   26.9741 H       1  UNL1        0.2112
     34 C           7.4712   -7.0854   26.5463 C.3     1  UNL1        0.4312
     35 F           7.7436   -8.0109   25.3977 F       1  UNL1       -0.1669
     36 F           8.5782   -6.1853   26.0835 F       1  UNL1       -0.1669
     37 F           6.8421   -7.6796   26.7349 F       1  UNL1       -0.1669
     38 C           8.3638   -6.7415   28.4397 C.3     1  UNL1        0.4312
     39 F           9.5287   -7.3232   29.1846 F       1  UNL1       -0.1669
     40 F           8.0192   -7.5475   28.5667 F       1  UNL1       -0.1669
     41 F           9.3550   -5.6173   28.4985 F       1  UNL1       -0.1669
@<TRIPOS>BOND
     1     7     8    1
     2     8     9   ar
     3     9    10   ar
     4    10     1    1
     5     1     2   ar
     6     2     3   ar
     7     3    31    1
     8    31    32    1
     9    31    34    1
    10    34    35    1
    11    34    36    1
    12    34    37    1
    13    31    38    1
    14    38    39    1
    15    38    40    1
    16    38    41    1
    17     3     4   ar
    18     4     5   ar
    19     5     6   ar
    20     6    13    1
    21    13    14    1
    22    14    15    1
    23    15    16    1
    24    16    19    1
    25    19    20    2
    26    19    21    2
    27    19    22    1
    28    22    23   ar
    29    23    24   ar
    30    24    25   ar
    31    25    26    1
    32    25    27   ar
    33    27    28   ar
    34    16    17    1
    35    17    18    1
    36    10    11   ar
    37    11    12   ar
    38    12     8   ar
    39     6     1   ar
    40    18    13    1
    41    28    22   ar
    42    32    33    1
    43    26    29    1
    44    26    30    1
@<TRIPOS>MOLECULE
*****
 41 44 0 0 0
SMALL
GASTEIGER

@<TRIPOS>ATOM
      1 C           4.5566    1.1436   34.7018 C.ar    1  UNL1        0.0345
      2 C           4.2098    2.1249   35.7819 C.ar    1  UNL1        0.0029
      3 C           4.6164    1.8541   37.2000 C.ar    1  UNL1        0.0374
      4 C           5.3700    0.6020   37.5381 C.ar    1  UNL1        0.0988
      5 N           5.7169   -0.3793   36.4580 N.ar    1  UNL1       -0.2294
      6 C           5.3102   -0.1085   35.0398 C.ar    1  UNL1        0.1318
      7 C           1.7588    1.3256   30.2274 C.3     1  UNL1        0.1538
      8 N           2.8639    1.4980   31.2269 N.ar    1  UNL1       -0.2473
      9 C           2.8427    1.0347   32.6534 C.ar    1  UNL1        0.0968
     10 C           4.1499    1.4144   33.2835 C.ar    1  UNL1        0.0423
     11 C           4.9790    2.1124   32.2465 C.ar    1  UNL1        0.1217
     12 N           4.1842    2.1641   30.9754 N.ar    1  UNL1       -0.1676
     13 N           5.6571   -1.0899   33.9597 N.pl3   1  UNL1       -0.2903
     14 C           6.9709   -0.9839   33.2438 C.3     1  UNL1        0.1113
     15 C           7.3178   -1.9651   32.1637 C.3     1  UNL1        0.1173
     16 N           6.3508   -3.0525   31.7994 N.3     1  UNL1       -0.1520
     17 C           5.0370   -3.1585   32.5153 C.3     1  UNL1        0.1173
     18 C           4.6901   -2.1772   33.5955 C.3     1  UNL1        0.1113
     19 S           6.6977   -4.0338   30.7193 S.O2    1  UNL1        0.0649
     20 O           6.9109   -5.0980   31.7546 O.2     1  UNL1       -0.1527
     21 O           6.4846   -2.9695   29.6839 O.2     1  UNL1       -0.1527
     22 C           7.0446   -5.0151   29.6391 C.ar    1  UNL1        0.1414
     23 C           6.3744   -4.9247   28.3002 C.ar    1  UNL1        0.0244
     24 C           6.7214   -5.9060   27.2201 C.ar    1  UNL1        0.0353
     25 C           7.7385   -6.9777   27.4789 C.ar    1  UNL1        0.1255
     26 N           8.0854   -7.9590   26.3987 N.pl3   1  UNL1       -0.3426
     27 N           8.4087   -7.0681   28.8178 N.ar    1  UNL1       -0.2282
     28 C           8.0618   -6.0868   29.8979 C.ar    1  UNL1        0.1201
     29 H           7.6455   -7.8996   25.5200 H       1  UNL1        0.1437
     30 H           8.7529   -8.6624   26.5686 H       1  UNL1        0.1437
     31 C           4.2696    2.8355   38.2802 C.3     1  UNL1        0.2841
     32 O           5.5075    3.6213   37.9639 O.3     1  UNL1       -0.3692
     33 H           5.5618    3.7674   37.0065 H       1  UNL1        0.2112
     34 C           3.9227    3.8168   39.3603 C.3     1  UNL1        0.4312
     35 F           3.5758    4.7981   40.4405 F       1  UNL1       -0.1669
     36 F           5.0132    3.2533   40.2224 F       1  UNL1       -0.1669
     37 F           3.2586    4.2176   38.9329 F       1  UNL1       -0.1669
     38 C           3.0317    2.0497   38.5965 C.3     1  UNL1        0.4312
     39 F           1.7938    1.2638   38.9129 F       1  UNL1       -0.1669
     40 F           3.3890    1.5316   39.2197 F       1  UNL1       -0.1669
     41 F           1.9930    2.6236   37.6790 F       1  UNL1       -0.1669
@<TRIPOS>BOND
     1     7     8    1
     2     8     9   ar
     3     9    10   ar
     4    10     1    1
     5     1     2   ar
     6     2     3   ar
     7     3    31    1
     8    31    32    1
     9    31    34    1
    10    34    35    1
    11    34    36    1
    12    34    37    1
    13    31    38    1
    14    38    39    1
    15    38    40    1
    16    38    41    1
    17     3     4   ar
    18     4     5   ar
    19     5     6   ar
    20     6    13    1
    21    13    14    1
    22    14    15    1
    23    15    16    1
    24    16    19    1
    25    19    20    2
    26    19    21    2
    27    19    22    1
    28    22    23   ar
    29    23    24   ar
    30    24    25   ar
    31    25    26    1
    32    25    27   ar
    33    27    28   ar
    34    16    17    1
    35    17    18    1
    36    10    11   ar
    37    11    12   ar
    38    12     8   ar
    39     6     1   ar
    40    18    13    1
    41    28    22   ar
    42    32    33    1
    43    26    29    1
    44    26    30    1
@<TRIPOS>MOLECULE
*****
 41 44 0 0 0
SMALL
GASTEIGER

@<TRIPOS>ATOM
      1 C          -1.2877    2.9042   25.0508 C.ar    1  UNL1        0.0345
      2 C          -2.1884    3.3474   23.9363 C.ar    1  UNL1        0.0029
      3 C          -3.5700    3.8453   24.2415 C.ar    1  UNL1        0.0374
      4 C          -4.0509    3.9000   25.6613 C.ar    1  UNL1        0.0988
      5 N          -3.1502    3.4568   26.7758 N.ar    1  UNL1       -0.2294
      6 C          -1.7686    2.9589   26.4706 C.ar    1  UNL1        0.1318
      7 C           2.7900   -0.2996   24.0563 C.3     1  UNL1        0.1538
      8 N           1.9683    0.9336   24.2885 N.ar    1  UNL1       -0.2473
      9 C           0.4986    0.9706   24.5865 C.ar    1  UNL1        0.0968
     10 C           0.0940    2.4063   24.7456 C.ar    1  UNL1        0.0423
     11 C           1.3135    3.2565   24.5460 C.ar    1  UNL1        0.1217
     12 N           2.4719    2.3464   24.2634 N.ar    1  UNL1       -0.1676
     13 N          -0.8678    2.5156   27.5851 N.pl3   1  UNL1       -0.2903
     14 C           0.0965    3.4856   28.2009 C.3     1  UNL1        0.1113
     15 C           0.9972    3.0424   29.3154 C.3     1  UNL1        0.1173
     16 N           0.9337    1.6291   29.8142 N.3     1  UNL1       -0.1520
     17 C          -0.0306    0.6591   29.1984 C.3     1  UNL1        0.1173
     18 C          -0.9314    1.1024   28.0839 C.3     1  UNL1        0.1113
     19 S           1.8345    1.1859   30.9287 S.O2    1  UNL1        0.0649
     20 O           1.9416    2.6039   31.4060 O.2     1  UNL1       -0.1527
     21 O           1.7273   -0.2320   30.4514 O.2     1  UNL1       -0.1527
     22 C           2.7352    0.7428   32.0432 C.ar    1  UNL1        0.1414
     23 C           3.4795   -0.5551   31.9350 C.ar    1  UNL1        0.0244
     24 C           4.3803   -0.9983   33.0496 C.ar    1  UNL1        0.0353
     25 C           4.5368   -0.1436   34.2723 C.ar    1  UNL1        0.1255
     26 N           5.4375   -0.5868   35.3868 N.pl3   1  UNL1       -0.3426
     27 N           3.7925    1.1542   34.3805 N.ar    1  UNL1       -0.2282
     28 C           2.8918    1.5974   33.2660 C.ar    1  UNL1        0.1201
     29 H           5.9260   -1.4386   35.3158 H       1  UNL1        0.1437
     30 H           5.5403   -0.0259   36.1893 H       1  UNL1        0.1437
     31 C          -4.4708    4.2886   23.1269 C.3     1  UNL1        0.2841
     32 O          -5.4179    3.1704   23.4476 O.3     1  UNL1       -0.3692
     33 H          -5.5938    3.1592   24.4014 H       1  UNL1        0.2112
     34 C          -5.3715    4.7318   22.0124 C.3     1  UNL1        0.4312
     35 F          -6.2723    5.1751   20.8978 F       1  UNL1       -0.1669
     36 F          -5.0993    3.4500   21.2826 F       1  UNL1       -0.1669
     37 F          -5.5960    5.5150   22.3599 F       1  UNL1       -0.1669
     38 C          -3.5238    5.4067   22.8063 C.3     1  UNL1        0.4312
     39 F          -2.5767    6.5249   22.4857 F       1  UNL1       -0.1669
     40 F          -3.6544    5.8746   23.5469 F       1  UNL1       -0.1669
     41 F          -2.9655    5.0360   21.4644 F       1  UNL1       -0.1669
@<TRIPOS>BOND
     1     7     8    1
     2     8     9   ar
     3     9    10   ar
     4    10     1    1
     5     1     2   ar
     6     2     3   ar
     7     3    31    1
     8    31    32    1
     9    31    34    1
    10    34    35    1
    11    34    36    1
    12    34    37    1
    13    31    38    1
    14    38    39    1
    15    38    40    1
    16    38    41    1
    17     3     4   ar
    18     4     5   ar
    19     5     6   ar
    20     6    13    1
    21    13    14    1
    22    14    15    1
    23    15    16    1
    24    16    19    1
    25    19    20    2
    26    19    21    2
    27    19    22    1
    28    22    23   ar
    29    23    24   ar
    30    24    25   ar
    31    25    26    1
    32    25    27   ar
    33    27    28   ar
    34    16    17    1
    35    17    18    1
    36    10    11   ar
    37    11    12   ar
    38    12     8   ar
    39     6     1   ar
    40    18    13    1
    41    28    22   ar
    42    32    33    1
    43    26    29    1
    44    26    30    1
@<TRIPOS>MOLECULE
*****
 41 44 0 0 0
SMALL
GASTEIGER

@<TRIPOS>ATOM
      1 C           4.3385    0.2714   33.6466 C.ar    1  UNL1        0.0345
      2 C           4.3070    0.6772   35.0903 C.ar    1  UNL1        0.0029
      3 C           3.5294    1.8886   35.5120 C.ar    1  UNL1        0.0374
      4 C           2.7832    2.6940   34.4901 C.ar    1  UNL1        0.0988
      5 N           2.8147    2.2882   33.0464 N.ar    1  UNL1       -0.2294
      6 C           3.5924    1.0769   32.6247 C.ar    1  UNL1        0.1318
      7 C           8.3079   -2.8921   32.1915 C.3     1  UNL1        0.1538
      8 N           6.9408   -2.3940   32.5560 N.ar    1  UNL1       -0.2473
      9 C           6.5891   -0.9887   32.9449 C.ar    1  UNL1        0.0968
     10 C           5.1162   -0.9400   33.2249 C.ar    1  UNL1        0.0423
     11 C           4.5576   -2.3152   33.0090 C.ar    1  UNL1        0.1217
     12 N           5.6852   -3.2139   32.5956 N.ar    1  UNL1       -0.1676
     13 N           3.6239    0.6710   31.1809 N.pl3   1  UNL1       -0.2903
     14 C           4.7659    1.0973   30.3068 C.3     1  UNL1        0.1113
     15 C           4.7975    0.6915   28.8631 C.3     1  UNL1        0.1173
     16 N           3.6870   -0.1407   28.2935 N.3     1  UNL1       -0.1520
     17 C           2.5450   -0.5670   29.1676 C.3     1  UNL1        0.1173
     18 C           2.5135   -0.1611   30.6114 C.3     1  UNL1        0.1113
     19 S           3.7186   -0.5465   26.8498 S.O2    1  UNL1        0.0649
     20 O           3.8682    0.8911   26.4490 O.2     1  UNL1       -0.1527
     21 O           3.5690   -1.9842   27.2507 O.2     1  UNL1       -0.1527
     22 C           3.7501   -0.9524   25.4061 C.ar    1  UNL1        0.1414
     23 C           4.6544   -2.0623   24.9587 C.ar    1  UNL1        0.0244
     24 C           4.6860   -2.4682   23.5149 C.ar    1  UNL1        0.0353
     25 C           3.8132   -1.7640   22.5187 C.ar    1  UNL1        0.1255
     26 N           3.8448   -2.1699   21.0750 N.pl3   1  UNL1       -0.3426
     27 N           2.9089   -0.6541   22.9662 N.ar    1  UNL1       -0.2282
     28 C           2.8774   -0.2483   24.4098 C.ar    1  UNL1        0.1201
     29 H           4.4384   -2.8984   20.7814 H       1  UNL1        0.1437
     30 H           3.2720   -1.7078   20.4211 H       1  UNL1        0.1437
     31 C           3.4978    2.2944   36.9558 C.3     1  UNL1        0.2841
     32 O           2.0134    2.0808   36.9835 O.3     1  UNL1       -0.3692
     33 H           1.8035    1.2188   36.5912 H       1  UNL1        0.2112
     34 C           3.4663    2.7003   38.3995 C.3     1  UNL1        0.4312
     35 F           3.4349    3.1062   39.8432 F       1  UNL1       -0.1669
     36 F           3.0989    1.2983   38.7856 F       1  UNL1       -0.1669
     37 F           3.6794    3.5512   38.2771 F       1  UNL1       -0.1669
     38 C           4.9822    2.5081   36.9281 C.3     1  UNL1        0.4312
     39 F           6.4667    2.7219   36.9003 F       1  UNL1       -0.1669
     40 F           4.9781    3.2281   36.4123 F       1  UNL1       -0.1669
     41 F           5.5253    1.3934   37.7720 F       1  UNL1       -0.1669
@<TRIPOS>BOND
     1     7     8    1
     2     8     9   ar
     3     9    10   ar
     4    10     1    1
     5     1     2   ar
     6     2     3   ar
     7     3    31    1
     8    31    32    1
     9    31    34    1
    10    34    35    1
    11    34    36    1
    12    34    37    1
    13    31    38    1
    14    38    39    1
    15    38    40    1
    16    38    41    1
    17     3     4   ar
    18     4     5   ar
    19     5     6   ar
    20     6    13    1
    21    13    14    1
    22    14    15    1
    23    15    16    1
    24    16    19    1
    25    19    20    2
    26    19    21    2
    27    19    22    1
    28    22    23   ar
    29    23    24   ar
    30    24    25   ar
    31    25    26    1
    32    25    27   ar
    33    27    28   ar
    34    16    17    1
    35    17    18    1
    36    10    11   ar
    37    11    12   ar
    38    12     8   ar
    39     6     1   ar
    40    18    13    1
    41    28    22   ar
    42    32    33    1
    43    26    29    1
    44    26    30    1
@<TRIPOS>MOLECULE
*****
 41 44 0 0 0
SMALL
GASTEIGER

@<TRIPOS>ATOM
      1 C           3.6821    0.2204   30.3483 C.ar    1  UNL1        0.0345
      2 C           3.8791    0.2098   31.8353 C.ar    1  UNL1        0.0029
      3 C           5.1925   -0.2251   32.4147 C.ar    1  UNL1        0.0374
      4 C           6.3089   -0.6493   31.5072 C.ar    1  UNL1        0.0988
      5 N           6.1120   -0.6387   30.0203 N.ar    1  UNL1       -0.2294
      6 C           4.7985   -0.2039   29.4408 C.ar    1  UNL1        0.1318
      7 C          -1.2670    0.1438   28.5094 C.3     1  UNL1        0.1538
      8 N           0.0937    0.6200   28.9236 N.ar    1  UNL1       -0.2473
      9 C           1.1861   -0.2288   29.5034 C.ar    1  UNL1        0.0968
     10 C           2.3686    0.6552   29.7688 C.ar    1  UNL1        0.0423
     11 C           2.0070    2.0503   29.3530 C.ar    1  UNL1        0.1217
     12 N           0.6011    2.0286   28.8306 N.ar    1  UNL1       -0.1676
     13 N           4.6015   -0.1932   27.9538 N.pl3   1  UNL1       -0.2903
     14 C           4.9192    1.0418   27.1640 C.3     1  UNL1        0.1113
     15 C           4.7222    1.0525   25.6771 C.3     1  UNL1        0.1173
     16 N           4.2075   -0.1719   24.9799 N.3     1  UNL1       -0.1520
     17 C           3.8898   -1.4070   25.7697 C.3     1  UNL1        0.1173
     18 C           4.0869   -1.4176   27.2567 C.3     1  UNL1        0.1113
     19 S           4.0105   -0.1613   23.4929 S.O2    1  UNL1        0.0649
     20 O           2.5255   -0.0852   23.6902 O.2     1  UNL1       -0.1527
     21 O           5.4955   -0.2374   23.2956 O.2     1  UNL1       -0.1527
     22 C           3.8135   -0.1506   22.0060 C.ar    1  UNL1        0.1414
     23 C           3.0181   -1.2383   21.3470 C.ar    1  UNL1        0.0244
     24 C           2.8211   -1.2276   19.8599 C.ar    1  UNL1        0.0353
     25 C           3.4195   -0.1292   19.0320 C.ar    1  UNL1        0.1255
     26 N           3.2225   -0.1186   17.5451 N.pl3   1  UNL1       -0.3426
     27 N           4.2148    0.9585   19.6910 N.ar    1  UNL1       -0.2282
     28 C           4.4118    0.9478   21.1780 C.ar    1  UNL1        0.1201
     29 H           2.7005   -0.8325   17.1126 H       1  UNL1        0.1437
     30 H           3.6152    0.6023   17.0017 H       1  UNL1        0.1437
     31 C           5.3895   -0.2357   33.9017 C.3     1  UNL1        0.2841
     32 O           6.1372    1.0616   33.8120 O.3     1  UNL1       -0.3692
     33 H           5.6320    1.6892   33.2717 H       1  UNL1        0.2112
     34 C           5.5865   -0.2463   35.3887 C.3     1  UNL1        0.4312
     35 F           5.7835   -0.2570   36.8757 F       1  UNL1       -0.1669
     36 F           4.5818    0.8585   35.5297 F       1  UNL1       -0.1669
     37 F           6.1895   -0.8946   35.4131 F       1  UNL1       -0.1669
     38 C           4.6419   -1.5329   33.9915 C.3     1  UNL1        0.4312
     39 F           3.8942   -2.8302   34.0813 F       1  UNL1       -0.1669
     40 F           3.9069   -1.2084   34.3642 F       1  UNL1       -0.1669
     41 F           5.5886   -2.5388   33.4068 F       1  UNL1       -0.1669
@<TRIPOS>BOND
     1     7     8    1
     2     8     9   ar
     3     9    10   ar
     4    10     1    1
     5     1     2   ar
     6     2     3   ar
     7     3    31    1
     8    31    32    1
     9    31    34    1
    10    34    35    1
    11    34    36    1
    12    34    37    1
    13    31    38    1
    14    38    39    1
    15    38    40    1
    16    38    41    1
    17     3     4   ar
    18     4     5   ar
    19     5     6   ar
    20     6    13    1
    21    13    14    1
    22    14    15    1
    23    15    16    1
    24    16    19    1
    25    19    20    2
    26    19    21    2
    27    19    22    1
    28    22    23   ar
    29    23    24   ar
    30    24    25   ar
    31    25    26    1
    32    25    27   ar
    33    27    28   ar
    34    16    17    1
    35    17    18    1
    36    10    11   ar
    37    11    12   ar
    38    12     8   ar
    39     6     1   ar
    40    18    13    1
    41    28    22   ar
    42    32    33    1
    43    26    29    1
    44    26    30    1
@<TRIPOS>MOLECULE
*****
 41 44 0 0 0
SMALL
GASTEIGER

@<TRIPOS>ATOM
      1 C           3.2858    0.5051   30.4973 C.ar    1  UNL1        0.0345
      2 C           4.1302    0.1048   31.6705 C.ar    1  UNL1        0.0029
      3 C           3.7247    0.5055   33.0579 C.ar    1  UNL1        0.0374
      4 C           2.4747    1.3065   33.2720 C.ar    1  UNL1        0.0988
      5 N           1.6302    1.7068   32.0988 N.ar    1  UNL1       -0.2294
      6 C           2.0358    1.3061   30.7114 C.ar    1  UNL1        0.1318
      7 C           5.8208    0.2933   25.8701 C.3     1  UNL1        0.1538
      8 N           4.8566    0.0071   26.9829 N.ar    1  UNL1       -0.2473
      9 C           4.8053    0.7090   28.3075 C.ar    1  UNL1        0.0968
     10 C           3.6913    0.1044   29.1098 C.ar    1  UNL1        0.0423
     11 C           3.0541   -0.9713   28.2810 C.ar    1  UNL1        0.1217
     12 N           3.7743   -1.0314   26.9665 N.ar    1  UNL1       -0.1676
     13 N           1.1913    1.7064   29.5380 N.pl3   1  UNL1       -0.2903
     14 C          -0.0127    0.8920   29.1679 C.3     1  UNL1        0.1113
     15 C          -0.8572    1.2923   27.9946 C.3     1  UNL1        0.1173
     16 N          -0.4976    2.5070   27.1913 N.3     1  UNL1       -0.1520
     17 C           0.7064    3.3214   27.5614 C.3     1  UNL1        0.1173
     18 C           1.5509    2.9211   28.7348 C.3     1  UNL1        0.1113
     19 S          -1.3420    2.9072   26.0180 S.O2    1  UNL1        0.0649
     20 O          -2.0764    3.8895   26.8816 O.2     1  UNL1       -0.1527
     21 O          -0.6077    1.9250   25.1545 O.2     1  UNL1       -0.1527
     22 C          -2.1865    3.3075   24.8448 C.ar    1  UNL1        0.1414
     23 C          -3.6591    3.5309   25.0220 C.ar    1  UNL1        0.0244
     24 C          -4.5036    3.9312   23.8486 C.ar    1  UNL1        0.0353
     25 C          -3.8754    4.1080   22.4981 C.ar    1  UNL1        0.1255
     26 N          -4.7198    4.5083   21.3248 N.pl3   1  UNL1       -0.3426
     27 N          -2.4027    3.8846   22.3208 N.ar    1  UNL1       -0.2282
     28 C          -1.5583    3.4844   23.4941 C.ar    1  UNL1        0.1201
     29 H          -5.6864    4.6549   21.4411 H       1  UNL1        0.1437
     30 H          -4.3075    4.6243   20.4383 H       1  UNL1        0.1437
     31 C           4.5691    0.1052   34.2313 C.3     1  UNL1        0.2841
     32 O           4.6634    1.5414   34.6535 O.3     1  UNL1       -0.3692
     33 H           3.7782    1.9380   34.6507 H       1  UNL1        0.2112
     34 C           5.4135   -0.2951   35.4046 C.3     1  UNL1        0.4312
     35 F           6.2580   -0.6955   36.5779 F       1  UNL1       -0.1669
     36 F           6.5804    0.4410   34.8159 F       1  UNL1       -0.1669
     37 F           4.7905   -0.7554   35.8340 F       1  UNL1       -0.1669
     38 C           4.4748   -1.3310   33.8091 C.3     1  UNL1        0.4312
     39 F           4.3805   -2.7673   33.3869 F       1  UNL1       -0.1669
     40 F           3.6066   -1.4295   33.9540 F       1  UNL1       -0.1669
     41 F           5.8781   -1.6869   33.4166 F       1  UNL1       -0.1669
@<TRIPOS>BOND
     1     7     8    1
     2     8     9   ar
     3     9    10   ar
     4    10     1    1
     5     1     2   ar
     6     2     3   ar
     7     3    31    1
     8    31    32    1
     9    31    34    1
    10    34    35    1
    11    34    36    1
    12    34    37    1
    13    31    38    1
    14    38    39    1
    15    38    40    1
    16    38    41    1
    17     3     4   ar
    18     4     5   ar
    19     5     6   ar
    20     6    13    1
    21    13    14    1
    22    14    15    1
    23    15    16    1
    24    16    19    1
    25    19    20    2
    26    19    21    2
    27    19    22    1
    28    22    23   ar
    29    23    24   ar
    30    24    25   ar
    31    25    26    1
    32    25    27   ar
    33    27    28   ar
    34    16    17    1
    35    17    18    1
    36    10    11   ar
    37    11    12   ar
    38    12     8   ar
    39     6     1   ar
    40    18    13    1
    41    28    22   ar
    42    32    33    1
    43    26    29    1
    44    26    30    1
@<TRIPOS>MOLECULE
*****
 41 44 0 0 0
SMALL
GASTEIGER

@<TRIPOS>ATOM
      1 C           5.4145   -1.5737   22.8965 C.ar    1  UNL1        0.0345
      2 C           5.2854   -1.5945   21.4022 C.ar    1  UNL1        0.0029
      3 C           4.2960   -0.6952   20.7224 C.ar    1  UNL1        0.0374
      4 C           3.4358    0.2251   21.5368 C.ar    1  UNL1        0.0988
      5 N           3.5650    0.2459   23.0310 N.ar    1  UNL1       -0.2294
      6 C           4.5543   -0.6535   23.7109 C.ar    1  UNL1        0.1318
      7 C           7.5711   -5.7233   25.3483 C.3     1  UNL1        0.1538
      8 N           7.3951   -4.3805   24.7034 N.ar    1  UNL1       -0.2473
      9 C           6.1260   -3.8485   24.1066 C.ar    1  UNL1        0.0968
     10 C           6.4039   -2.4731   23.5764 C.ar    1  UNL1        0.0423
     11 C           7.8448   -2.1550   23.8456 C.ar    1  UNL1        0.1217
     12 N           8.4575   -3.3338   24.5421 N.ar    1  UNL1       -0.1676
     13 N           4.6835   -0.6327   25.2052 N.pl3   1  UNL1       -0.2903
     14 C           5.7064    0.2496   25.8574 C.3     1  UNL1        0.1113
     15 C           5.8356    0.2704   27.3516 C.3     1  UNL1        0.1173
     16 N           4.9419   -0.5910   28.1938 N.3     1  UNL1       -0.1520
     17 C           3.9189   -1.4733   27.5417 C.3     1  UNL1        0.1173
     18 C           3.7898   -1.4941   26.0473 C.3     1  UNL1        0.1113
     19 S           5.0711   -0.5702   29.6881 S.O2    1  UNL1        0.0649
     20 O           6.5613   -0.4601   29.5577 O.2     1  UNL1       -0.1527
     21 O           3.5808   -0.6803   29.8184 O.2     1  UNL1       -0.1527
     22 C           5.2003   -0.5494   31.1823 C.ar    1  UNL1        0.1414
     23 C           4.1240   -1.1507   32.0366 C.ar    1  UNL1        0.0244
     24 C           4.2532   -1.1299   33.5310 C.ar    1  UNL1        0.0353
     25 C           5.4587   -0.5077   34.1709 C.ar    1  UNL1        0.1255
     26 N           5.5879   -0.4868   35.6651 N.pl3   1  UNL1       -0.3426
     27 N           6.5351    0.0937   33.3165 N.ar    1  UNL1       -0.2282
     28 C           6.4059    0.0729   31.8223 C.ar    1  UNL1        0.1201
     29 H           4.8815   -0.8815   36.2258 H       1  UNL1        0.1437
     30 H           6.3792   -0.0784   36.0851 H       1  UNL1        0.1437
     31 C           4.1669   -0.7160   19.2280 C.3     1  UNL1        0.2841
     32 O           4.7760    0.6529   19.1563 O.3     1  UNL1       -0.3692
     33 H           5.5823    0.6766   19.6949 H       1  UNL1        0.2112
     34 C           4.0377   -0.7368   17.7338 C.3     1  UNL1        0.4312
     35 F           3.9085   -0.7577   16.2395 F       1  UNL1       -0.1669
     36 F           5.5313   -0.7873   17.6054 F       1  UNL1       -0.1669
     37 F           3.1530   -0.7087   17.7015 F       1  UNL1       -0.1669
     38 C           3.5578   -2.0848   19.2998 C.3     1  UNL1        0.4312
     39 F           2.9486   -3.4537   19.3716 F       1  UNL1       -0.1669
     40 F           2.8003   -1.8456   19.6915 F       1  UNL1       -0.1669
     41 F           4.5919   -2.9754   18.6773 F       1  UNL1       -0.1669
@<TRIPOS>BOND
     1     7     8    1
     2     8     9   ar
     3     9    10   ar
     4    10     1    1
     5     1     2   ar
     6     2     3   ar
     7     3    31    1
     8    31    32    1
     9    31    34    1
    10    34    35    1
    11    34    36    1
    12    34    37    1
    13    31    38    1
    14    38    39    1
    15    38    40    1
    16    38    41    1
    17     3     4   ar
    18     4     5   ar
    19     5     6   ar
    20     6    13    1
    21    13    14    1
    22    14    15    1
    23    15    16    1
    24    16    19    1
    25    19    20    2
    26    19    21    2
    27    19    22    1
    28    22    23   ar
    29    23    24   ar
    30    24    25   ar
    31    25    26    1
    32    25    27   ar
    33    27    28   ar
    34    16    17    1
    35    17    18    1
    36    10    11   ar
    37    11    12   ar
    38    12     8   ar
    39     6     1   ar
    40    18    13    1
    41    28    22   ar
    42    32    33    1
    43    26    29    1
    44    26    30    1
@<TRIPOS>MOLECULE
*****
 41 44 0 0 0
SMALL
GASTEIGER

@<TRIPOS>ATOM
      1 C           5.1080   -1.8351   24.7826 C.ar    1  UNL1        0.0345
      2 C           5.3668   -2.4254   23.4282 C.ar    1  UNL1        0.0029
      3 C           4.3886   -2.2017   22.3132 C.ar    1  UNL1        0.0374
      4 C           3.1516   -1.3878   22.5528 C.ar    1  UNL1        0.0988
      5 N           2.8928   -0.7975   23.9072 N.ar    1  UNL1       -0.2294
      6 C           3.8710   -1.0212   25.0221 C.ar    1  UNL1        0.1318
      7 C           7.8485   -4.1173   28.6765 C.3     1  UNL1        0.1538
      8 N           7.3458   -3.1079   27.6874 N.ar    1  UNL1       -0.2473
      9 C           6.2638   -3.3307   26.6728 C.ar    1  UNL1        0.0968
     10 C           6.0862   -2.0588   25.8976 C.ar    1  UNL1        0.0423
     11 C           7.0585   -1.0500   26.4331 C.ar    1  UNL1        0.1217
     12 N           7.8370   -1.6983   27.5393 N.ar    1  UNL1       -0.1676
     13 N           3.6122   -0.4310   26.3767 N.pl3   1  UNL1       -0.2903
     14 C           3.7706    1.0446   26.5945 C.3     1  UNL1        0.1113
     15 C           3.5119    1.6349   27.9489 C.3     1  UNL1        0.1173
     16 N           3.0946    0.7495   29.0857 N.3     1  UNL1       -0.1520
     17 C           2.9362   -0.7261   28.8679 C.3     1  UNL1        0.1173
     18 C           3.1950   -1.3163   27.5133 C.3     1  UNL1        0.1113
     19 S           2.8359    1.3398   30.4401 S.O2    1  UNL1        0.0649
     20 O           3.5627    2.5878   30.0351 O.2     1  UNL1       -0.1527
     21 O           2.1091    0.0918   30.8452 O.2     1  UNL1       -0.1527
     22 C           2.5771    1.9300   31.7946 C.ar    1  UNL1        0.1414
     23 C           1.7714    3.1888   31.9227 C.ar    1  UNL1        0.0244
     24 C           1.5127    3.7790   33.2773 C.ar    1  UNL1        0.0353
     25 C           2.0596    3.1106   34.5036 C.ar    1  UNL1        0.1255
     26 N           1.8008    3.7008   35.8580 N.pl3   1  UNL1       -0.3426
     27 N           2.8653    1.8518   34.3755 N.ar    1  UNL1       -0.2282
     28 C           3.1241    1.2616   33.0210 C.ar    1  UNL1        0.1201
     29 H           1.2720    4.5270   35.9421 H       1  UNL1        0.1437
     30 H           2.1598    3.2621   36.6630 H       1  UNL1        0.1437
     31 C           4.6474   -2.7919   20.9587 C.3     1  UNL1        0.2841
     32 O           4.6663   -4.1656   21.5608 O.3     1  UNL1       -0.3692
     33 H           3.8915   -4.2783   22.1334 H       1  UNL1        0.2112
     34 C           4.9062   -3.3821   19.6042 C.3     1  UNL1        0.4312
     35 F           5.1649   -3.9723   18.2496 F       1  UNL1       -0.1669
     36 F           3.5471   -4.0165   19.6210 F       1  UNL1       -0.1669
     37 F           5.7213   -3.0528   19.4968 F       1  UNL1       -0.1669
     38 C           4.6285   -1.4183   20.3566 C.3     1  UNL1        0.4312
     39 F           4.6096   -0.0445   19.7544 F       1  UNL1       -0.1669
     40 F           5.3794   -1.1281   20.7258 F       1  UNL1       -0.1669
     41 F           3.3784   -1.4024   19.5277 F       1  UNL1       -0.1669
@<TRIPOS>BOND
     1     7     8    1
     2     8     9   ar
     3     9    10   ar
     4    10     1    1
     5     1     2   ar
     6     2     3   ar
     7     3    31    1
     8    31    32    1
     9    31    34    1
    10    34    35    1
    11    34    36    1
    12    34    37    1
    13    31    38    1
    14    38    39    1
    15    38    40    1
    16    38    41    1
    17     3     4   ar
    18     4     5   ar
    19     5     6   ar
    20     6    13    1
    21    13    14    1
    22    14    15    1
    23    15    16    1
    24    16    19    1
    25    19    20    2
    26    19    21    2
    27    19    22    1
    28    22    23   ar
    29    23    24   ar
    30    24    25   ar
    31    25    26    1
    32    25    27   ar
    33    27    28   ar
    34    16    17    1
    35    17    18    1
    36    10    11   ar
    37    11    12   ar
    38    12     8   ar
    39     6     1   ar
    40    18    13    1
    41    28    22   ar
    42    32    33    1
    43    26    29    1
    44    26    30    1
@<TRIPOS>MOLECULE
*****
 41 44 0 0 0
SMALL
GASTEIGER

@<TRIPOS>ATOM
      1 C           3.2057    0.4575   23.5311 C.ar    1  UNL1        0.0345
      2 C           3.0472    0.4419   22.0396 C.ar    1  UNL1        0.0029
      3 C           3.9227   -0.4419   21.2016 C.ar    1  UNL1        0.0374
      4 C           4.9567   -1.3102   21.8551 C.ar    1  UNL1        0.0988
      5 N           5.1152   -1.2946   23.3466 N.ar    1  UNL1       -0.2294
      6 C           4.2397   -0.4107   24.1846 C.ar    1  UNL1        0.1318
      7 C          -0.8873    2.2709   26.3312 C.3     1  UNL1        0.1538
      8 N           0.4488    2.1748   25.6563 N.ar    1  UNL1       -0.2473
      9 C           0.9514    1.0089   24.8576 C.ar    1  UNL1        0.0968
     10 C           2.3302    1.3414   24.3692 C.ar    1  UNL1        0.0423
     11 C           2.6798    2.7128   24.8661 C.ar    1  UNL1        0.1217
     12 N           1.5170    3.2280   25.6615 N.ar    1  UNL1       -0.1676
     13 N           4.3982   -0.3951   25.6762 N.pl3   1  UNL1       -0.2903
     14 C           3.5721   -1.3129   26.5278 C.3     1  UNL1        0.1113
     15 C           3.7305   -1.2973   28.0193 C.3     1  UNL1        0.1173
     16 N           4.7151   -0.3639   28.6592 N.3     1  UNL1       -0.1520
     17 C           5.5412    0.5538   27.8076 C.3     1  UNL1        0.1173
     18 C           5.3827    0.5382   26.3161 C.3     1  UNL1        0.1113
     19 S           4.8735   -0.3484   30.1507 S.O2    1  UNL1        0.0649
     20 O           4.2570    1.0181   30.2020 O.2     1  UNL1       -0.1527
     21 O           5.4899   -1.7148   30.0995 O.2     1  UNL1       -0.1527
     22 C           5.0319   -0.3328   31.6422 C.ar    1  UNL1        0.1414
     23 C           4.4002   -1.4087   32.4749 C.ar    1  UNL1        0.0244
     24 C           4.5587   -1.3931   33.9664 C.ar    1  UNL1        0.0353
     25 C           5.3488   -0.3016   34.6253 C.ar    1  UNL1        0.1255
     26 N           5.5072   -0.2860   36.1168 N.pl3   1  UNL1       -0.3426
     27 N           5.9805    0.7744   33.7927 N.ar    1  UNL1       -0.2282
     28 C           5.8221    0.7588   32.3012 C.ar    1  UNL1        0.1201
     29 H           5.0926   -0.9922   36.6633 H       1  UNL1        0.1437
     30 H           6.0259    0.4304   36.5493 H       1  UNL1        0.1437
     31 C           3.7642   -0.4575   19.7100 C.3     1  UNL1        0.2841
     32 O           5.2073   -0.0800   19.5527 O.3     1  UNL1       -0.3692
     33 H           5.7546   -0.6548   20.1104 H       1  UNL1        0.2112
     34 C           3.6057   -0.4731   18.2186 C.3     1  UNL1        0.4312
     35 F           3.4472   -0.4887   16.7270 F       1  UNL1       -0.1669
     36 F           3.8359    1.0085   18.1786 F       1  UNL1       -0.1669
     37 F           3.4594   -1.3426   18.1346 F       1  UNL1       -0.1669
     38 C           2.3211   -0.8350   19.8674 C.3     1  UNL1        0.4312
     39 F           0.8779   -1.2126   20.0247 F       1  UNL1       -0.1669
     40 F           2.4569   -1.6448   20.1994 F       1  UNL1       -0.1669
     41 F           1.5750    0.3692   19.3745 F       1  UNL1       -0.1669
@<TRIPOS>BOND
     1     7     8    1
     2     8     9   ar
     3     9    10   ar
     4    10     1    1
     5     1     2   ar
     6     2     3   ar
     7     3    31    1
     8    31    32    1
     9    31    34    1
    10    34    35    1
    11    34    36    1
    12    34    37    1
    13    31    38    1
    14    38    39    1
    15    38    40    1
    16    38    41    1
    17     3     4   ar
    18     4     5   ar
    19     5     6   ar
    20     6    13    1
    21    13    14    1
    22    14    15    1
    23    15    16    1
    24    16    19    1
    25    19    20    2
    26    19    21    2
    27    19    22    1
    28    22    23   ar
    29    23    24   ar
    30    24    25   ar
    31    25    26    1
    32    25    27   ar
    33    27    28   ar
    34    16    17    1
    35    17    18    1
    36    10    11   ar
    37    11    12   ar
    38    12     8   ar
    39     6     1   ar
    40    18    13    1
    41    28    22   ar
    42    32    33    1
    43    26    29    1
    44    26    30    1
