@<TRIPOS>MOLECULE
*****
 23 24 0 0 0
SMALL
GASTEIGER

@<TRIPOS>ATOM
      1 C          -6.3654  -18.5633   21.7457 C.ar    1  UNL1        0.1466
      2 N          -5.7594  -17.6336   22.7548 N.ar    1  UNL1       -0.2017
      3 C          -6.6037  -16.5765   23.4027 C.ar    1  UNL1        0.2354
      4 N          -8.0539  -16.4491   23.0416 N.ar    1  UNL1       -0.2015
      5 C          -8.6600  -17.3789   22.0325 C.ar    1  UNL1        0.1499
      6 C          -7.8157  -18.4359   21.3845 C.ar    1  UNL1        0.1055
      7 N          -8.4218  -19.3657   20.3753 N.pl3   1  UNL1       -0.3526
      8 H          -9.3737  -19.2821   20.1383 H       1  UNL1        0.1425
      9 H          -7.8677  -20.0595   19.9501 H       1  UNL1        0.1425
     10 N         -10.1103  -17.2515   21.6713 N.pl3   1  UNL1       -0.2870
     11 C         -10.5372  -16.2763   20.6146 C.3     1  UNL1        0.1243
     12 C         -11.9876  -16.1490   20.2534 C.3     1  UNL1        0.1636
     13 O         -13.0109  -16.9969   20.9489 O.3     1  UNL1       -0.3501
     14 C         -12.5839  -17.9722   22.0056 C.3     1  UNL1        0.1636
     15 C         -11.1336  -18.0995   22.3668 C.3     1  UNL1        0.1243
     16 N          -5.5212  -19.6203   21.0977 N.pl3   1  UNL1       -0.3170
     17 H          -5.5469  -20.5454   21.4337 H       1  UNL1        0.1482
     18 C          -4.6378  -19.2681   19.9378 C.3     1  UNL1        0.0882
     19 C          -2.5077  -19.6670   21.3710 C.3     1  UNL1        0.0017
     20 C          -3.1605  -19.1070   20.1420 C.3     1  UNL1        0.0196
     21 C          -2.3359  -18.3860   19.1172 C.3     1  UNL1        0.0017
     22 C          -5.9976  -15.6468   24.4119 C.1     1  UNL1        0.1400
     23 N          -5.3915  -14.7171   25.4209 N.1     1  UNL1       -0.1876
@<TRIPOS>BOND
     1    19    20    1
     2    20    21    1
     3    20    18    1
     4    18    16    1
     5    16     1    1
     6     1     2   ar
     7     2     3   ar
     8     3    22    1
     9    22    23    3
    10     3     4   ar
    11     4     5   ar
    12     5    10    1
    13    10    11    1
    14    11    12    1
    15    12    13    1
    16    13    14    1
    17    14    15    1
    18     5     6   ar
    19     6     7    1
    20     6     1   ar
    21    15    10    1
    22    16    17    1
    23     7     8    1
    24     7     9    1
@<TRIPOS>MOLECULE
*****
 23 24 0 0 0
SMALL
GASTEIGER

@<TRIPOS>ATOM
      1 C          -6.8050  -16.0539   24.0714 C.ar    1  UNL1        0.1466
      2 N          -5.7464  -16.9407   23.4859 N.ar    1  UNL1       -0.2017
      3 C          -6.0936  -17.8947   22.3816 C.ar    1  UNL1        0.2354
      4 N          -7.4994  -17.9620   21.8629 N.ar    1  UNL1       -0.2015
      5 C          -8.5581  -17.0752   22.4485 C.ar    1  UNL1        0.1499
      6 C          -8.2109  -16.1212   23.5527 C.ar    1  UNL1        0.1055
      7 N          -9.2696  -15.2344   24.1383 N.pl3   1  UNL1       -0.3526
      8 H         -10.1923  -15.2785   23.7978 H       1  UNL1        0.1425
      9 H          -9.0417  -14.6082   24.8630 H       1  UNL1        0.1425
     10 N          -9.9640  -17.1424   21.9298 N.pl3   1  UNL1       -0.2870
     11 C         -10.4400  -16.1395   20.9211 C.3     1  UNL1        0.1243
     12 C         -11.8459  -16.2067   20.4024 C.3     1  UNL1        0.1636
     13 O         -12.7758  -17.2769   20.8925 O.3     1  UNL1       -0.3501
     14 C         -12.2997  -18.2798   21.9013 C.3     1  UNL1        0.1636
     15 C         -10.8938  -18.2125   22.4199 C.3     1  UNL1        0.1243
     16 N          -6.4578  -15.0999   25.1756 N.pl3   1  UNL1       -0.3170
     17 H          -6.1641  -14.1850   24.9615 H       1  UNL1        0.1482
     18 C          -6.5581  -15.5399   26.6061 C.3     1  UNL1        0.0882
     19 C          -8.5776  -14.5995   27.9431 C.3     1  UNL1        0.0017
     20 C          -7.9044  -15.7389   27.2370 C.3     1  UNL1        0.0196
     21 C          -8.5774  -17.0773   27.1618 C.3     1  UNL1        0.0017
     22 C          -5.0349  -18.7815   21.7961 C.1     1  UNL1        0.1400
     23 N          -3.9762  -19.6683   21.2106 N.1     1  UNL1       -0.1876
@<TRIPOS>BOND
     1    19    20    1
     2    20    21    1
     3    20    18    1
     4    18    16    1
     5    16     1    1
     6     1     2   ar
     7     2     3   ar
     8     3    22    1
     9    22    23    3
    10     3     4   ar
    11     4     5   ar
    12     5    10    1
    13    10    11    1
    14    11    12    1
    15    12    13    1
    16    13    14    1
    17    14    15    1
    18     5     6   ar
    19     6     7    1
    20     6     1   ar
    21    15    10    1
    22    16    17    1
    23     7     8    1
    24     7     9    1
@<TRIPOS>MOLECULE
*****
 23 24 0 0 0
SMALL
GASTEIGER

@<TRIPOS>ATOM
      1 C          -6.4949  -16.9007   23.2947 C.ar    1  UNL1        0.1466
      2 N          -6.6292  -16.3156   24.6693 N.ar    1  UNL1       -0.2017
      3 C          -7.9789  -15.9100   25.1831 C.ar    1  UNL1        0.2354
      4 N          -9.1941  -16.0895   24.3224 N.ar    1  UNL1       -0.2015
      5 C          -9.0597  -16.6746   22.9478 C.ar    1  UNL1        0.1499
      6 C          -7.7101  -17.0802   22.4339 C.ar    1  UNL1        0.1055
      7 N          -7.5758  -17.6654   21.0593 N.pl3   1  UNL1       -0.3526
      8 H          -8.3734  -17.7832   20.4943 H       1  UNL1        0.1425
      9 H          -6.6900  -17.9316   20.7220 H       1  UNL1        0.1425
     10 N         -10.2750  -16.8542   22.0870 N.pl3   1  UNL1       -0.2870
     11 C         -10.5611  -15.8820   20.9811 C.3     1  UNL1        0.1243
     12 C         -11.7764  -16.0616   20.1203 C.3     1  UNL1        0.1636
     13 O         -12.7055  -17.2133   20.3654 O.3     1  UNL1       -0.3501
     14 C         -12.4195  -18.1855   21.4714 C.3     1  UNL1        0.1636
     15 C         -11.2042  -18.0059   22.3321 C.3     1  UNL1        0.1243
     16 N          -5.1453  -17.3063   22.7808 N.pl3   1  UNL1       -0.3170
     17 H          -4.5007  -16.6194   22.4946 H       1  UNL1        0.1482
     18 C          -4.7777  -18.7585   22.7030 C.3     1  UNL1        0.0882
     19 C          -2.5026  -19.5231   21.7083 C.3     1  UNL1        0.0017
     20 C          -3.9716  -19.2671   21.5448 C.3     1  UNL1        0.0196
     21 C          -4.6344  -19.5198   20.2232 C.3     1  UNL1        0.0017
     22 C          -8.1132  -15.3249   26.5578 C.1     1  UNL1        0.1400
     23 N          -8.2474  -14.7398   27.9324 N.1     1  UNL1       -0.1876
@<TRIPOS>BOND
     1    19    20    1
     2    20    21    1
     3    20    18    1
     4    18    16    1
     5    16     1    1
     6     1     2   ar
     7     2     3   ar
     8     3    22    1
     9    22    23    3
    10     3     4   ar
    11     4     5   ar
    12     5    10    1
    13    10    11    1
    14    11    12    1
    15    12    13    1
    16    13    14    1
    17    14    15    1
    18     5     6   ar
    19     6     7    1
    20     6     1   ar
    21    15    10    1
    22    16    17    1
    23     7     8    1
    24     7     9    1
@<TRIPOS>MOLECULE
*****
 23 24 0 0 0
SMALL
GASTEIGER

@<TRIPOS>ATOM
      1 C          -7.1444  -18.8198   20.9893 C.ar    1  UNL1        0.1466
      2 N          -7.3533  -19.6400   19.7509 N.ar    1  UNL1       -0.2017
      3 C          -8.7426  -19.8973   19.2473 C.ar    1  UNL1        0.2354
      4 N          -9.9230  -19.3345   19.9820 N.ar    1  UNL1       -0.2015
      5 C          -9.7141  -18.5144   21.2204 C.ar    1  UNL1        0.1499
      6 C          -8.3248  -18.2570   21.7241 C.ar    1  UNL1        0.1055
      7 N          -8.1159  -17.4368   22.9625 N.pl3   1  UNL1       -0.3526
      8 H          -8.8906  -17.0674   23.4448 H       1  UNL1        0.1425
      9 H          -7.2041  -17.2679   23.2931 H       1  UNL1        0.1425
     10 N         -10.8945  -17.9515   21.9553 N.pl3   1  UNL1       -0.2870
     11 C         -11.3466  -16.5472   21.6843 C.3     1  UNL1        0.1243
     12 C         -12.5270  -15.9844   22.4191 C.3     1  UNL1        0.1636
     13 O         -13.2552  -16.8259   23.4249 O.3     1  UNL1       -0.3501
     14 C         -12.8030  -18.2302   23.6959 C.3     1  UNL1        0.1636
     15 C         -11.6227  -18.7930   22.9611 C.3     1  UNL1        0.1243
     16 N          -5.7551  -18.5625   21.4929 N.pl3   1  UNL1       -0.3170
     17 H          -5.5322  -17.6946   21.9006 H       1  UNL1        0.1482
     18 C          -4.7055  -19.6276   21.3754 C.3     1  UNL1        0.0882
     19 C          -3.3403  -18.6929   19.3722 C.3     1  UNL1        0.0017
     20 C          -3.3849  -19.3120   20.7378 C.3     1  UNL1        0.0196
     21 C          -2.1090  -19.6156   21.4656 C.3     1  UNL1        0.0017
     22 C          -8.9515  -20.7175   18.0088 C.1     1  UNL1        0.1400
     23 N          -9.1604  -21.5376   16.7704 N.1     1  UNL1       -0.1876
@<TRIPOS>BOND
     1    19    20    1
     2    20    21    1
     3    20    18    1
     4    18    16    1
     5    16     1    1
     6     1     2   ar
     7     2     3   ar
     8     3    22    1
     9    22    23    3
    10     3     4   ar
    11     4     5   ar
    12     5    10    1
    13    10    11    1
    14    11    12    1
    15    12    13    1
    16    13    14    1
    17    14    15    1
    18     5     6   ar
    19     6     7    1
    20     6     1   ar
    21    15    10    1
    22    16    17    1
    23     7     8    1
    24     7     9    1
@<TRIPOS>MOLECULE
*****
 23 24 0 0 0
SMALL
GASTEIGER

@<TRIPOS>ATOM
      1 C          -9.1604  -17.3536   21.3106 C.ar    1  UNL1        0.1466
      2 N          -8.1651  -18.2768   20.6726 N.ar    1  UNL1       -0.2017
      3 C          -6.8453  -18.5324   21.3381 C.ar    1  UNL1        0.2354
      4 N          -6.5208  -17.8648   22.6415 N.ar    1  UNL1       -0.2015
      5 C          -7.5161  -16.9416   23.2795 C.ar    1  UNL1        0.1499
      6 C          -8.8359  -16.6860   22.6140 C.ar    1  UNL1        0.1055
      7 N          -9.8312  -15.7627   23.2520 N.pl3   1  UNL1       -0.3526
      8 H          -9.6182  -15.3246   24.1075 H       1  UNL1        0.1425
      9 H         -10.6974  -15.5949   22.8153 H       1  UNL1        0.1425
     10 N          -7.1917  -16.2740   24.5830 N.pl3   1  UNL1       -0.2870
     11 C          -8.2234  -16.2095   25.6698 C.3     1  UNL1        0.1243
     12 C          -7.8989  -15.5418   26.9733 C.3     1  UNL1        0.1636
     13 O          -6.5427  -14.9387   27.1899 O.3     1  UNL1       -0.3501
     14 C          -5.5110  -15.0032   26.1029 C.3     1  UNL1        0.1636
     15 C          -5.8354  -15.6708   24.7995 C.3     1  UNL1        0.1243
     16 N         -10.4802  -17.0980   20.6451 N.pl3   1  UNL1       -0.3170
     17 H         -10.5872  -16.3251   20.0447 H       1  UNL1        0.1482
     18 C         -11.6368  -18.0198   20.8944 C.3     1  UNL1        0.0882
     19 C         -11.0251  -20.0839   22.3489 C.3     1  UNL1        0.0017
     20 C         -11.7321  -18.7705   22.1895 C.3     1  UNL1        0.0196
     21 C         -12.5341  -18.2078   23.3253 C.3     1  UNL1        0.0017
     22 C          -5.8500  -19.4557   20.7001 C.1     1  UNL1        0.1400
     23 N          -4.8548  -20.3789   20.0620 N.1     1  UNL1       -0.1876
@<TRIPOS>BOND
     1    19    20    1
     2    20    21    1
     3    20    18    1
     4    18    16    1
     5    16     1    1
     6     1     2   ar
     7     2     3   ar
     8     3    22    1
     9    22    23    3
    10     3     4   ar
    11     4     5   ar
    12     5    10    1
    13    10    11    1
    14    11    12    1
    15    12    13    1
    16    13    14    1
    17    14    15    1
    18     5     6   ar
    19     6     7    1
    20     6     1   ar
    21    15    10    1
    22    16    17    1
    23     7     8    1
    24     7     9    1
@<TRIPOS>MOLECULE
*****
 23 24 0 0 0
SMALL
GASTEIGER

@<TRIPOS>ATOM
      1 C          -4.9146  -18.5798   22.0761 C.ar    1  UNL1        0.1466
      2 N          -4.6215  -17.4860   23.0598 N.ar    1  UNL1       -0.2017
      3 C          -5.7479  -16.7157   23.6827 C.ar    1  UNL1        0.2354
      4 N          -7.1674  -17.0393   23.3218 N.ar    1  UNL1       -0.2015
      5 C          -7.4605  -18.1331   22.3382 C.ar    1  UNL1        0.1499
      6 C          -6.3341  -18.9033   21.7153 C.ar    1  UNL1        0.1055
      7 N          -6.6272  -19.9972   20.7316 N.pl3   1  UNL1       -0.3526
      8 H          -7.5589  -20.2095   20.4948 H       1  UNL1        0.1425
      9 H          -5.8879  -20.5027   20.3228 H       1  UNL1        0.1425
     10 N          -8.8801  -18.4567   21.9773 N.pl3   1  UNL1       -0.2870
     11 C          -9.5506  -19.6581   22.5749 C.3     1  UNL1        0.1243
     12 C         -10.9702  -19.9817   22.2140 C.3     1  UNL1        0.1636
     13 O         -11.7191  -19.1039   21.2555 O.3     1  UNL1       -0.3501
     14 C         -11.0485  -17.9026   20.6580 C.3     1  UNL1        0.1636
     15 C          -9.6290  -17.5790   21.0188 C.3     1  UNL1        0.1243
     16 N          -3.7881  -19.3500   21.4533 N.pl3   1  UNL1       -0.3170
     17 H          -3.9569  -20.2357   21.0580 H       1  UNL1        0.1482
     18 C          -2.4047  -18.7707   21.4327 C.3     1  UNL1        0.0882
     19 C          -2.7881  -17.8728   19.0250 C.3     1  UNL1        0.0017
     20 C          -1.8664  -18.1589   20.1734 C.3     1  UNL1        0.0196
     21 C          -0.4064  -17.8333   20.0623 C.3     1  UNL1        0.0017
     22 C          -5.4547  -15.6219   24.6664 C.1     1  UNL1        0.1400
     23 N          -5.1616  -14.5281   25.6501 N.1     1  UNL1       -0.1876
@<TRIPOS>BOND
     1    19    20    1
     2    20    21    1
     3    20    18    1
     4    18    16    1
     5    16     1    1
     6     1     2   ar
     7     2     3   ar
     8     3    22    1
     9    22    23    3
    10     3     4   ar
    11     4     5   ar
    12     5    10    1
    13    10    11    1
    14    11    12    1
    15    12    13    1
    16    13    14    1
    17    14    15    1
    18     5     6   ar
    19     6     7    1
    20     6     1   ar
    21    15    10    1
    22    16    17    1
    23     7     8    1
    24     7     9    1
@<TRIPOS>MOLECULE
*****
 23 24 0 0 0
SMALL
GASTEIGER

@<TRIPOS>ATOM
      1 C          -8.8787  -18.7920   21.3535 C.ar    1  UNL1        0.1466
      2 N          -9.1019  -17.8095   22.4647 N.ar    1  UNL1       -0.2017
      3 C          -7.9290  -17.1862   23.1616 C.ar    1  UNL1        0.2354
      4 N          -6.5328  -17.5454   22.7474 N.ar    1  UNL1       -0.2015
      5 C          -6.3096  -18.5279   21.6362 C.ar    1  UNL1        0.1499
      6 C          -7.4826  -19.1513   20.9393 C.ar    1  UNL1        0.1055
      7 N          -7.2593  -20.1338   19.8280 N.pl3   1  UNL1       -0.3526
      8 H          -6.3430  -20.3696   19.5561 H       1  UNL1        0.1425
      9 H          -8.0292  -20.5429   19.3706 H       1  UNL1        0.1425
     10 N          -4.9134  -18.8872   21.2218 N.pl3   1  UNL1       -0.2870
     11 C          -3.9314  -19.3801   22.2430 C.3     1  UNL1        0.1243
     12 C          -2.5352  -19.7393   21.8287 C.3     1  UNL1        0.1636
     13 O          -2.1211  -19.6058   20.3932 O.3     1  UNL1       -0.3501
     14 C          -3.1032  -19.1129   19.3720 C.3     1  UNL1        0.1636
     15 C          -4.4993  -18.7536   19.7864 C.3     1  UNL1        0.1243
     16 N         -10.0517  -19.4153   20.6566 N.pl3   1  UNL1       -0.3170
     17 H         -10.2619  -20.3662   20.8014 H       1  UNL1        0.1482
     18 C         -10.9043  -18.5900   19.7392 C.3     1  UNL1        0.0882
     19 C         -12.6603  -17.6681   21.4174 C.3     1  UNL1        0.0017
     20 C         -11.7018  -17.4431   20.2858 C.3     1  UNL1        0.0196
     21 C         -11.5408  -16.0714   19.7007 C.3     1  UNL1        0.0017
     22 C          -8.1522  -16.2036   24.2729 C.1     1  UNL1        0.1400
     23 N          -8.3755  -15.2211   25.3840 N.1     1  UNL1       -0.1876
@<TRIPOS>BOND
     1    19    20    1
     2    20    21    1
     3    20    18    1
     4    18    16    1
     5    16     1    1
     6     1     2   ar
     7     2     3   ar
     8     3    22    1
     9    22    23    3
    10     3     4   ar
    11     4     5   ar
    12     5    10    1
    13    10    11    1
    14    11    12    1
    15    12    13    1
    16    13    14    1
    17    14    15    1
    18     5     6   ar
    19     6     7    1
    20     6     1   ar
    21    15    10    1
    22    16    17    1
    23     7     8    1
    24     7     9    1
@<TRIPOS>MOLECULE
*****
 23 24 0 0 0
SMALL
GASTEIGER

@<TRIPOS>ATOM
      1 C          -7.9547  -16.6025   23.3862 C.ar    1  UNL1        0.1466
      2 N          -9.1745  -17.4337   23.1196 N.ar    1  UNL1       -0.2017
      3 C          -9.0500  -18.7327   22.3800 C.ar    1  UNL1        0.2354
      4 N          -7.7056  -19.2006   21.9070 N.ar    1  UNL1       -0.2015
      5 C          -6.4858  -18.3694   22.1737 C.ar    1  UNL1        0.1499
      6 C          -6.6103  -17.0704   22.9133 C.ar    1  UNL1        0.1055
      7 N          -5.3904  -16.2392   23.1799 N.pl3   1  UNL1       -0.3526
      8 H          -4.5081  -16.5463   22.8695 H       1  UNL1        0.1425
      9 H          -5.4722  -15.3866   23.6654 H       1  UNL1        0.1425
     10 N          -5.1413  -18.8373   21.7008 N.pl3   1  UNL1       -0.2870
     11 C          -4.0199  -19.0109   22.6817 C.3     1  UNL1        0.1243
     12 C          -2.6754  -19.4787   22.2087 C.3     1  UNL1        0.1636
     13 O          -2.4525  -19.7729   20.7549 O.3     1  UNL1       -0.3501
     14 C          -3.5740  -19.5993   19.7739 C.3     1  UNL1        0.1636
     15 C          -4.9184  -19.1315   20.2469 C.3     1  UNL1        0.1243
     16 N          -8.0793  -15.3035   24.1258 N.pl3   1  UNL1       -0.3170
     17 H          -7.7946  -14.4640   23.6975 H       1  UNL1        0.1482
     18 C          -8.6375  -15.2835   25.5179 C.3     1  UNL1        0.0882
     19 C          -8.4239  -16.6994   27.6858 C.3     1  UNL1        0.0017
     20 C          -7.8117  -15.7872   26.6644 C.3     1  UNL1        0.0196
     21 C          -6.3739  -15.3788   26.7895 C.3     1  UNL1        0.0017
     22 C         -10.2699  -19.5639   22.1133 C.1     1  UNL1        0.1400
     23 N         -11.4897  -20.3950   21.8466 N.1     1  UNL1       -0.1876
@<TRIPOS>BOND
     1    19    20    1
     2    20    21    1
     3    20    18    1
     4    18    16    1
     5    16     1    1
     6     1     2   ar
     7     2     3   ar
     8     3    22    1
     9    22    23    3
    10     3     4   ar
    11     4     5   ar
    12     5    10    1
    13    10    11    1
    14    11    12    1
    15    12    13    1
    16    13    14    1
    17    14    15    1
    18     5     6   ar
    19     6     7    1
    20     6     1   ar
    21    15    10    1
    22    16    17    1
    23     7     8    1
    24     7     9    1
@<TRIPOS>MOLECULE
*****
 23 24 0 0 0
SMALL
GASTEIGER

@<TRIPOS>ATOM
      1 C          -8.9893  -16.9165   22.7056 C.ar    1  UNL1        0.1466
      2 N          -9.2175  -16.2819   24.0454 N.ar    1  UNL1       -0.2017
      3 C          -8.0692  -16.0950   24.9922 C.ar    1  UNL1        0.2354
      4 N          -6.6926  -16.5426   24.5991 N.ar    1  UNL1       -0.2015
      5 C          -6.4643  -17.1772   23.2593 C.ar    1  UNL1        0.1499
      6 C          -7.6126  -17.3641   22.3125 C.ar    1  UNL1        0.1055
      7 N          -7.3843  -17.9987   20.9726 N.pl3   1  UNL1       -0.3526
      8 H          -6.4808  -18.2925   20.7147 H       1  UNL1        0.1425
      9 H          -8.1380  -18.1215   20.3512 H       1  UNL1        0.1425
     10 N          -5.0876  -17.6248   22.8662 N.pl3   1  UNL1       -0.2870
     11 C          -3.9393  -16.6620   22.9295 C.3     1  UNL1        0.1243
     12 C          -2.5626  -17.1096   22.5364 C.3     1  UNL1        0.1636
     13 O          -2.3344  -18.5202   22.0800 O.3     1  UNL1       -0.3501
     14 C          -3.4829  -19.4831   22.0167 C.3     1  UNL1        0.1636
     15 C          -4.8595  -19.0354   22.4098 C.3     1  UNL1        0.1243
     16 N         -10.1376  -17.1035   21.7588 N.pl3   1  UNL1       -0.3170
     17 H         -10.2876  -16.4555   21.0329 H       1  UNL1        0.1482
     18 C         -11.0574  -18.2776   21.9180 C.3     1  UNL1        0.0882
     19 C         -11.2887  -19.2667   24.3093 C.3     1  UNL1        0.0017
     20 C         -11.8453  -18.4469   23.1830 C.3     1  UNL1        0.0196
     21 C         -13.1898  -17.7966   23.3220 C.3     1  UNL1        0.0017
     22 C          -8.2976  -15.4604   26.3320 C.1     1  UNL1        0.1400
     23 N          -8.5259  -14.8258   27.6718 N.1     1  UNL1       -0.1876
@<TRIPOS>BOND
     1    19    20    1
     2    20    21    1
     3    20    18    1
     4    18    16    1
     5    16     1    1
     6     1     2   ar
     7     2     3   ar
     8     3    22    1
     9    22    23    3
    10     3     4   ar
    11     4     5   ar
    12     5    10    1
    13    10    11    1
    14    11    12    1
    15    12    13    1
    16    13    14    1
    17    14    15    1
    18     5     6   ar
    19     6     7    1
    20     6     1   ar
    21    15    10    1
    22    16    17    1
    23     7     8    1
    24     7     9    1
