@<TRIPOS>MOLECULE
*****
 31 35 0 0 0
SMALL
GASTEIGER

@<TRIPOS>ATOM
      1 N          -7.3928  -19.8139   19.9023 N.pl3   1  UNL1       -0.2927
      2 H          -7.4806  -20.2864   19.0431 H       1  UNL1        0.1541
      3 C          -6.0375  -19.4053   20.3984 C.ar    1  UNL1        0.1629
      4 N          -5.7568  -18.5878   21.6244 N.ar    1  UNL1       -0.2284
      5 C          -4.2707  -18.4197   21.7393 C.ar    1  UNL1        0.0666
      6 C          -3.6328  -19.1333   20.5844 C.ar    1  UNL1        0.0237
      7 S          -4.7248  -19.7424   19.7557 S.2     1  UNL1       -0.0561
      8 C          -2.1402  -19.1362   20.4365 C.3     1  UNL1        0.0343
      9 C          -1.2854  -18.4256   21.4436 C.3     1  UNL1        0.0060
     10 C          -1.9233  -17.7120   22.5985 C.3     1  UNL1        0.0107
     11 C          -3.4159  -17.7090   22.7464 C.3     1  UNL1        0.0627
     12 C          -4.0538  -16.9954   23.9013 C.ar    1  UNL1       -0.0169
     13 C          -4.9317  -15.8045   23.6547 C.ar    1  UNL1       -0.0039
     14 C          -5.5696  -15.0909   24.8096 C.ar    1  UNL1       -0.0003
     15 C          -5.3296  -15.5682   26.2112 C.ar    1  UNL1       -0.0000
     16 C          -4.4517  -16.7592   26.4579 C.ar    1  UNL1       -0.0003
     17 C          -3.8138  -17.4728   25.3029 C.ar    1  UNL1       -0.0039
     18 C          -9.6941  -18.7337   22.9498 C.ar    1  UNL1        0.1429
     19 C          -8.4726  -19.0450   22.1368 C.ar    1  UNL1        0.0516
     20 C          -8.6143  -19.5025   20.7153 C.ar    1  UNL1        0.0528
     21 C          -9.9775  -19.6487   20.1068 C.ar    1  UNL1        0.0150
     22 C         -11.1991  -19.3373   20.9199 C.ar    1  UNL1        0.0074
     23 C         -11.0573  -18.8798   22.3413 C.ar    1  UNL1        0.0702
     24 C         -12.2788  -18.5684   23.1544 C.ar    1  UNL1        0.1688
     25 C         -13.5101  -17.8671   22.6624 C.ar    1  UNL1        0.1392
     26 N         -14.4758  -17.7689   23.8061 N.ar    1  UNL1       -0.2104
     27 C         -13.8412  -18.4096   25.0049 C.ar    1  UNL1        0.2062
     28 C         -14.4564  -18.5343   26.3671 C.3     1  UNL1        0.0950
     29 O         -12.4835  -18.9037   24.6021 O.2     1  UNL1       -0.4382
     30 C          -9.2029  -16.8480   24.6682 C.3     1  UNL1        0.2525
     31 O          -9.5524  -18.2761   24.3713 O.3     1  UNL1       -0.4713
@<TRIPOS>BOND
     1    30    31    1
     2    31    18    1
     3    18    19   ar
     4    19    20   ar
     5    20     1    1
     6     1     3    1
     7     3     4   ar
     8     4     5   ar
     9     5     6   ar
    10     6     7   ar
    11     6     8    1
    12     8     9    1
    13     9    10    1
    14    10    11    1
    15    11    12    1
    16    12    13   ar
    17    13    14   ar
    18    14    15   ar
    19    15    16   ar
    20    16    17   ar
    21    20    21   ar
    22    21    22   ar
    23    22    23   ar
    24    23    24    1
    25    24    25   ar
    26    25    26   ar
    27    26    27   ar
    28    27    28    1
    29    27    29   ar
    30    23    18   ar
    31    29    24   ar
    32     7     3   ar
    33    17    12   ar
    34    11     5    1
    35     1     2    1
@<TRIPOS>MOLECULE
*****
 31 35 0 0 0
SMALL
GASTEIGER

@<TRIPOS>ATOM
      1 N          -4.5696    2.6517   21.1022 N.pl3   1  UNL1       -0.2927
      2 H          -5.0261    1.8600   20.7360 H       1  UNL1        0.1541
      3 C          -3.2543    3.0906   20.5300 C.ar    1  UNL1        0.1629
      4 N          -1.9537    2.3517   20.6417 N.ar    1  UNL1       -0.2284
      5 C          -0.9043    3.1499   19.9264 C.ar    1  UNL1        0.0666
      6 C          -1.5563    4.3821   19.3727 C.ar    1  UNL1        0.0237
      7 S          -3.0087    4.3454   19.7458 S.2     1  UNL1       -0.0561
      8 C          -0.7432    5.3782   18.6004 C.3     1  UNL1        0.0343
      9 C           0.7218    5.1422   18.3818 C.3     1  UNL1        0.0060
     10 C           1.3739    3.9100   18.9355 C.3     1  UNL1        0.0107
     11 C           0.5608    2.9139   19.7078 C.3     1  UNL1        0.0627
     12 C           1.2128    1.6817   20.2615 C.ar    1  UNL1       -0.0169
     13 C           0.9881    0.3534   19.6020 C.ar    1  UNL1       -0.0039
     14 C           1.6401   -0.8788   20.1557 C.ar    1  UNL1       -0.0003
     15 C           2.5168   -0.7827   21.3690 C.ar    1  UNL1       -0.0000
     16 C           2.7416    0.5456   22.0285 C.ar    1  UNL1       -0.0003
     17 C           2.0896    1.7778   21.4748 C.ar    1  UNL1       -0.0039
     18 C          -5.3385    3.9618   24.7686 C.ar    1  UNL1        0.1429
     19 C          -4.7187    3.1944   23.6386 C.ar    1  UNL1        0.0516
     20 C          -5.1895    3.4190   22.2322 C.ar    1  UNL1        0.0528
     21 C          -6.2802    4.4110   21.9558 C.ar    1  UNL1        0.0150
     22 C          -6.9000    5.1784   23.0859 C.ar    1  UNL1        0.0074
     23 C          -6.4292    4.9538   24.4922 C.ar    1  UNL1        0.0702
     24 C          -7.0490    5.7212   25.6223 C.ar    1  UNL1        0.1688
     25 C          -8.3101    6.5302   25.5514 C.ar    1  UNL1        0.1392
     26 N          -8.5571    7.1233   26.9069 N.ar    1  UNL1       -0.2104
     27 C          -7.4486    6.6807   27.8155 C.ar    1  UNL1        0.2062
     28 C          -7.2986    7.0414   29.2636 C.3     1  UNL1        0.0950
     29 O          -6.5166    5.8142   27.0215 O.2     1  UNL1       -0.4382
     30 C          -3.4114    3.8706   26.5087 C.3     1  UNL1        0.2525
     31 O          -4.8677    3.7372   26.1750 O.3     1  UNL1       -0.4713
@<TRIPOS>BOND
     1    30    31    1
     2    31    18    1
     3    18    19   ar
     4    19    20   ar
     5    20     1    1
     6     1     3    1
     7     3     4   ar
     8     4     5   ar
     9     5     6   ar
    10     6     7   ar
    11     6     8    1
    12     8     9    1
    13     9    10    1
    14    10    11    1
    15    11    12    1
    16    12    13   ar
    17    13    14   ar
    18    14    15   ar
    19    15    16   ar
    20    16    17   ar
    21    20    21   ar
    22    21    22   ar
    23    22    23   ar
    24    23    24    1
    25    24    25   ar
    26    25    26   ar
    27    26    27   ar
    28    27    28    1
    29    27    29   ar
    30    23    18   ar
    31    29    24   ar
    32     7     3   ar
    33    17    12   ar
    34    11     5    1
    35     1     2    1
@<TRIPOS>MOLECULE
*****
 31 35 0 0 0
SMALL
GASTEIGER

@<TRIPOS>ATOM
      1 N           5.5286   -1.4594   24.6710 N.pl3   1  UNL1       -0.2927
      2 H           6.4947   -1.4009   24.8510 H       1  UNL1        0.1541
      3 C           5.0404   -2.0477   23.3805 C.ar    1  UNL1        0.1629
      4 N           4.1843   -1.3535   22.3630 N.ar    1  UNL1       -0.2284
      5 C           3.9374   -2.3104   21.2345 C.ar    1  UNL1        0.0666
      6 C           4.6408   -3.5960   21.5545 C.ar    1  UNL1        0.0237
      7 S           5.3225   -3.4336   22.8808 S.2     1  UNL1       -0.0561
      8 C           4.5697   -4.7483   20.5969 C.3     1  UNL1        0.0343
      9 C           3.7952   -4.6150   19.3193 C.3     1  UNL1        0.0060
     10 C           3.0918   -3.3294   18.9993 C.3     1  UNL1        0.0107
     11 C           3.1629   -2.1771   19.9569 C.3     1  UNL1        0.0627
     12 C           2.4594   -0.8915   19.6369 C.ar    1  UNL1       -0.0169
     13 C           1.1240   -0.5940   20.2518 C.ar    1  UNL1       -0.0039
     14 C           0.4206    0.6916   19.9318 C.ar    1  UNL1       -0.0003
     15 C           1.0526    1.6797   18.9969 C.ar    1  UNL1       -0.0000
     16 C           2.3880    1.3823   18.3820 C.ar    1  UNL1       -0.0003
     17 C           3.0914    0.0967   18.7020 C.ar    1  UNL1       -0.0039
     18 C           2.5815    0.6136   26.3344 C.ar    1  UNL1        0.1429
     19 C           3.5652    0.1143   25.3182 C.ar    1  UNL1        0.0516
     20 C           4.5448   -0.9601   25.6873 C.ar    1  UNL1        0.0528
     21 C           4.5406   -1.5351   27.0727 C.ar    1  UNL1        0.0150
     22 C           3.5567   -1.0357   28.0890 C.ar    1  UNL1        0.0074
     23 C           2.5772    0.0386   27.7198 C.ar    1  UNL1        0.0702
     24 C           1.5933    0.5380   28.7361 C.ar    1  UNL1        0.1688
     25 C           0.2011    0.0198   28.9441 C.ar    1  UNL1        0.1392
     26 N          -0.4237    0.8048   30.0594 N.ar    1  UNL1       -0.2104
     27 C           0.5824    1.8079   30.5405 C.ar    1  UNL1        0.2062
     28 C           0.3779    2.8015   31.6454 C.3     1  UNL1        0.0950
     29 O           1.8290    1.6430   29.7227 O.2     1  UNL1       -0.4382
     30 C           0.3053    1.3257   25.3038 C.3     1  UNL1        0.2525
     31 O           1.6019    1.6880   25.9653 O.3     1  UNL1       -0.4713
@<TRIPOS>BOND
     1    30    31    1
     2    31    18    1
     3    18    19   ar
     4    19    20   ar
     5    20     1    1
     6     1     3    1
     7     3     4   ar
     8     4     5   ar
     9     5     6   ar
    10     6     7   ar
    11     6     8    1
    12     8     9    1
    13     9    10    1
    14    10    11    1
    15    11    12    1
    16    12    13   ar
    17    13    14   ar
    18    14    15   ar
    19    15    16   ar
    20    16    17   ar
    21    20    21   ar
    22    21    22   ar
    23    22    23   ar
    24    23    24    1
    25    24    25   ar
    26    25    26   ar
    27    26    27   ar
    28    27    28    1
    29    27    29   ar
    30    23    18   ar
    31    29    24   ar
    32     7     3   ar
    33    17    12   ar
    34    11     5    1
    35     1     2    1
@<TRIPOS>MOLECULE
*****
 31 35 0 0 0
SMALL
GASTEIGER

@<TRIPOS>ATOM
      1 N          -0.4060    3.0654   19.5530 N.pl3   1  UNL1       -0.2927
      2 H          -0.2647    3.7369   18.8470 H       1  UNL1        0.1541
      3 C          -1.5207    3.2397   20.5415 C.ar    1  UNL1        0.1629
      4 N          -1.3671    3.3925   22.0257 N.ar    1  UNL1       -0.2284
      5 C          -2.7361    3.5390   22.6209 C.ar    1  UNL1        0.0666
      6 C          -3.7360    3.4768   21.5044 C.ar    1  UNL1        0.0237
      7 S          -2.9848    3.2918   20.2193 S.2     1  UNL1       -0.0561
      8 C          -5.2012    3.5966   21.8022 C.3     1  UNL1        0.0343
      9 C          -5.6666    3.7786   23.2165 C.3     1  UNL1        0.0060
     10 C          -4.6668    3.8409   24.3330 C.3     1  UNL1        0.0107
     11 C          -3.2015    3.7211   24.0351 C.3     1  UNL1        0.0627
     12 C          -2.2017    3.7833   25.1516 C.ar    1  UNL1       -0.0169
     13 C          -1.3401    2.5933   25.4540 C.ar    1  UNL1       -0.0039
     14 C          -0.3403    2.6556   26.5705 C.ar    1  UNL1       -0.0003
     15 C          -0.2021    3.9078   27.3845 C.ar    1  UNL1       -0.0000
     16 C          -1.0637    5.0978   27.0821 C.ar    1  UNL1       -0.0003
     17 C          -2.0635    5.0356   25.9657 C.ar    1  UNL1       -0.0039
     18 C           2.6400    0.6077   18.8964 C.ar    1  UNL1        0.1429
     19 C           1.7406    1.8049   18.8092 C.ar    1  UNL1        0.0516
     20 C           0.4933    1.8682   19.6402 C.ar    1  UNL1        0.0528
     21 C           0.1455    0.7341   20.5583 C.ar    1  UNL1        0.0150
     22 C           1.0450   -0.4632   20.6454 C.ar    1  UNL1        0.0074
     23 C           2.2922   -0.5264   19.8145 C.ar    1  UNL1        0.0702
     24 C           3.1916   -1.7237   19.9016 C.ar    1  UNL1        0.1688
     25 C           4.2162   -1.9810   20.9666 C.ar    1  UNL1        0.1392
     26 N           4.8822   -3.2902   20.6623 N.ar    1  UNL1       -0.2104
     27 C           4.2692   -3.8419   19.4093 C.ar    1  UNL1        0.2062
     28 C           4.6366   -5.1347   18.7434 C.3     1  UNL1        0.0950
     29 O           3.2244   -2.8738   18.9392 O.2     1  UNL1       -0.4382
     30 C           5.1274    1.2561   18.5189 C.3     1  UNL1        0.2525
     31 O           3.8873    0.5444   18.0654 O.3     1  UNL1       -0.4713
@<TRIPOS>BOND
     1    30    31    1
     2    31    18    1
     3    18    19   ar
     4    19    20   ar
     5    20     1    1
     6     1     3    1
     7     3     4   ar
     8     4     5   ar
     9     5     6   ar
    10     6     7   ar
    11     6     8    1
    12     8     9    1
    13     9    10    1
    14    10    11    1
    15    11    12    1
    16    12    13   ar
    17    13    14   ar
    18    14    15   ar
    19    15    16   ar
    20    16    17   ar
    21    20    21   ar
    22    21    22   ar
    23    22    23   ar
    24    23    24    1
    25    24    25   ar
    26    25    26   ar
    27    26    27   ar
    28    27    28    1
    29    27    29   ar
    30    23    18   ar
    31    29    24   ar
    32     7     3   ar
    33    17    12   ar
    34    11     5    1
    35     1     2    1
@<TRIPOS>MOLECULE
*****
 31 35 0 0 0
SMALL
GASTEIGER

@<TRIPOS>ATOM
      1 N           0.1053    3.8340   19.9230 N.pl3   1  UNL1       -0.2927
      2 H           0.6092    4.6788   19.9656 H       1  UNL1        0.1541
      3 C          -1.3860    3.8575   19.7637 C.ar    1  UNL1        0.1629
      4 N          -2.3891    3.9873   20.8713 N.ar    1  UNL1       -0.2284
      5 C          -3.7592    3.9653   20.2610 C.ar    1  UNL1        0.0666
      6 C          -3.6028    3.8220   18.7760 C.ar    1  UNL1        0.0237
      7 S          -2.1361    3.7554   18.4687 S.2     1  UNL1       -0.0561
      8 C          -4.8161    3.7707   17.8956 C.3     1  UNL1        0.0343
      9 C          -6.1858    3.8627   18.5001 C.3     1  UNL1        0.0060
     10 C          -6.3422    4.0060   19.9850 C.3     1  UNL1        0.0107
     11 C          -5.1289    4.0573   20.8654 C.3     1  UNL1        0.0627
     12 C          -5.2853    4.2006   22.3504 C.ar    1  UNL1       -0.0169
     13 C          -5.9438    5.4216   22.9208 C.ar    1  UNL1       -0.0039
     14 C          -6.1002    5.5649   24.4057 C.ar    1  UNL1       -0.0003
     15 C          -5.5980    4.4872   25.3202 C.ar    1  UNL1       -0.0000
     16 C          -4.9394    3.2663   24.7498 C.ar    1  UNL1       -0.0003
     17 C          -4.7830    3.1230   23.2649 C.ar    1  UNL1       -0.0039
     18 C           3.0104    1.1348   19.7671 C.ar    1  UNL1        0.1429
     19 C           2.2868    2.4453   19.6727 C.ar    1  UNL1        0.0516
     20 C           0.8289    2.5236   20.0174 C.ar    1  UNL1        0.0528
     21 C           0.0949    1.2914   20.4565 C.ar    1  UNL1        0.0150
     22 C           0.8186   -0.0191   20.5509 C.ar    1  UNL1        0.0074
     23 C           2.2763   -0.0974   20.2062 C.ar    1  UNL1        0.0702
     24 C           3.0000   -1.4079   20.3006 C.ar    1  UNL1        0.1688
     25 C           3.7448   -1.9195   21.4980 C.ar    1  UNL1        0.1392
     26 N           4.3111   -3.2647   21.1516 N.ar    1  UNL1       -0.2104
     27 C           3.9163   -3.5844   19.7402 C.ar    1  UNL1        0.2062
     28 C           4.2697   -4.8324   18.9871 C.3     1  UNL1        0.0950
     29 O           3.1060   -2.4369   19.2143 O.2     1  UNL1       -0.4382
     30 C           4.8924    0.8633   17.9967 C.3     1  UNL1        0.2525
     31 O           4.4682    1.0565   19.4224 O.3     1  UNL1       -0.4713
@<TRIPOS>BOND
     1    30    31    1
     2    31    18    1
     3    18    19   ar
     4    19    20   ar
     5    20     1    1
     6     1     3    1
     7     3     4   ar
     8     4     5   ar
     9     5     6   ar
    10     6     7   ar
    11     6     8    1
    12     8     9    1
    13     9    10    1
    14    10    11    1
    15    11    12    1
    16    12    13   ar
    17    13    14   ar
    18    14    15   ar
    19    15    16   ar
    20    16    17   ar
    21    20    21   ar
    22    21    22   ar
    23    22    23   ar
    24    23    24    1
    25    24    25   ar
    26    25    26   ar
    27    26    27   ar
    28    27    28    1
    29    27    29   ar
    30    23    18   ar
    31    29    24   ar
    32     7     3   ar
    33    17    12   ar
    34    11     5    1
    35     1     2    1
@<TRIPOS>MOLECULE
*****
 31 35 0 0 0
SMALL
GASTEIGER

@<TRIPOS>ATOM
      1 N           0.2154    3.1472   20.1232 N.pl3   1  UNL1       -0.2927
      2 H           0.4492    3.8591   19.4846 H       1  UNL1        0.1541
      3 C          -0.9231    3.3423   21.0802 C.ar    1  UNL1        0.1629
      4 N          -2.3508    3.6131   20.7085 N.ar    1  UNL1       -0.2284
      5 C          -3.1439    3.7390   21.9755 C.ar    1  UNL1        0.0666
      6 C          -2.2062    3.5461   23.1303 C.ar    1  UNL1        0.0237
      7 S          -0.8337    3.3009   22.5770 S.2     1  UNL1       -0.0561
      8 C          -2.7234    3.6186   24.5364 C.3     1  UNL1        0.0343
      9 C          -4.1781    3.8840   24.7877 C.3     1  UNL1        0.0060
     10 C          -5.1157    4.0770   23.6329 C.3     1  UNL1        0.0107
     11 C          -4.5986    4.0045   22.2268 C.3     1  UNL1        0.0627
     12 C          -5.5363    4.1974   21.0720 C.ar    1  UNL1       -0.0169
     13 C          -6.4869    5.3577   21.0635 C.ar    1  UNL1       -0.0039
     14 C          -7.4245    5.5506   19.9086 C.ar    1  UNL1       -0.0003
     15 C          -7.4115    4.5833   18.7623 C.ar    1  UNL1       -0.0000
     16 C          -6.4609    3.4231   18.7708 C.ar    1  UNL1       -0.0003
     17 C          -5.5233    3.2301   19.9256 C.ar    1  UNL1       -0.0039
     18 C           3.2748    0.6210   20.0348 C.ar    1  UNL1        0.1429
     19 C           2.4925    1.9007   20.0189 C.ar    1  UNL1        0.0516
     20 C           0.9977    1.8675   20.1392 C.ar    1  UNL1        0.0528
     21 C           0.2852    0.5546   20.2756 C.ar    1  UNL1        0.0150
     22 C           1.0676   -0.7252   20.2916 C.ar    1  UNL1        0.0074
     23 C           2.5624   -0.6919   20.1712 C.ar    1  UNL1        0.0702
     24 C           3.3448   -1.9717   20.1872 C.ar    1  UNL1        0.1688
     25 C           4.1532   -2.4964   21.3366 C.ar    1  UNL1        0.1392
     26 N           4.7642   -3.8004   20.9164 N.ar    1  UNL1       -0.2104
     27 C           4.3332   -4.0815   19.5074 C.ar    1  UNL1        0.2062
     28 C           4.7129   -5.2819   18.6922 C.3     1  UNL1        0.0950
     29 O           3.4560   -2.9513   19.0567 O.2     1  UNL1       -0.4382
     30 C           5.4276    1.6589   19.0158 C.3     1  UNL1        0.2525
     31 O           4.7697    0.6542   19.9145 O.3     1  UNL1       -0.4713
@<TRIPOS>BOND
     1    30    31    1
     2    31    18    1
     3    18    19   ar
     4    19    20   ar
     5    20     1    1
     6     1     3    1
     7     3     4   ar
     8     4     5   ar
     9     5     6   ar
    10     6     7   ar
    11     6     8    1
    12     8     9    1
    13     9    10    1
    14    10    11    1
    15    11    12    1
    16    12    13   ar
    17    13    14   ar
    18    14    15   ar
    19    15    16   ar
    20    16    17   ar
    21    20    21   ar
    22    21    22   ar
    23    22    23   ar
    24    23    24    1
    25    24    25   ar
    26    25    26   ar
    27    26    27   ar
    28    27    28    1
    29    27    29   ar
    30    23    18   ar
    31    29    24   ar
    32     7     3   ar
    33    17    12   ar
    34    11     5    1
    35     1     2    1
@<TRIPOS>MOLECULE
*****
 31 35 0 0 0
SMALL
GASTEIGER

@<TRIPOS>ATOM
      1 N           6.9881   -0.7670   23.6264 N.pl3   1  UNL1       -0.2927
      2 H           7.5507    0.0140   23.4200 H       1  UNL1        0.1541
      3 C           6.2955   -1.5059   22.5199 C.ar    1  UNL1        0.1629
      4 N           5.1126   -1.0163   21.7382 N.ar    1  UNL1       -0.2284
      5 C           4.7502   -2.0718   20.7359 C.ar    1  UNL1        0.0666
      6 C           5.7092   -3.2138   20.8981 C.ar    1  UNL1        0.0237
      7 S           6.6642   -2.8640   22.0006 S.2     1  UNL1       -0.0561
      8 C           5.5889   -4.4245   20.0209 C.3     1  UNL1        0.0343
      9 C           4.5096   -4.4934   18.9816 C.3     1  UNL1        0.0060
     10 C           3.5506   -3.3515   18.8194 C.3     1  UNL1        0.0107
     11 C           3.6709   -2.1407   19.6966 C.3     1  UNL1        0.0627
     12 C           2.7119   -0.9987   19.5344 C.ar    1  UNL1       -0.0169
     13 C           3.0056    0.0931   18.5487 C.ar    1  UNL1       -0.0039
     14 C           2.0466    1.2350   18.3865 C.ar    1  UNL1       -0.0003
     15 C           0.7939    1.2851   19.2100 C.ar    1  UNL1       -0.0000
     16 C           0.5002    0.1933   20.1957 C.ar    1  UNL1       -0.0003
     17 C           1.4592   -0.9486   20.3578 C.ar    1  UNL1       -0.0039
     18 C           5.2866   -1.7985   27.0602 C.ar    1  UNL1        0.1429
     19 C           5.4512   -1.3472   25.6392 C.ar    1  UNL1        0.0516
     20 C           6.8235   -1.2183   25.0474 C.ar    1  UNL1        0.0528
     21 C           8.0312   -1.5406   25.8766 C.ar    1  UNL1        0.0150
     22 C           7.8665   -1.9919   27.2977 C.ar    1  UNL1        0.0074
     23 C           6.4942   -2.1208   27.8894 C.ar    1  UNL1        0.0702
     24 C           6.3296   -2.5721   29.3105 C.ar    1  UNL1        0.1688
     25 C           6.8130   -3.8708   29.8847 C.ar    1  UNL1        0.1392
     26 N           6.4348   -3.9053   31.3359 N.ar    1  UNL1       -0.2104
     27 C           5.7177   -2.6278   31.6585 C.ar    1  UNL1        0.2062
     28 C           5.1630   -2.2421   32.9976 C.3     1  UNL1        0.0950
     29 O           5.6527   -1.8039   30.4067 O.2     1  UNL1       -0.4382
     30 C           3.1182   -0.6978   27.9749 C.3     1  UNL1        0.2525
     31 O           3.9142   -1.9274   27.6520 O.3     1  UNL1       -0.4713
@<TRIPOS>BOND
     1    30    31    1
     2    31    18    1
     3    18    19   ar
     4    19    20   ar
     5    20     1    1
     6     1     3    1
     7     3     4   ar
     8     4     5   ar
     9     5     6   ar
    10     6     7   ar
    11     6     8    1
    12     8     9    1
    13     9    10    1
    14    10    11    1
    15    11    12    1
    16    12    13   ar
    17    13    14   ar
    18    14    15   ar
    19    15    16   ar
    20    16    17   ar
    21    20    21   ar
    22    21    22   ar
    23    22    23   ar
    24    23    24    1
    25    24    25   ar
    26    25    26   ar
    27    26    27   ar
    28    27    28    1
    29    27    29   ar
    30    23    18   ar
    31    29    24   ar
    32     7     3   ar
    33    17    12   ar
    34    11     5    1
    35     1     2    1
@<TRIPOS>MOLECULE
*****
 31 35 0 0 0
SMALL
GASTEIGER

@<TRIPOS>ATOM
      1 N           0.3629    3.7989   20.3544 N.pl3   1  UNL1       -0.2927
      2 H           0.8090    4.5738   20.7665 H       1  UNL1        0.1541
      3 C          -1.1134    3.8358   20.0914 C.ar    1  UNL1        0.1629
      4 N          -2.1898    3.9815   21.1258 N.ar    1  UNL1       -0.2284
      5 C          -3.5142    3.9692   20.4216 C.ar    1  UNL1        0.0666
      6 C          -3.2562    3.8159   18.9519 C.ar    1  UNL1        0.0237
      7 S          -1.7725    3.7334   18.7479 S.2     1  UNL1       -0.0561
      8 C          -4.4057    3.7712   17.9893 C.3     1  UNL1        0.0343
      9 C          -5.8132    3.8798   18.4965 C.3     1  UNL1        0.0060
     10 C          -6.0712    4.0331   19.9661 C.3     1  UNL1        0.0107
     11 C          -4.9217    4.0778   20.9287 C.3     1  UNL1        0.0627
     12 C          -5.1796    4.2311   22.3984 C.ar    1  UNL1       -0.0169
     13 C          -4.7105    3.1764   23.3562 C.ar    1  UNL1       -0.0039
     14 C          -4.9684    3.3298   24.8259 C.ar    1  UNL1       -0.0003
     15 C          -5.6956    4.5377   25.3377 C.ar    1  UNL1       -0.0000
     16 C          -6.1647    5.5924   24.3799 C.ar    1  UNL1       -0.0003
     17 C          -5.9067    5.4391   22.9102 C.ar    1  UNL1       -0.0039
     18 C           2.1921    0.2889   20.6437 C.ar    1  UNL1        0.1429
     19 C           1.3955    1.5063   21.0086 C.ar    1  UNL1        0.0516
     20 C           1.1595    2.5815   19.9895 C.ar    1  UNL1        0.0528
     21 C           1.7203    2.4391   18.6056 C.ar    1  UNL1        0.0150
     22 C           2.5170    1.2216   18.2407 C.ar    1  UNL1        0.0074
     23 C           2.7528    0.1465   19.2598 C.ar    1  UNL1        0.0702
     24 C           3.5495   -1.0710   18.8949 C.ar    1  UNL1        0.1688
     25 C           4.7551   -1.1010   18.0029 C.ar    1  UNL1        0.1392
     26 N           5.2312   -2.5208   17.9147 N.ar    1  UNL1       -0.2104
     27 C           4.3197   -3.3682   18.7521 C.ar    1  UNL1        0.2062
     28 C           4.4284   -4.8511   18.9492 C.3     1  UNL1        0.0950
     29 O           3.2804   -2.4721   19.3579 O.2     1  UNL1       -0.4382
     30 C           2.8814   -0.4225   23.0456 C.3     1  UNL1        0.2525
     31 O           2.4280   -0.7863   21.6628 O.3     1  UNL1       -0.4713
@<TRIPOS>BOND
     1    30    31    1
     2    31    18    1
     3    18    19   ar
     4    19    20   ar
     5    20     1    1
     6     1     3    1
     7     3     4   ar
     8     4     5   ar
     9     5     6   ar
    10     6     7   ar
    11     6     8    1
    12     8     9    1
    13     9    10    1
    14    10    11    1
    15    11    12    1
    16    12    13   ar
    17    13    14   ar
    18    14    15   ar
    19    15    16   ar
    20    16    17   ar
    21    20    21   ar
    22    21    22   ar
    23    22    23   ar
    24    23    24    1
    25    24    25   ar
    26    25    26   ar
    27    26    27   ar
    28    27    28    1
    29    27    29   ar
    30    23    18   ar
    31    29    24   ar
    32     7     3   ar
    33    17    12   ar
    34    11     5    1
    35     1     2    1
@<TRIPOS>MOLECULE
*****
 31 35 0 0 0
SMALL
GASTEIGER

@<TRIPOS>ATOM
      1 N           1.0748    3.4784   33.2411 N.pl3   1  UNL1       -0.2927
      2 H           0.3972    4.1219   33.5510 H       1  UNL1        0.1541
      3 C           2.0512    2.8897   34.2157 C.ar    1  UNL1        0.1629
      4 N           2.9437    1.7102   33.9661 N.ar    1  UNL1       -0.2284
      5 C           3.7507    1.4685   35.2072 C.ar    1  UNL1        0.0666
      6 C           3.3570    2.4987   36.2239 C.ar    1  UNL1        0.0237
      7 S           2.3067    3.3770   35.6111 S.2     1  UNL1       -0.0561
      8 C           4.0058    2.5040   37.5763 C.3     1  UNL1        0.0343
      9 C           5.0482    1.4790   37.9120 C.3     1  UNL1        0.0060
     10 C           5.4419    0.4488   36.8953 C.3     1  UNL1        0.0107
     11 C           4.7931    0.4436   35.5429 C.3     1  UNL1        0.0627
     12 C           5.1868   -0.5866   34.5261 C.ar    1  UNL1       -0.0169
     13 C           4.2180   -1.6630   34.1351 C.ar    1  UNL1       -0.0039
     14 C           4.6116   -2.6932   33.1184 C.ar    1  UNL1       -0.0003
     15 C           5.9741   -2.6471   32.4927 C.ar    1  UNL1       -0.0000
     16 C           6.9429   -1.5707   32.8837 C.ar    1  UNL1       -0.0003
     17 C           6.5492   -0.5405   33.9004 C.ar    1  UNL1       -0.0039
     18 C           0.5520    1.4146   29.8919 C.ar    1  UNL1        0.1429
     19 C           0.4961    1.8062   31.3387 C.ar    1  UNL1        0.0516
     20 C           1.1307    3.0868   31.7942 C.ar    1  UNL1        0.0528
     21 C           1.8212    3.9757   30.8027 C.ar    1  UNL1        0.0150
     22 C           1.8771    3.5840   29.3558 C.ar    1  UNL1        0.0074
     23 C           1.2425    2.3035   28.9004 C.ar    1  UNL1        0.0702
     24 C           1.2984    1.9118   27.4535 C.ar    1  UNL1        0.1688
     25 C           2.2439    0.9191   26.8448 C.ar    1  UNL1        0.1392
     26 N           1.9485    0.8378   25.3763 N.ar    1  UNL1       -0.2104
     27 C           0.8204    1.7803   25.0776 C.ar    1  UNL1        0.2062
     28 C           0.2026    2.0174   23.7315 C.3     1  UNL1        0.0950
     29 O           0.4187    2.4440   26.3614 O.2     1  UNL1       -0.4382
     30 C          -1.5381    0.1054   29.0747 C.3     1  UNL1        0.2525
     31 O          -0.0826    0.1340   29.4364 O.3     1  UNL1       -0.4713
@<TRIPOS>BOND
     1    30    31    1
     2    31    18    1
     3    18    19   ar
     4    19    20   ar
     5    20     1    1
     6     1     3    1
     7     3     4   ar
     8     4     5   ar
     9     5     6   ar
    10     6     7   ar
    11     6     8    1
    12     8     9    1
    13     9    10    1
    14    10    11    1
    15    11    12    1
    16    12    13   ar
    17    13    14   ar
    18    14    15   ar
    19    15    16   ar
    20    16    17   ar
    21    20    21   ar
    22    21    22   ar
    23    22    23   ar
    24    23    24    1
    25    24    25   ar
    26    25    26   ar
    27    26    27   ar
    28    27    28    1
    29    27    29   ar
    30    23    18   ar
    31    29    24   ar
    32     7     3   ar
    33    17    12   ar
    34    11     5    1
    35     1     2    1
