@<TRIPOS>MOLECULE
*****
 37 41 0 0 0
SMALL
GASTEIGER

@<TRIPOS>ATOM
      1 C           4.4587   -1.6846   24.8477 C.ar    1  UNL1        0.1740
      2 N           3.3925   -0.6303   24.8906 N.ar    1  UNL1       -0.2259
      3 C           2.6255   -0.2882   23.6478 C.ar    1  UNL1        0.0830
      4 C           2.9247   -1.0003   22.3619 C.ar    1  UNL1        0.0199
      5 C           3.9908   -2.0546   22.3190 C.ar    1  UNL1        0.0141
      6 C           4.7578   -2.3967   23.5618 C.ar    1  UNL1        0.1042
      7 C           3.4047   -0.4871   29.1529 C.ar    1  UNL1        0.2089
      8 N           4.5719   -1.1563   29.8160 N.ar    1  UNL1       -0.1500
      9 N           5.3961   -1.8146   28.7495 N.ar    1  UNL1       -0.2060
     10 C           4.7383   -1.5521   27.4273 C.ar    1  UNL1        0.1983
     11 N           5.2257   -2.0268   26.0904 N.2     1  UNL1       -0.2011
     12 S           3.5076   -0.7317   27.6765 S.2     1  UNL1       -0.0214
     13 C           6.6568   -2.5978   28.9672 C.ar    1  UNL1        0.0849
     14 C           7.9214   -1.8907   29.3555 C.ar    1  UNL1        0.0192
     15 C           9.1820   -2.6740   29.5731 C.ar    1  UNL1        0.0015
     16 C           9.1780   -4.1642   29.4024 C.ar    1  UNL1        0.0001
     17 C           7.9134   -4.8712   29.0141 C.ar    1  UNL1        0.0015
     18 C           6.6528   -4.0880   28.7965 C.ar    1  UNL1        0.0192
     19 C           2.3243    0.2903   29.8446 C.2     1  UNL1        0.3673
     20 O           2.6406    1.6120   30.4795 O.2     1  UNL1       -0.2425
     21 O           0.9277   -0.2539   29.9014 O.3     1  UNL1       -0.4440
     22 C          -1.3736   -0.6065   28.7482 C.3     1  UNL1        0.0513
     23 C          -0.0695    0.1280   28.8480 C.3     1  UNL1        0.2090
     24 C           1.5594    0.7661   23.6907 C.ar    1  UNL1        0.0177
     25 C           1.1597    1.4801   22.4335 C.ar    1  UNL1        0.0015
     26 C           0.0936    2.5344   22.4765 C.ar    1  UNL1        0.0000
     27 C          -0.5729    2.8747   23.7765 C.ar    1  UNL1        0.0000
     28 C          -0.1732    2.1606   25.0336 C.ar    1  UNL1        0.0000
     29 C           0.8930    1.1063   24.9908 C.ar    1  UNL1        0.0015
     30 C           4.2899   -2.7667   21.0331 C.ar    1  UNL1        0.0008
     31 C           5.0869   -2.0805   19.9635 C.ar    1  UNL1        0.0000
     32 C           5.3859   -2.7927   18.6776 C.ar    1  UNL1        0.0000
     33 C           4.8881   -4.1910   18.4614 C.ar    1  UNL1        0.0000
     34 C           4.0912   -4.8772   19.5310 C.ar    1  UNL1        0.0000
     35 C           3.7921   -4.1651   20.8169 C.ar    1  UNL1        0.0000
     36 C           5.8240   -3.4511   23.5188 C.1     1  UNL1        0.1035
     37 N           6.8901   -4.5053   23.4758 N.1     1  UNL1       -0.1907
@<TRIPOS>BOND
     1    22    23    1
     2    23    21    1
     3    21    19    1
     4    19    20    2
     5    19     7    1
     6     7     8   ar
     7     8     9   ar
     8     9    13    1
     9    13    14   ar
    10    14    15   ar
    11    15    16   ar
    12    16    17   ar
    13    17    18   ar
    14     9    10   ar
    15    10    11    2
    16    11     1    1
    17     1     2   ar
    18     2     3   ar
    19     3    24    1
    20    24    25   ar
    21    25    26   ar
    22    26    27   ar
    23    27    28   ar
    24    28    29   ar
    25     3     4   ar
    26     4     5   ar
    27     5    30    1
    28    30    31   ar
    29    31    32   ar
    30    32    33   ar
    31    33    34   ar
    32    34    35   ar
    33     5     6   ar
    34     6    36    1
    35    36    37    3
    36    10    12   ar
    37    12     7   ar
    38    18    13   ar
    39     6     1   ar
    40    29    24   ar
    41    35    30   ar
@<TRIPOS>MOLECULE
*****
 37 41 0 0 0
SMALL
GASTEIGER

@<TRIPOS>ATOM
      1 C           2.8112    2.0805   32.6301 C.ar    1  UNL1        0.1740
      2 N           2.1431    3.1638   33.4238 N.ar    1  UNL1       -0.2259
      3 C           0.9531    3.8818   32.8595 C.ar    1  UNL1        0.0830
      4 C           0.4312    3.5165   31.5015 C.ar    1  UNL1        0.0199
      5 C           1.0993    2.4332   30.7078 C.ar    1  UNL1        0.0141
      6 C           2.2892    1.7152   31.2720 C.ar    1  UNL1        0.1042
      7 C           3.7791    1.4173   37.0689 C.ar    1  UNL1        0.2089
      8 N           5.0582    0.6616   36.8626 N.ar    1  UNL1       -0.1500
      9 N           5.2971    0.5490   35.3860 N.ar    1  UNL1       -0.2060
     10 C           4.1656    1.2352   34.6797 C.ar    1  UNL1        0.1983
     11 N           4.0011    1.3624   33.1942 N.2     1  UNL1       -0.2011
     12 S           3.2274    1.7718   35.7198 S.2     1  UNL1       -0.0214
     13 C           6.4629   -0.1305   34.7307 C.ar    1  UNL1        0.0849
     14 C           7.8508    0.0890   35.2555 C.ar    1  UNL1        0.0192
     15 C           9.0165   -0.5904   34.6002 C.ar    1  UNL1        0.0015
     16 C           8.7943   -1.4894   33.4202 C.ar    1  UNL1        0.0001
     17 C           7.4064   -1.7090   32.8954 C.ar    1  UNL1        0.0015
     18 C           6.2407   -1.0295   33.5507 C.ar    1  UNL1        0.0192
     19 C           3.1603    1.7586   38.3920 C.2     1  UNL1        0.3673
     20 O           4.0085    1.7997   39.6284 O.2     1  UNL1       -0.2425
     21 O           1.6931    2.0589   38.4786 O.3     1  UNL1       -0.4440
     22 C           1.1929   -0.1887   39.6821 C.3     1  UNL1        0.0513
     23 C           0.8070    1.2233   39.3541 C.3     1  UNL1        0.2090
     24 C           0.2851    4.9652   33.6532 C.ar    1  UNL1        0.0177
     25 C           0.9155    5.4647   34.9194 C.ar    1  UNL1        0.0015
     26 C           0.2474    6.5480   35.7131 C.ar    1  UNL1        0.0000
     27 C          -1.0510    7.1320   35.2407 C.ar    1  UNL1        0.0000
     28 C          -1.6814    6.6325   33.9746 C.ar    1  UNL1        0.0000
     29 C          -1.0134    5.5491   33.1807 C.ar    1  UNL1        0.0015
     30 C           0.5774    2.0678   29.3498 C.ar    1  UNL1        0.0008
     31 C           0.9958    2.8607   28.1471 C.ar    1  UNL1        0.0000
     32 C           0.4738    2.4954   26.7892 C.ar    1  UNL1        0.0000
     33 C          -0.4666    1.3372   26.6338 C.ar    1  UNL1        0.0000
     34 C          -0.8851    0.5443   27.8365 C.ar    1  UNL1        0.0000
     35 C          -0.3631    0.9097   29.1944 C.ar    1  UNL1        0.0000
     36 C           2.9573    0.6317   30.4783 C.1     1  UNL1        0.1035
     37 N           3.6254   -0.4516   29.6845 N.1     1  UNL1       -0.1907
@<TRIPOS>BOND
     1    22    23    1
     2    23    21    1
     3    21    19    1
     4    19    20    2
     5    19     7    1
     6     7     8   ar
     7     8     9   ar
     8     9    13    1
     9    13    14   ar
    10    14    15   ar
    11    15    16   ar
    12    16    17   ar
    13    17    18   ar
    14     9    10   ar
    15    10    11    2
    16    11     1    1
    17     1     2   ar
    18     2     3   ar
    19     3    24    1
    20    24    25   ar
    21    25    26   ar
    22    26    27   ar
    23    27    28   ar
    24    28    29   ar
    25     3     4   ar
    26     4     5   ar
    27     5    30    1
    28    30    31   ar
    29    31    32   ar
    30    32    33   ar
    31    33    34   ar
    32    34    35   ar
    33     5     6   ar
    34     6    36    1
    35    36    37    3
    36    10    12   ar
    37    12     7   ar
    38    18    13   ar
    39     6     1   ar
    40    29    24   ar
    41    35    30   ar
@<TRIPOS>MOLECULE
*****
 37 41 0 0 0
SMALL
GASTEIGER

@<TRIPOS>ATOM
      1 C          -1.1166    3.1073   22.8255 C.ar    1  UNL1        0.1740
      2 N          -2.5505    3.5387   22.7377 N.ar    1  UNL1       -0.2259
      3 C          -3.3610    3.7074   23.9885 C.ar    1  UNL1        0.0830
      4 C          -2.7375    3.4448   25.3273 C.ar    1  UNL1        0.0199
      5 C          -1.3035    3.0134   25.4152 C.ar    1  UNL1        0.0141
      6 C          -0.4931    2.8447   24.1644 C.ar    1  UNL1        0.1042
      7 C          -2.4980    3.9013   18.5196 C.ar    1  UNL1        0.2089
      8 N          -1.2100    3.5296   17.8466 N.ar    1  UNL1       -0.1500
      9 N          -0.2321    3.1237   18.9092 N.ar    1  UNL1       -0.2060
     10 C          -0.9157    3.2445   20.2388 C.ar    1  UNL1        0.1983
     11 N          -0.3061    2.9385   21.5747 N.2     1  UNL1       -0.2011
     12 S          -2.3161    3.7250   19.9981 S.2     1  UNL1       -0.0214
     13 C           1.1813    2.6757   18.6819 C.ar    1  UNL1        0.0849
     14 C           2.2911    3.6842   18.6456 C.ar    1  UNL1        0.0192
     15 C           3.7044    3.2361   18.4184 C.ar    1  UNL1        0.0015
     16 C           4.0080    1.7796   18.2274 C.ar    1  UNL1        0.0001
     17 C           2.8982    0.7712   18.2638 C.ar    1  UNL1        0.0015
     18 C           1.4849    1.2192   18.4910 C.ar    1  UNL1        0.0192
     19 C          -3.7483    4.3673   17.8344 C.2     1  UNL1        0.3673
     20 O          -3.8320    5.7647   17.2957 O.2     1  UNL1       -0.2425
     21 O          -4.9150    3.4359   17.6879 O.3     1  UNL1       -0.4440
     22 C          -7.1574    4.1427   18.7933 C.3     1  UNL1        0.0513
     23 C          -5.9137    3.3041   18.7993 C.3     1  UNL1        0.2090
     24 C          -4.7949    4.1388   23.9007 C.ar    1  UNL1        0.0177
     25 C          -5.6097    3.7915   22.6900 C.ar    1  UNL1        0.0015
     26 C          -7.0436    4.2229   22.6022 C.ar    1  UNL1        0.0000
     27 C          -7.6628    5.0016   23.7248 C.ar    1  UNL1        0.0000
     28 C          -6.8480    5.3488   24.9354 C.ar    1  UNL1        0.0000
     29 C          -5.4140    4.9175   25.0234 C.ar    1  UNL1        0.0015
     30 C          -0.6801    2.7508   26.7540 C.ar    1  UNL1        0.0008
     31 C          -0.0175    3.8676   27.5049 C.ar    1  UNL1        0.0000
     32 C           0.6059    3.6049   28.8437 C.ar    1  UNL1        0.0000
     33 C           0.5667    2.2255   29.4316 C.ar    1  UNL1        0.0000
     34 C          -0.0958    1.1087   28.6806 C.ar    1  UNL1        0.0000
     35 C          -0.7192    1.3714   27.3419 C.ar    1  UNL1        0.0000
     36 C           0.9409    2.4132   24.2523 C.1     1  UNL1        0.1035
     37 N           2.3748    1.9819   24.3401 N.1     1  UNL1       -0.1907
@<TRIPOS>BOND
     1    22    23    1
     2    23    21    1
     3    21    19    1
     4    19    20    2
     5    19     7    1
     6     7     8   ar
     7     8     9   ar
     8     9    13    1
     9    13    14   ar
    10    14    15   ar
    11    15    16   ar
    12    16    17   ar
    13    17    18   ar
    14     9    10   ar
    15    10    11    2
    16    11     1    1
    17     1     2   ar
    18     2     3   ar
    19     3    24    1
    20    24    25   ar
    21    25    26   ar
    22    26    27   ar
    23    27    28   ar
    24    28    29   ar
    25     3     4   ar
    26     4     5   ar
    27     5    30    1
    28    30    31   ar
    29    31    32   ar
    30    32    33   ar
    31    33    34   ar
    32    34    35   ar
    33     5     6   ar
    34     6    36    1
    35    36    37    3
    36    10    12   ar
    37    12     7   ar
    38    18    13   ar
    39     6     1   ar
    40    29    24   ar
    41    35    30   ar
@<TRIPOS>MOLECULE
*****
 37 41 0 0 0
SMALL
GASTEIGER

@<TRIPOS>ATOM
      1 C           4.1283   -1.1590   26.2466 C.ar    1  UNL1        0.1740
      2 N           4.1657   -1.5776   24.8067 N.ar    1  UNL1       -0.2259
      3 C           3.2558   -0.9214   23.8110 C.ar    1  UNL1        0.0830
      4 C           2.3083    0.1533   24.2552 C.ar    1  UNL1        0.0199
      5 C           2.2709    0.5719   25.6951 C.ar    1  UNL1        0.0141
      6 C           3.1808   -0.0841   26.6908 C.ar    1  UNL1        0.1042
      7 C           7.5358   -4.1009   25.3445 C.ar    1  UNL1        0.2089
      8 N           7.9691   -4.3143   26.7645 N.ar    1  UNL1       -0.1500
      9 N           7.0863   -3.4840   27.6484 N.ar    1  UNL1       -0.2060
     10 C           6.1073   -2.7574   26.7745 C.ar    1  UNL1        0.1983
     11 N           5.0382   -1.8150   27.2424 N.2     1  UNL1       -0.2011
     12 S           6.3850   -3.1386   25.3507 S.2     1  UNL1       -0.0214
     13 C           7.1681   -3.3957   29.1436 C.ar    1  UNL1        0.0849
     14 C           6.8218   -4.5880   29.9853 C.ar    1  UNL1        0.0192
     15 C           6.9037   -4.4998   31.4804 C.ar    1  UNL1        0.0015
     16 C           7.3318   -3.2192   32.1339 C.ar    1  UNL1        0.0001
     17 C           7.6780   -2.0269   31.2921 C.ar    1  UNL1        0.0015
     18 C           7.5962   -2.1152   29.7970 C.ar    1  UNL1        0.0192
     19 C           8.1459   -4.7378   24.1312 C.2     1  UNL1        0.3673
     20 O           9.2070   -4.0132   23.3572 O.2     1  UNL1       -0.2425
     21 O           7.6951   -6.0994   23.6920 O.3     1  UNL1       -0.4440
     22 C           7.7772   -7.8066   25.6487 C.3     1  UNL1        0.0513
     23 C           8.2867   -7.3250   24.3226 C.3     1  UNL1        0.2090
     24 C           3.2932   -1.3400   22.3711 C.ar    1  UNL1        0.0177
     25 C           4.2114   -2.4429   21.9344 C.ar    1  UNL1        0.0015
     26 C           4.2488   -2.8615   20.4945 C.ar    1  UNL1        0.0000
     27 C           3.3682   -2.1773   19.4913 C.ar    1  UNL1        0.0000
     28 C           2.4500   -1.0745   19.9280 C.ar    1  UNL1        0.0000
     29 C           2.4125   -0.6558   21.3680 C.ar    1  UNL1        0.0015
     30 C           1.3234    1.6467   26.1392 C.ar    1  UNL1        0.0008
     31 C          -0.0728    1.2905   26.5561 C.ar    1  UNL1        0.0000
     32 C          -1.0202    2.3653   27.0002 C.ar    1  UNL1        0.0000
     33 C          -0.5713    3.7963   27.0275 C.ar    1  UNL1        0.0000
     34 C           0.8249    4.1525   26.6106 C.ar    1  UNL1        0.0000
     35 C           1.7722    3.0777   26.1665 C.ar    1  UNL1        0.0000
     36 C           3.1433    0.3345   28.1308 C.1     1  UNL1        0.1035
     37 N           3.1059    0.7531   29.5707 N.1     1  UNL1       -0.1907
@<TRIPOS>BOND
     1    22    23    1
     2    23    21    1
     3    21    19    1
     4    19    20    2
     5    19     7    1
     6     7     8   ar
     7     8     9   ar
     8     9    13    1
     9    13    14   ar
    10    14    15   ar
    11    15    16   ar
    12    16    17   ar
    13    17    18   ar
    14     9    10   ar
    15    10    11    2
    16    11     1    1
    17     1     2   ar
    18     2     3   ar
    19     3    24    1
    20    24    25   ar
    21    25    26   ar
    22    26    27   ar
    23    27    28   ar
    24    28    29   ar
    25     3     4   ar
    26     4     5   ar
    27     5    30    1
    28    30    31   ar
    29    31    32   ar
    30    32    33   ar
    31    33    34   ar
    32    34    35   ar
    33     5     6   ar
    34     6    36    1
    35    36    37    3
    36    10    12   ar
    37    12     7   ar
    38    18    13   ar
    39     6     1   ar
    40    29    24   ar
    41    35    30   ar
@<TRIPOS>MOLECULE
*****
 37 41 0 0 0
SMALL
GASTEIGER

@<TRIPOS>ATOM
      1 C           6.2578   -1.3935   25.5733 C.ar    1  UNL1        0.1740
      2 N           5.3587   -1.1265   24.4027 N.ar    1  UNL1       -0.2259
      3 C           5.0550   -2.2228   23.4249 C.ar    1  UNL1        0.0830
      4 C           5.6504   -3.5860   23.6178 C.ar    1  UNL1        0.0199
      5 C           6.5495   -3.8529   24.7884 C.ar    1  UNL1        0.0141
      6 C           6.8532   -2.7568   25.7661 C.ar    1  UNL1        0.1042
      7 C           3.6891   -0.1064   29.1545 C.ar    1  UNL1        0.2089
      8 N           4.5907    0.9911   29.6366 N.ar    1  UNL1       -0.1500
      9 N           5.7765    1.0532   28.7201 N.ar    1  UNL1       -0.2060
     10 C           5.6078   -0.0060   27.6715 C.ar    1  UNL1        0.1983
     11 N           6.5616   -0.2974   26.5511 N.2     1  UNL1       -0.2011
     12 S           4.3177   -0.7226   27.9399 S.2     1  UNL1       -0.0214
     13 C           6.9288    2.0070   28.8325 C.ar    1  UNL1        0.0849
     14 C           6.8310    3.3760   28.2273 C.ar    1  UNL1        0.0192
     15 C           7.9832    4.3298   28.3397 C.ar    1  UNL1        0.0015
     16 C           9.2333    3.9145   29.0573 C.ar    1  UNL1        0.0001
     17 C           9.3311    2.5456   29.6625 C.ar    1  UNL1        0.0015
     18 C           8.1789    1.5918   29.5501 C.ar    1  UNL1        0.0192
     19 C           2.3875   -0.5158   29.7775 C.2     1  UNL1        0.3673
     20 O           2.3489   -0.9631   31.2087 O.2     1  UNL1       -0.2425
     21 O           1.1244   -0.4779   28.9692 O.3     1  UNL1       -0.4440
     22 C          -1.0177    0.8053   28.2518 C.3     1  UNL1        0.0513
     23 C           0.1002    0.5870   29.2279 C.3     1  UNL1        0.2090
     24 C           4.1559   -1.9558   22.2543 C.ar    1  UNL1        0.0177
     25 C           3.1021   -0.8921   22.3453 C.ar    1  UNL1        0.0015
     26 C           2.2030   -0.6252   21.1747 C.ar    1  UNL1        0.0000
     27 C           2.3576   -1.4218   19.9131 C.ar    1  UNL1        0.0000
     28 C           3.4113   -2.4854   19.8222 C.ar    1  UNL1        0.0000
     29 C           4.3105   -2.7525   20.9928 C.ar    1  UNL1        0.0015
     30 C           7.1448   -5.2162   24.9812 C.ar    1  UNL1        0.0008
     31 C           6.8230   -6.0077   26.2140 C.ar    1  UNL1        0.0000
     32 C           7.4184   -7.3709   26.4067 C.ar    1  UNL1        0.0000
     33 C           8.3356   -7.9426   25.3666 C.ar    1  UNL1        0.0000
     34 C           8.6574   -7.1511   24.1338 C.ar    1  UNL1        0.0000
     35 C           8.0620   -5.7879   23.9410 C.ar    1  UNL1        0.0000
     36 C           7.7524   -3.0238   26.9368 C.1     1  UNL1        0.1035
     37 N           8.6515   -3.2907   28.1073 N.1     1  UNL1       -0.1907
@<TRIPOS>BOND
     1    22    23    1
     2    23    21    1
     3    21    19    1
     4    19    20    2
     5    19     7    1
     6     7     8   ar
     7     8     9   ar
     8     9    13    1
     9    13    14   ar
    10    14    15   ar
    11    15    16   ar
    12    16    17   ar
    13    17    18   ar
    14     9    10   ar
    15    10    11    2
    16    11     1    1
    17     1     2   ar
    18     2     3   ar
    19     3    24    1
    20    24    25   ar
    21    25    26   ar
    22    26    27   ar
    23    27    28   ar
    24    28    29   ar
    25     3     4   ar
    26     4     5   ar
    27     5    30    1
    28    30    31   ar
    29    31    32   ar
    30    32    33   ar
    31    33    34   ar
    32    34    35   ar
    33     5     6   ar
    34     6    36    1
    35    36    37    3
    36    10    12   ar
    37    12     7   ar
    38    18    13   ar
    39     6     1   ar
    40    29    24   ar
    41    35    30   ar
@<TRIPOS>MOLECULE
*****
 37 41 0 0 0
SMALL
GASTEIGER

@<TRIPOS>ATOM
      1 C           0.9881    0.9402   22.1088 C.ar    1  UNL1        0.1740
      2 N           1.3899    0.7841   23.5456 N.ar    1  UNL1       -0.2259
      3 C           2.5748   -0.0624   23.9053 C.ar    1  UNL1        0.0830
      4 C           3.3579   -0.7529   22.8283 C.ar    1  UNL1        0.0199
      5 C           2.9561   -0.5968   21.3915 C.ar    1  UNL1        0.0141
      6 C           1.7713    0.2497   21.0318 C.ar    1  UNL1        0.1042
      7 C          -0.7866    4.3845   24.5720 C.ar    1  UNL1        0.2089
      8 N          -1.8946    4.7317   23.6223 N.ar    1  UNL1       -0.1500
      9 N          -1.8085    3.8009   22.4493 N.ar    1  UNL1       -0.2060
     10 C          -0.6473    2.8783   22.6739 C.ar    1  UNL1        0.1983
     11 N          -0.1967    1.7868   21.7490 N.2     1  UNL1       -0.2011
     12 S          -0.0157    3.2390   23.9857 S.2     1  UNL1       -0.0214
     13 C          -2.7231    3.7938   21.2603 C.ar    1  UNL1        0.0849
     14 C          -2.2179    4.2471   19.9227 C.ar    1  UNL1        0.0192
     15 C          -3.1324    4.2401   18.7339 C.ar    1  UNL1        0.0015
     16 C          -4.5523    3.7796   18.8826 C.ar    1  UNL1        0.0001
     17 C          -5.0575    3.3263   20.2202 C.ar    1  UNL1        0.0015
     18 C          -4.1429    3.3334   21.4090 C.ar    1  UNL1        0.0192
     19 C          -0.4999    5.0635   25.8784 C.2     1  UNL1        0.3673
     20 O           0.2048    6.3876   25.8966 O.2     1  UNL1       -0.2425
     21 O          -0.9178    4.4185   27.1665 O.3     1  UNL1       -0.4440
     22 C          -0.8695    1.8535   27.5769 C.3     1  UNL1        0.0513
     23 C          -0.2034    3.1950   27.6590 C.3     1  UNL1        0.2090
     24 C           2.9765   -0.2185   25.3420 C.ar    1  UNL1        0.0177
     25 C           3.9001   -1.3294   25.7460 C.ar    1  UNL1        0.0015
     26 C           4.3018   -1.4855   27.1828 C.ar    1  UNL1        0.0000
     27 C           3.7801   -0.5309   28.2155 C.ar    1  UNL1        0.0000
     28 C           2.8566    0.5799   27.8114 C.ar    1  UNL1        0.0000
     29 C           2.4547    0.7361   26.3747 C.ar    1  UNL1        0.0015
     30 C           3.7393   -1.2873   20.3145 C.ar    1  UNL1        0.0008
     31 C           3.4055   -2.6988   19.9320 C.ar    1  UNL1        0.0000
     32 C           4.1887   -3.3892   18.8550 C.ar    1  UNL1        0.0000
     33 C           5.3057   -2.6682   18.1606 C.ar    1  UNL1        0.0000
     34 C           5.6396   -1.2568   18.5432 C.ar    1  UNL1        0.0000
     35 C           4.8564   -0.5663   19.6201 C.ar    1  UNL1        0.0000
     36 C           1.3696    0.4058   19.5950 C.1     1  UNL1        0.1035
     37 N           0.9679    0.5619   18.1583 N.1     1  UNL1       -0.1907
@<TRIPOS>BOND
     1    22    23    1
     2    23    21    1
     3    21    19    1
     4    19    20    2
     5    19     7    1
     6     7     8   ar
     7     8     9   ar
     8     9    13    1
     9    13    14   ar
    10    14    15   ar
    11    15    16   ar
    12    16    17   ar
    13    17    18   ar
    14     9    10   ar
    15    10    11    2
    16    11     1    1
    17     1     2   ar
    18     2     3   ar
    19     3    24    1
    20    24    25   ar
    21    25    26   ar
    22    26    27   ar
    23    27    28   ar
    24    28    29   ar
    25     3     4   ar
    26     4     5   ar
    27     5    30    1
    28    30    31   ar
    29    31    32   ar
    30    32    33   ar
    31    33    34   ar
    32    34    35   ar
    33     5     6   ar
    34     6    36    1
    35    36    37    3
    36    10    12   ar
    37    12     7   ar
    38    18    13   ar
    39     6     1   ar
    40    29    24   ar
    41    35    30   ar
@<TRIPOS>MOLECULE
*****
 37 41 0 0 0
SMALL
GASTEIGER

@<TRIPOS>ATOM
      1 C           5.7599   -2.2537   26.6274 C.ar    1  UNL1        0.1740
      2 N           4.8775   -1.6574   25.5711 N.ar    1  UNL1       -0.2259
      3 C           4.8572   -2.2452   24.1912 C.ar    1  UNL1        0.0830
      4 C           5.7193   -3.4292   23.8676 C.ar    1  UNL1        0.0199
      5 C           6.6018   -4.0255   24.9239 C.ar    1  UNL1        0.0141
      6 C           6.6221   -3.4378   26.3037 C.ar    1  UNL1        0.1042
      7 C           2.2514   -0.2756   28.8314 C.ar    1  UNL1        0.2089
      8 N           2.9932    0.0498   30.0938 N.ar    1  UNL1       -0.1500
      9 N           4.4055   -0.4315   29.9388 N.ar    1  UNL1       -0.2060
     10 C           4.5365   -1.0543   28.5805 C.ar    1  UNL1        0.1983
     11 N           5.7803   -1.6660   28.0073 N.2     1  UNL1       -0.2011
     12 S           3.2052   -0.9580   27.8961 S.2     1  UNL1       -0.0214
     13 C           5.4954   -0.3110   30.9624 C.ar    1  UNL1        0.0849
     14 C           6.5482    0.7473   30.8159 C.ar    1  UNL1        0.0192
     15 C           7.6380    0.8678   31.8395 C.ar    1  UNL1        0.0015
     16 C           7.6750   -0.0702   33.0095 C.ar    1  UNL1        0.0001
     17 C           6.6222   -1.1285   33.1560 C.ar    1  UNL1        0.0015
     18 C           5.5324   -1.2489   32.1324 C.ar    1  UNL1        0.0192
     19 C           0.8091    0.0280   28.5530 C.2     1  UNL1        0.3673
     20 O          -0.2520   -0.4320   29.5083 O.2     1  UNL1       -0.2425
     21 O           0.4278    0.7916   27.3195 O.3     1  UNL1       -0.4440
     22 C          -1.1030    2.5181   26.1255 C.3     1  UNL1        0.0513
     23 C          -0.7369    1.7361   27.3521 C.3     1  UNL1        0.2090
     24 C           3.9747   -1.6489   23.1349 C.ar    1  UNL1        0.0177
     25 C           3.0223   -0.5453   23.4886 C.ar    1  UNL1        0.0015
     26 C           2.1398    0.0509   22.4324 C.ar    1  UNL1        0.0000
     27 C           2.2097   -0.4563   21.0224 C.ar    1  UNL1        0.0000
     28 C           3.1622   -1.5599   20.6688 C.ar    1  UNL1        0.0000
     29 C           4.0447   -2.1562   21.7251 C.ar    1  UNL1        0.0015
     30 C           7.4639   -5.2096   24.6002 C.ar    1  UNL1        0.0008
     31 C           8.4690   -5.1245   23.4900 C.ar    1  UNL1        0.0000
     32 C           9.3311   -6.3086   23.1664 C.ar    1  UNL1        0.0000
     33 C           9.1881   -7.5778   23.9529 C.ar    1  UNL1        0.0000
     34 C           8.1829   -7.6629   25.0631 C.ar    1  UNL1        0.0000
     35 C           7.3209   -6.4788   25.3867 C.ar    1  UNL1        0.0000
     36 C           7.5046   -4.0341   27.3600 C.1     1  UNL1        0.1035
     37 N           8.3870   -4.6304   28.4163 N.1     1  UNL1       -0.1907
@<TRIPOS>BOND
     1    22    23    1
     2    23    21    1
     3    21    19    1
     4    19    20    2
     5    19     7    1
     6     7     8   ar
     7     8     9   ar
     8     9    13    1
     9    13    14   ar
    10    14    15   ar
    11    15    16   ar
    12    16    17   ar
    13    17    18   ar
    14     9    10   ar
    15    10    11    2
    16    11     1    1
    17     1     2   ar
    18     2     3   ar
    19     3    24    1
    20    24    25   ar
    21    25    26   ar
    22    26    27   ar
    23    27    28   ar
    24    28    29   ar
    25     3     4   ar
    26     4     5   ar
    27     5    30    1
    28    30    31   ar
    29    31    32   ar
    30    32    33   ar
    31    33    34   ar
    32    34    35   ar
    33     5     6   ar
    34     6    36    1
    35    36    37    3
    36    10    12   ar
    37    12     7   ar
    38    18    13   ar
    39     6     1   ar
    40    29    24   ar
    41    35    30   ar
@<TRIPOS>MOLECULE
*****
 37 41 0 0 0
SMALL
GASTEIGER

@<TRIPOS>ATOM
      1 C           1.0479    0.9011   21.9937 C.ar    1  UNL1        0.1740
      2 N           1.4296    0.7742   23.4387 N.ar    1  UNL1       -0.2259
      3 C           2.5871   -0.0936   23.8352 C.ar    1  UNL1        0.0830
      4 C           3.3628   -0.8345   22.7868 C.ar    1  UNL1        0.0199
      5 C           2.9811   -0.7075   21.3417 C.ar    1  UNL1        0.0141
      6 C           1.8237    0.1602   20.9452 C.ar    1  UNL1        0.1042
      7 C           1.2050    5.3383   20.8245 C.ar    1  UNL1        0.2089
      8 N          -0.2635    5.5090   20.5710 N.ar    1  UNL1       -0.1500
      9 N          -0.9347    4.1927   20.8295 N.ar    1  UNL1       -0.2060
     10 C           0.1190    3.2084   21.2428 C.ar    1  UNL1        0.1983
     11 N          -0.1095    1.7688   21.5970 N.2     1  UNL1       -0.2011
     12 S           1.4414    3.9163   21.2397 S.2     1  UNL1       -0.0214
     13 C          -2.4020    3.9103   20.6978 C.ar    1  UNL1        0.0849
     14 C          -3.0537    3.9424   19.3472 C.ar    1  UNL1        0.0192
     15 C          -4.5209    3.6600   19.2156 C.ar    1  UNL1        0.0015
     16 C          -5.3365    3.3455   20.4346 C.ar    1  UNL1        0.0001
     17 C          -4.6848    3.3134   21.7852 C.ar    1  UNL1        0.0015
     18 C          -3.2176    3.5958   21.9168 C.ar    1  UNL1        0.0192
     19 C           2.2531    6.4025   20.6870 C.2     1  UNL1        0.3673
     20 O           2.6922    7.1827   21.8906 O.2     1  UNL1       -0.2425
     21 O           2.8622    6.6865   19.3459 O.3     1  UNL1       -0.4440
     22 C           3.2365    4.7339   17.6735 C.3     1  UNL1        0.0513
     23 C           2.4248    5.9048   18.1428 C.3     1  UNL1        0.2090
     24 C           2.9688   -0.2206   25.2803 C.ar    1  UNL1        0.0177
     25 C           2.4457    0.7645   26.2835 C.ar    1  UNL1        0.0015
     26 C           2.8274    0.6375   27.7285 C.ar    1  UNL1        0.0000
     27 C           3.7321   -0.4744   28.1705 C.ar    1  UNL1        0.0000
     28 C           4.2551   -1.4594   27.1673 C.ar    1  UNL1        0.0000
     29 C           3.8734   -1.3325   25.7222 C.ar    1  UNL1        0.0015
     30 C           3.7570   -1.4484   20.2932 C.ar    1  UNL1        0.0008
     31 C           4.9239   -0.7903   19.6186 C.ar    1  UNL1        0.0000
     32 C           5.6997   -1.5312   18.5702 C.ar    1  UNL1        0.0000
     33 C           5.3085   -2.9302   18.1963 C.ar    1  UNL1        0.0000
     34 C           4.1415   -3.5883   18.8710 C.ar    1  UNL1        0.0000
     35 C           3.3657   -2.8474   19.9194 C.ar    1  UNL1        0.0000
     36 C           1.4420    0.2872   19.5000 C.1     1  UNL1        0.1035
     37 N           1.0604    0.4141   18.0550 N.1     1  UNL1       -0.1907
@<TRIPOS>BOND
     1    22    23    1
     2    23    21    1
     3    21    19    1
     4    19    20    2
     5    19     7    1
     6     7     8   ar
     7     8     9   ar
     8     9    13    1
     9    13    14   ar
    10    14    15   ar
    11    15    16   ar
    12    16    17   ar
    13    17    18   ar
    14     9    10   ar
    15    10    11    2
    16    11     1    1
    17     1     2   ar
    18     2     3   ar
    19     3    24    1
    20    24    25   ar
    21    25    26   ar
    22    26    27   ar
    23    27    28   ar
    24    28    29   ar
    25     3     4   ar
    26     4     5   ar
    27     5    30    1
    28    30    31   ar
    29    31    32   ar
    30    32    33   ar
    31    33    34   ar
    32    34    35   ar
    33     5     6   ar
    34     6    36    1
    35    36    37    3
    36    10    12   ar
    37    12     7   ar
    38    18    13   ar
    39     6     1   ar
    40    29    24   ar
    41    35    30   ar
@<TRIPOS>MOLECULE
*****
 37 41 0 0 0
SMALL
GASTEIGER

@<TRIPOS>ATOM
      1 C           0.5953    1.1982   21.6167 C.ar    1  UNL1        0.1740
      2 N          -0.4277    1.7545   20.6711 N.ar    1  UNL1       -0.2259
      3 C          -1.4067    2.7863   21.1475 C.ar    1  UNL1        0.0830
      4 C          -1.3627    3.2618   22.5695 C.ar    1  UNL1        0.0199
      5 C          -0.3397    2.7056   23.5150 C.ar    1  UNL1        0.0141
      6 C           0.6392    1.6739   23.0387 C.ar    1  UNL1        0.1042
      7 C           4.1436    1.8691   18.7813 C.ar    1  UNL1        0.2089
      8 N           4.6340    0.4516   18.7692 N.ar    1  UNL1       -0.1500
      9 N           3.7312   -0.3587   19.6515 N.ar    1  UNL1       -0.2060
     10 C           2.6829    0.5579   20.2088 C.ar    1  UNL1        0.1983
     11 N           1.5743    0.1665   21.1404 N.2     1  UNL1       -0.2011
     12 S           2.9377    1.9348   19.6710 S.2     1  UNL1       -0.0214
     13 C           3.8552   -1.8279   19.9279 C.ar    1  UNL1        0.0849
     14 C           4.3059   -2.3017   21.2778 C.ar    1  UNL1        0.0192
     15 C           4.4297   -3.7708   21.5542 C.ar    1  UNL1        0.0015
     16 C           4.1029   -4.7660   20.4806 C.ar    1  UNL1        0.0001
     17 C           3.6522   -4.2923   19.1307 C.ar    1  UNL1        0.0015
     18 C           3.5283   -2.8232   18.8543 C.ar    1  UNL1        0.0192
     19 C           4.7521    3.0190   18.0347 C.2     1  UNL1        0.3673
     20 O           3.8821    4.1355   17.5384 O.2     1  UNL1       -0.2425
     21 O           6.2308    3.0523   17.7844 O.3     1  UNL1       -0.4440
     22 C           7.2533    1.2960   16.1658 C.3     1  UNL1        0.0513
     23 C           6.7709    2.6911   16.4325 C.3     1  UNL1        0.2090
     24 C          -2.4297    3.3426   20.2020 C.ar    1  UNL1        0.0177
     25 C          -1.9917    4.0273   18.9413 C.ar    1  UNL1        0.0015
     26 C          -3.0147    4.5836   17.9957 C.ar    1  UNL1        0.0000
     27 C          -4.4756    4.4551   18.3108 C.ar    1  UNL1        0.0000
     28 C          -4.9135    3.7704   19.5715 C.ar    1  UNL1        0.0000
     29 C          -3.8906    3.2141   20.5172 C.ar    1  UNL1        0.0015
     30 C          -0.2958    3.1812   24.9370 C.ar    1  UNL1        0.0008
     31 C           0.4697    4.4220   25.2896 C.ar    1  UNL1        0.0000
     32 C           0.5136    4.8975   26.7115 C.ar    1  UNL1        0.0000
     33 C          -0.2080    4.1322   27.7809 C.ar    1  UNL1        0.0000
     34 C          -0.9736    2.8914   27.4283 C.ar    1  UNL1        0.0000
     35 C          -1.0175    2.4159   26.0063 C.ar    1  UNL1        0.0000
     36 C           1.6623    1.1176   23.9843 C.1     1  UNL1        0.1035
     37 N           2.6853    0.5613   24.9298 N.1     1  UNL1       -0.1907
@<TRIPOS>BOND
     1    22    23    1
     2    23    21    1
     3    21    19    1
     4    19    20    2
     5    19     7    1
     6     7     8   ar
     7     8     9   ar
     8     9    13    1
     9    13    14   ar
    10    14    15   ar
    11    15    16   ar
    12    16    17   ar
    13    17    18   ar
    14     9    10   ar
    15    10    11    2
    16    11     1    1
    17     1     2   ar
    18     2     3   ar
    19     3    24    1
    20    24    25   ar
    21    25    26   ar
    22    26    27   ar
    23    27    28   ar
    24    28    29   ar
    25     3     4   ar
    26     4     5   ar
    27     5    30    1
    28    30    31   ar
    29    31    32   ar
    30    32    33   ar
    31    33    34   ar
    32    34    35   ar
    33     5     6   ar
    34     6    36    1
    35    36    37    3
    36    10    12   ar
    37    12     7   ar
    38    18    13   ar
    39     6     1   ar
    40    29    24   ar
    41    35    30   ar
