@<TRIPOS>MOLECULE
*****
 23 25 0 0 0
SMALL
GASTEIGER

@<TRIPOS>ATOM
      1 C          -9.4789  -17.9059   23.3225 C.3     1  UNL1        0.0728
      2 C         -10.1754  -18.0902   24.6381 C.3     1  UNL1        0.0257
      3 C         -10.8022  -19.4529   24.6439 C.3     1  UNL1        0.0690
      4 N         -10.4931  -20.1109   23.3318 N.3     1  UNL1       -0.2971
      5 C          -9.6752  -19.1547   22.5152 C.3     1  UNL1        0.0759
      6 H         -11.3604  -20.3305   22.8419 H       1  UNL1        0.1233
      7 C          -8.7076  -17.4402   22.1233 C.2     1  UNL1        0.1910
      8 O          -9.2939  -16.4043   21.2105 O.2     1  UNL1       -0.2897
      9 C          -7.3501  -18.0103   21.8368 C.2     1  UNL1        0.1155
     10 C          -6.2169  -18.1225   22.8132 C.2     1  UNL1        0.0232
     11 C          -5.0539  -18.7499   22.1035 C.2     1  UNL1        0.0155
     12 C          -3.6711  -19.1059   22.5630 C.2     1  UNL1        0.0009
     13 C          -2.7026  -19.7374   21.6074 C.2     1  UNL1       -0.0041
     14 C          -3.1169  -20.0130   20.1923 C.2     1  UNL1       -0.0198
     15 C          -4.4997  -19.6570   19.7329 C.3     1  UNL1        0.0717
     16 C          -5.4682  -19.0255   20.6885 C.2     1  UNL1        0.0634
     17 N          -6.8873  -18.5684   20.5236 N.2     1  UNL1       -0.2464
     18 C          -9.1213  -16.5597   23.8791 C.3     1  UNL1        0.0087
     19 C          -9.0547  -16.3556   25.3637 C.3     1  UNL1        0.0005
     20 C          -8.1977  -16.4156   27.3033 C.3     1  UNL1        0.0000
     21 C          -7.8079  -15.8048   25.9899 C.3     1  UNL1        0.0000
     22 C          -7.4181  -15.1940   24.6765 C.3     1  UNL1        0.0000
     23 C          -6.5611  -15.2540   26.6161 C.3     1  UNL1        0.0000
@<TRIPOS>BOND
     1    20    21    1
     2    21    22    1
     3    21    23    1
     4    21    19    1
     5    19    18    1
     6    18     1    1
     7     1     7    1
     8     7     8    2
     9     7     9    1
    10     9    10    2
    11    10    11    1
    12    11    12    2
    13    12    13    1
    14    13    14    2
    15    14    15    1
    16    15    16    1
    17    16    17    2
    18     1     2    1
    19     2     3    1
    20     3     4    1
    21     4     5    1
    22     5     1    1
    23    17     9    1
    24    16    11    1
    25     4     6    1
@<TRIPOS>MOLECULE
*****
 23 25 0 0 0
SMALL
GASTEIGER

@<TRIPOS>ATOM
      1 C          -9.4160  -18.8994   23.1407 C.3     1  UNL1        0.0728
      2 C         -10.1135  -18.3090   24.3303 C.3     1  UNL1        0.0257
      3 C         -10.2750  -19.3907   25.3568 C.3     1  UNL1        0.0690
      4 N          -9.6774  -20.6496   24.8017 N.3     1  UNL1       -0.2971
      5 C          -9.1466  -20.3458   23.4320 C.3     1  UNL1        0.0759
      6 H         -10.3918  -21.3753   24.7430 H       1  UNL1        0.1233
      7 C          -8.7457  -19.2004   21.8330 C.2     1  UNL1        0.1910
      8 O          -9.5726  -19.4796   20.6131 O.2     1  UNL1       -0.2897
      9 C          -7.2484  -19.2222   21.7453 C.2     1  UNL1        0.1155
     10 C          -6.4329  -20.0443   20.7918 C.2     1  UNL1        0.0232
     11 C          -4.9843  -19.7560   21.0529 C.2     1  UNL1        0.0155
     12 C          -3.7276  -20.2750   20.4195 C.2     1  UNL1        0.0009
     13 C          -2.3910  -19.7938   20.9009 C.2     1  UNL1       -0.0041
     14 C          -2.3111  -18.7934   22.0158 C.2     1  UNL1       -0.0198
     15 C          -3.5678  -18.2743   22.6492 C.3     1  UNL1        0.0717
     16 C          -4.9043  -18.7556   22.1677 C.2     1  UNL1        0.0634
     17 N          -6.3037  -18.4257   22.5956 N.2     1  UNL1       -0.2464
     18 C          -9.5454  -17.5158   22.5760 C.3     1  UNL1        0.0087
     19 C         -10.8951  -16.8685   22.4789 C.3     1  UNL1        0.0005
     20 C         -12.6216  -17.3888   21.3616 C.3     1  UNL1        0.0000
     21 C         -11.4472  -16.4827   21.1386 C.3     1  UNL1        0.0000
     22 C         -10.2728  -15.5765   20.9157 C.3     1  UNL1        0.0000
     23 C         -11.9993  -16.0968   19.7984 C.3     1  UNL1        0.0000
@<TRIPOS>BOND
     1    20    21    1
     2    21    22    1
     3    21    23    1
     4    21    19    1
     5    19    18    1
     6    18     1    1
     7     1     7    1
     8     7     8    2
     9     7     9    1
    10     9    10    2
    11    10    11    1
    12    11    12    2
    13    12    13    1
    14    13    14    2
    15    14    15    1
    16    15    16    1
    17    16    17    2
    18     1     2    1
    19     2     3    1
    20     3     4    1
    21     4     5    1
    22     5     1    1
    23    17     9    1
    24    16    11    1
    25     4     6    1
@<TRIPOS>MOLECULE
*****
 23 25 0 0 0
SMALL
GASTEIGER

@<TRIPOS>ATOM
      1 C          -9.8433  -16.3142   22.7490 C.3     1  UNL1        0.0728
      2 C         -11.2053  -16.5558   22.1688 C.3     1  UNL1        0.0257
      3 C         -11.2577  -15.9003   20.8206 C.3     1  UNL1        0.0690
      4 N          -9.9281  -15.2536   20.5675 N.3     1  UNL1       -0.2971
      5 C          -9.0540  -15.5095   21.7594 C.3     1  UNL1        0.0759
      6 H         -10.0507  -14.2494   20.4374 H       1  UNL1        0.1233
      7 C          -8.5917  -16.2376   23.5721 C.2     1  UNL1        0.1910
      8 O          -8.5668  -15.4119   24.8241 O.2     1  UNL1       -0.2897
      9 C          -7.3649  -16.9866   23.1432 C.2     1  UNL1        0.1155
     10 C          -7.3405  -18.2442   22.3258 C.2     1  UNL1        0.0232
     11 C          -5.9077  -18.6444   22.1338 C.2     1  UNL1        0.0155
     12 C          -5.2758  -19.7982   21.4130 C.2     1  UNL1        0.0009
     13 C          -3.7829  -19.9418   21.3909 C.2     1  UNL1       -0.0041
     14 C          -2.9218  -18.9317   22.0896 C.2     1  UNL1       -0.0198
     15 C          -3.5537  -17.7779   22.8103 C.3     1  UNL1        0.0717
     16 C          -5.0466  -17.6343   22.8324 C.2     1  UNL1        0.0634
     17 N          -5.9472  -16.6097   23.4562 N.2     1  UNL1       -0.2464
     18 C         -10.3710  -17.1029   23.9106 C.3     1  UNL1        0.0087
     19 C         -11.0457  -18.4221   23.6769 C.3     1  UNL1        0.0005
     20 C         -10.6728  -20.2191   22.6130 C.3     1  UNL1        0.0000
     21 C         -10.3183  -19.6997   23.9748 C.3     1  UNL1        0.0000
     22 C          -9.9637  -19.1803   25.3366 C.3     1  UNL1        0.0000
     23 C          -9.5909  -20.9773   24.2726 C.3     1  UNL1        0.0000
@<TRIPOS>BOND
     1    20    21    1
     2    21    22    1
     3    21    23    1
     4    21    19    1
     5    19    18    1
     6    18     1    1
     7     1     7    1
     8     7     8    2
     9     7     9    1
    10     9    10    2
    11    10    11    1
    12    11    12    2
    13    12    13    1
    14    13    14    2
    15    14    15    1
    16    15    16    1
    17    16    17    2
    18     1     2    1
    19     2     3    1
    20     3     4    1
    21     4     5    1
    22     5     1    1
    23    17     9    1
    24    16    11    1
    25     4     6    1
@<TRIPOS>MOLECULE
*****
 23 25 0 0 0
SMALL
GASTEIGER

@<TRIPOS>ATOM
      1 C          -9.4421  -17.6776   22.5755 C.3     1  UNL1        0.0728
      2 C         -10.1759  -16.3723   22.6632 C.3     1  UNL1        0.0257
      3 C         -10.7082  -16.0472   21.2990 C.3     1  UNL1        0.0690
      4 N         -10.3033  -17.1515   20.3681 N.3     1  UNL1       -0.2971
      5 C          -9.5208  -18.1591   21.1571 C.3     1  UNL1        0.0759
      6 H          -9.7253  -16.7760   19.6163 H       1  UNL1        0.1233
      7 C          -8.6575  -18.9372   22.7938 C.2     1  UNL1        0.1910
      8 O          -9.3086  -20.1236   23.4408 O.2     1  UNL1       -0.2897
      9 C          -7.2219  -19.0105   22.3652 C.2     1  UNL1        0.1155
     10 C          -6.6375  -20.0060   21.4074 C.2     1  UNL1        0.0232
     11 C          -5.1731  -19.7119   21.2693 C.2     1  UNL1        0.0155
     12 C          -4.0901  -20.3640   20.4619 C.2     1  UNL1        0.0009
     13 C          -2.6866  -19.8388   20.5269 C.2     1  UNL1       -0.0041
     14 C          -2.3661  -18.6615   21.3994 C.2     1  UNL1       -0.0198
     15 C          -3.4490  -18.0094   22.2068 C.3     1  UNL1        0.0717
     16 C          -4.8525  -18.5346   22.1418 C.2     1  UNL1        0.0634
     17 N          -6.1188  -18.1011   22.8190 N.2     1  UNL1       -0.2464
     18 C          -9.1994  -17.4593   24.0395 C.3     1  UNL1        0.0087
     19 C          -8.9889  -16.0706   24.5660 C.3     1  UNL1        0.0005
     20 C          -7.1377  -15.0550   24.3629 C.3     1  UNL1        0.0000
     21 C          -7.8326  -15.7809   25.4765 C.3     1  UNL1        0.0000
     22 C          -8.5276  -16.5068   26.5901 C.3     1  UNL1        0.0000
     23 C          -6.6763  -15.4912   26.3869 C.3     1  UNL1        0.0000
@<TRIPOS>BOND
     1    20    21    1
     2    21    22    1
     3    21    23    1
     4    21    19    1
     5    19    18    1
     6    18     1    1
     7     1     7    1
     8     7     8    2
     9     7     9    1
    10     9    10    2
    11    10    11    1
    12    11    12    2
    13    12    13    1
    14    13    14    2
    15    14    15    1
    16    15    16    1
    17    16    17    2
    18     1     2    1
    19     2     3    1
    20     3     4    1
    21     4     5    1
    22     5     1    1
    23    17     9    1
    24    16    11    1
    25     4     6    1
@<TRIPOS>MOLECULE
*****
 23 25 0 0 0
SMALL
GASTEIGER

@<TRIPOS>ATOM
      1 C         -10.9436  -17.8467   21.8063 C.3     1  UNL1        0.0728
      2 C         -10.7618  -18.0938   20.3380 C.3     1  UNL1        0.0257
      3 C         -11.4682  -17.0002   19.5930 C.3     1  UNL1        0.0690
      4 N         -12.0867  -16.0772   20.6008 N.3     1  UNL1       -0.2971
      5 C         -11.7624  -16.6004   21.9687 C.3     1  UNL1        0.0759
      6 H         -13.0980  -16.0506   20.4711 H       1  UNL1        0.1233
      7 C         -10.9548  -17.8608   23.3062 C.2     1  UNL1        0.1910
      8 O         -12.0961  -18.4982   24.0417 O.2     1  UNL1       -0.2897
      9 C          -9.8246  -17.2374   24.0705 C.2     1  UNL1        0.1155
     10 C          -8.6606  -16.4997   23.4781 C.2     1  UNL1        0.0232
     11 C          -7.7766  -16.0488   24.6029 C.2     1  UNL1        0.0155
     12 C          -6.4890  -15.2795   24.6210 C.2     1  UNL1        0.0009
     13 C          -5.8191  -14.9692   25.9267 C.2     1  UNL1       -0.0041
     14 C          -6.4367  -15.4282   27.2142 C.2     1  UNL1       -0.0198
     15 C          -7.7243  -16.1975   27.1961 C.3     1  UNL1        0.0717
     16 C          -8.3942  -16.5077   25.8904 C.2     1  UNL1        0.0634
     17 N          -9.6599  -17.2424   25.5614 N.2     1  UNL1       -0.2464
     18 C         -10.1272  -19.0959   21.9574 C.3     1  UNL1        0.0087
     19 C          -8.9923  -19.3687   21.0153 C.3     1  UNL1        0.0005
     20 C          -7.0458  -18.9215   20.3005 C.3     1  UNL1        0.0000
     21 C          -7.6008  -19.5428   21.5478 C.3     1  UNL1        0.0000
     22 C          -8.1559  -20.1641   22.7951 C.3     1  UNL1        0.0000
     23 C          -6.2094  -19.7169   22.0802 C.3     1  UNL1        0.0000
@<TRIPOS>BOND
     1    20    21    1
     2    21    22    1
     3    21    23    1
     4    21    19    1
     5    19    18    1
     6    18     1    1
     7     1     7    1
     8     7     8    2
     9     7     9    1
    10     9    10    2
    11    10    11    1
    12    11    12    2
    13    12    13    1
    14    13    14    2
    15    14    15    1
    16    15    16    1
    17    16    17    2
    18     1     2    1
    19     2     3    1
    20     3     4    1
    21     4     5    1
    22     5     1    1
    23    17     9    1
    24    16    11    1
    25     4     6    1
@<TRIPOS>MOLECULE
*****
 23 25 0 0 0
SMALL
GASTEIGER

@<TRIPOS>ATOM
      1 C          -6.0454  -17.6625   22.7267 C.3     1  UNL1        0.0728
      2 C          -5.0949  -17.1036   23.7437 C.3     1  UNL1        0.0257
      3 C          -3.8349  -17.9160   23.6961 C.3     1  UNL1        0.0690
      4 N          -4.0065  -18.9769   22.6497 N.3     1  UNL1       -0.2971
      5 C          -5.3727  -18.8202   22.0506 C.3     1  UNL1        0.0759
      6 H          -3.9188  -19.8999   23.0749 H       1  UNL1        0.1233
      7 C          -7.1864  -17.9937   21.8111 C.2     1  UNL1        0.1910
      8 O          -6.9270  -18.2729   20.3603 O.2     1  UNL1       -0.2897
      9 C          -8.5867  -18.0458   22.3462 C.2     1  UNL1        0.1155
     10 C          -9.7827  -17.3605   21.7547 C.2     1  UNL1        0.0232
     11 C         -10.9721  -17.6835   22.6097 C.2     1  UNL1        0.0155
     12 C         -12.4152  -17.2862   22.5131 C.2     1  UNL1        0.0009
     13 C         -13.3975  -17.7738   23.5365 C.2     1  UNL1       -0.0041
     14 C         -12.9365  -18.6587   24.6565 C.2     1  UNL1       -0.0198
     15 C         -11.4934  -19.0561   24.7531 C.3     1  UNL1        0.0717
     16 C         -10.5112  -18.5685   23.7297 C.2     1  UNL1        0.0634
     17 N          -9.0369  -18.7924   23.5668 N.2     1  UNL1       -0.2464
     18 C          -6.9566  -16.5740   23.2114 C.3     1  UNL1        0.0087
     19 C          -6.5217  -15.6747   24.3305 C.3     1  UNL1        0.0005
     20 C          -8.6059  -15.4849   24.6771 C.3     1  UNL1        0.0000
     21 C          -7.3848  -15.5208   25.5476 C.3     1  UNL1        0.0000
     22 C          -6.1638  -15.5568   26.4180 C.3     1  UNL1        0.0000
     23 C          -8.2480  -15.3669   26.7646 C.3     1  UNL1        0.0000
@<TRIPOS>BOND
     1    20    21    1
     2    21    22    1
     3    21    23    1
     4    21    19    1
     5    19    18    1
     6    18     1    1
     7     1     7    1
     8     7     8    2
     9     7     9    1
    10     9    10    2
    11    10    11    1
    12    11    12    2
    13    12    13    1
    14    13    14    2
    15    14    15    1
    16    15    16    1
    17    16    17    2
    18     1     2    1
    19     2     3    1
    20     3     4    1
    21     4     5    1
    22     5     1    1
    23    17     9    1
    24    16    11    1
    25     4     6    1
@<TRIPOS>MOLECULE
*****
 23 25 0 0 0
SMALL
GASTEIGER

@<TRIPOS>ATOM
      1 C          -6.1146  -19.1513   21.5340 C.3     1  UNL1        0.0728
      2 C          -5.3134  -20.2837   20.9630 C.3     1  UNL1        0.0257
      3 C          -6.1461  -20.9573   19.9128 C.3     1  UNL1        0.0690
      4 N          -7.4619  -20.2412   19.8346 N.3     1  UNL1       -0.2971
      5 C          -7.4423  -19.1251   20.8366 C.3     1  UNL1        0.0759
      6 H          -8.2210  -20.8872   20.0509 H       1  UNL1        0.1233
      7 C          -6.6620  -17.9730   22.2834 C.2     1  UNL1        0.1910
      8 O          -5.7291  -16.9370   22.8370 O.2     1  UNL1       -0.2897
      9 C          -8.1423  -17.8305   22.4793 C.2     1  UNL1        0.1155
     10 C          -9.0099  -18.7194   23.3203 C.2     1  UNL1        0.0232
     11 C         -10.4188  -18.2124   23.2294 C.2     1  UNL1        0.0155
     12 C         -11.6992  -18.6902   23.8476 C.2     1  UNL1        0.0009
     13 C         -12.9827  -17.9658   23.5687 C.2     1  UNL1       -0.0041
     14 C         -12.9857  -16.7636   22.6716 C.2     1  UNL1       -0.0198
     15 C         -11.7053  -16.2859   22.0533 C.3     1  UNL1        0.0717
     16 C         -10.4218  -17.0103   22.3322 C.2     1  UNL1        0.0634
     17 N          -9.0149  -16.7743   21.8687 N.2     1  UNL1       -0.2464
     18 C          -4.9013  -18.9313   22.3880 C.3     1  UNL1        0.0087
     19 C          -3.5309  -19.1044   21.8031 C.3     1  UNL1        0.0005
     20 C          -2.5407  -17.6804   23.0243 C.3     1  UNL1        0.0000
     21 C          -2.6678  -17.9047   21.5467 C.3     1  UNL1        0.0000
     22 C          -2.7949  -18.1291   20.0690 C.3     1  UNL1        0.0000
     23 C          -1.8047  -16.7050   21.2903 C.3     1  UNL1        0.0000
@<TRIPOS>BOND
     1    20    21    1
     2    21    22    1
     3    21    23    1
     4    21    19    1
     5    19    18    1
     6    18     1    1
     7     1     7    1
     8     7     8    2
     9     7     9    1
    10     9    10    2
    11    10    11    1
    12    11    12    2
    13    12    13    1
    14    13    14    2
    15    14    15    1
    16    15    16    1
    17    16    17    2
    18     1     2    1
    19     2     3    1
    20     3     4    1
    21     4     5    1
    22     5     1    1
    23    17     9    1
    24    16    11    1
    25     4     6    1
@<TRIPOS>MOLECULE
*****
 23 25 0 0 0
SMALL
GASTEIGER

@<TRIPOS>ATOM
      1 C         -11.3414   -6.5494   18.2127 C.3     1  UNL1        0.0728
      2 C         -10.1709   -6.5252   19.1504 C.3     1  UNL1        0.0257
      3 C          -9.3035   -7.7089   18.8398 C.3     1  UNL1        0.0690
      4 N          -9.9380   -8.4648   17.7101 N.3     1  UNL1       -0.2971
      5 C         -11.1975   -7.7482   17.3227 C.3     1  UNL1        0.0759
      6 H         -10.1584   -9.4146   18.0098 H       1  UNL1        0.1233
      7 C         -12.5969   -6.3127   17.4268 C.2     1  UNL1        0.1910
      8 O         -12.5167   -5.7699   16.0308 O.2     1  UNL1       -0.2897
      9 C         -13.9326   -6.6189   18.0369 C.2     1  UNL1        0.1155
     10 C         -15.1275   -5.7121   18.0437 C.2     1  UNL1        0.0232
     11 C         -16.2413   -6.4183   18.7583 C.2     1  UNL1        0.0155
     12 C         -17.6513   -6.0118   19.0692 C.2     1  UNL1        0.0009
     13 C         -18.5547   -6.9485   19.8151 C.2     1  UNL1       -0.0041
     14 C         -18.0482   -8.2917   20.2501 C.2     1  UNL1       -0.0198
     15 C         -16.6382   -8.6982   19.9392 C.3     1  UNL1        0.0717
     16 C         -15.7348   -7.7615   19.1933 C.2     1  UNL1        0.0634
     17 N         -14.3079   -7.8854   18.7475 N.2     1  UNL1       -0.2464
     18 C         -11.7477   -5.3012   18.9385 C.3     1  UNL1        0.0087
     19 C         -11.0326   -4.0105   18.6692 C.3     1  UNL1        0.0005
     20 C         -12.7255   -3.2672   19.7089 C.3     1  UNL1        0.0000
     21 C         -11.7926   -2.7173   18.6710 C.3     1  UNL1        0.0000
     22 C         -10.8597   -2.1675   17.6331 C.3     1  UNL1        0.0000
     23 C         -12.5527   -1.4242   18.6729 C.3     1  UNL1        0.0000
@<TRIPOS>BOND
     1    20    21    1
     2    21    22    1
     3    21    23    1
     4    21    19    1
     5    19    18    1
     6    18     1    1
     7     1     7    1
     8     7     8    2
     9     7     9    1
    10     9    10    2
    11    10    11    1
    12    11    12    2
    13    12    13    1
    14    13    14    2
    15    14    15    1
    16    15    16    1
    17    16    17    2
    18     1     2    1
    19     2     3    1
    20     3     4    1
    21     4     5    1
    22     5     1    1
    23    17     9    1
    24    16    11    1
    25     4     6    1
@<TRIPOS>MOLECULE
*****
 23 25 0 0 0
SMALL
GASTEIGER

@<TRIPOS>ATOM
      1 C         -15.9627   -7.6331   18.5474 C.3     1  UNL1        0.0728
      2 C         -16.8630   -7.4448   19.7323 C.3     1  UNL1        0.0257
      3 C         -17.0953   -8.7890   20.3561 C.3     1  UNL1        0.0690
      4 N         -16.3385   -9.8081   19.5568 N.3     1  UNL1       -0.2971
      5 C         -15.6386   -9.0936   18.4390 C.3     1  UNL1        0.0759
      6 H         -16.9852  -10.4985   19.1751 H       1  UNL1        0.1233
      7 C         -15.0921   -7.5106   17.3321 C.2     1  UNL1        0.1910
      8 O         -15.5688   -8.0390   16.0117 O.2     1  UNL1       -0.2897
      9 C         -13.7447   -6.8598   17.4371 C.2     1  UNL1        0.1155
     10 C         -12.7526   -7.0603   18.5442 C.2     1  UNL1        0.0232
     11 C         -11.5476   -6.2186   18.2449 C.2     1  UNL1        0.0155
     12 C         -10.2571   -6.0153   18.9819 C.2     1  UNL1        0.0009
     13 C          -9.2140   -5.0914   18.4269 C.2     1  UNL1       -0.0041
     14 C          -9.4614   -4.3707   17.1348 C.2     1  UNL1       -0.0198
     15 C         -10.7519   -4.5740   16.3978 C.3     1  UNL1        0.0717
     16 C         -11.7950   -5.4979   16.9528 C.2     1  UNL1        0.0634
     17 N         -13.1529   -5.8942   16.4536 N.2     1  UNL1       -0.2464
     18 C         -16.1048   -6.1470   18.4018 C.3     1  UNL1        0.0087
     19 C         -15.8688   -5.2517   19.5820 C.3     1  UNL1        0.0005
     20 C         -15.4208   -3.6867   18.2219 C.3     1  UNL1        0.0000
     21 C         -14.8272   -4.1748   19.5101 C.3     1  UNL1        0.0000
     22 C         -14.2336   -4.6629   20.7982 C.3     1  UNL1        0.0000
     23 C         -13.7855   -3.0979   19.4381 C.3     1  UNL1        0.0000
@<TRIPOS>BOND
     1    20    21    1
     2    21    22    1
     3    21    23    1
     4    21    19    1
     5    19    18    1
     6    18     1    1
     7     1     7    1
     8     7     8    2
     9     7     9    1
    10     9    10    2
    11    10    11    1
    12    11    12    2
    13    12    13    1
    14    13    14    2
    15    14    15    1
    16    15    16    1
    17    16    17    2
    18     1     2    1
    19     2     3    1
    20     3     4    1
    21     4     5    1
    22     5     1    1
    23    17     9    1
    24    16    11    1
    25     4     6    1
