@<TRIPOS>MOLECULE
*****
 29 33 0 0 0
SMALL
GASTEIGER

@<TRIPOS>ATOM
      1 N          -4.2492  -18.1559   22.3603 N.ar    1  UNL1       -0.3106
      2 C          -4.3588  -16.8085   23.0102 C.ar    1  UNL1        0.1215
      3 N          -3.2002  -15.9754   22.5482 N.ar    1  UNL1       -0.2309
      4 C          -2.3744  -16.8079   21.6127 C.ar    1  UNL1        0.0983
      5 C          -1.1159  -16.5130   20.8517 C.ar    1  UNL1        0.0206
      6 C          -0.5058  -17.5657   19.9745 C.ar    1  UNL1        0.0016
      7 C          -1.1542  -18.9134   19.8584 C.ar    1  UNL1        0.0016
      8 C          -2.4126  -19.2083   20.6194 C.ar    1  UNL1        0.0188
      9 C          -3.0228  -18.1556   21.4966 C.ar    1  UNL1        0.0789
     10 C          -5.4377  -16.3710   23.9560 C.3     1  UNL1        0.0729
     11 C          -5.0891  -15.9766   25.3606 C.3     1  UNL1        0.0103
     12 C          -6.1680  -15.5391   26.3065 C.3     1  UNL1        0.0178
     13 C          -7.5954  -15.4960   25.8477 C.3     1  UNL1        0.0725
     14 N          -7.9440  -15.8903   24.4431 N.3     1  UNL1       -0.2645
     15 C          -6.8651  -16.3278   23.4973 C.3     1  UNL1        0.0800
     16 C          -9.3715  -15.8472   23.9843 C.3     1  UNL1        0.1587
     17 C         -10.2079  -17.0920   24.0176 C.ar    1  UNL1        0.2223
     18 N          -9.9875  -18.2788   24.9080 N.ar    1  UNL1       -0.2092
     19 C         -11.0549  -19.2888   24.6070 C.ar    1  UNL1        0.1424
     20 C         -11.9350  -18.7261   23.5305 C.ar    1  UNL1        0.2018
     21 O         -11.4115  -17.3684   23.1663 O.2     1  UNL1       -0.4338
     22 C          -5.1991  -19.3024   22.5421 C.3     1  UNL1        0.1339
     23 F         -10.1595  -19.6503   19.1844 F       1  UNL1       -0.2042
     24 C          -8.9194  -19.5633   20.0238 C.ar    1  UNL1        0.1401
     25 C          -9.0166  -19.6594   21.5176 C.ar    1  UNL1        0.0294
     26 C          -7.7765  -19.5724   22.3570 C.ar    1  UNL1       -0.0001
     27 C          -6.4391  -19.3894   21.7026 C.ar    1  UNL1        0.0006
     28 C          -6.3420  -19.2933   20.2089 C.ar    1  UNL1       -0.0001
     29 C          -7.5821  -19.3803   19.3695 C.ar    1  UNL1        0.0294
@<TRIPOS>BOND
     1    23    24    1
     2    24    25   ar
     3    25    26   ar
     4    26    27   ar
     5    27    22    1
     6    22     1    1
     7     1     2   ar
     8     2    10    1
     9    10    11    1
    10    11    12    1
    11    12    13    1
    12    13    14    1
    13    14    16    1
    14    16    17    1
    15    17    18   ar
    16    18    19   ar
    17    19    20   ar
    18    20    21   ar
    19    14    15    1
    20     2     3   ar
    21     3     4   ar
    22     4     5   ar
    23     5     6   ar
    24     6     7   ar
    25     7     8   ar
    26     8     9   ar
    27    27    28   ar
    28    28    29   ar
    29    29    24   ar
    30     9     1   ar
    31    15    10    1
    32     9     4   ar
    33    21    17   ar
@<TRIPOS>MOLECULE
*****
 29 33 0 0 0
SMALL
GASTEIGER

@<TRIPOS>ATOM
      1 N          -8.7365  -17.3248   22.0225 N.ar    1  UNL1       -0.3106
      2 C          -8.4169  -18.6990   21.5131 C.ar    1  UNL1        0.1215
      3 N          -9.7103  -19.4323   21.3151 N.ar    1  UNL1       -0.2309
      4 C         -10.8293  -18.5114   21.7021 C.ar    1  UNL1        0.0983
      5 C         -12.3185  -18.6905   21.7129 C.ar    1  UNL1        0.0206
      6 C         -13.2058  -17.5672   22.1609 C.ar    1  UNL1        0.0016
      7 C         -12.6039  -16.2646   22.5980 C.ar    1  UNL1        0.0016
      8 C         -11.1147  -16.0855   22.5873 C.ar    1  UNL1        0.0188
      9 C         -10.2274  -17.2089   22.1393 C.ar    1  UNL1        0.0789
     10 C          -7.0448  -19.2442   21.2483 C.3     1  UNL1        0.0729
     11 C          -6.8670  -20.4102   20.3216 C.3     1  UNL1        0.0103
     12 C          -5.4949  -20.9553   20.0567 C.3     1  UNL1        0.0178
     13 C          -4.3006  -20.3345   20.7186 C.3     1  UNL1        0.0725
     14 N          -4.4784  -19.1685   21.6453 N.3     1  UNL1       -0.2645
     15 C          -5.8505  -18.6233   21.9101 C.3     1  UNL1        0.0800
     16 C          -3.2840  -18.5476   22.3072 C.3     1  UNL1        0.1587
     17 C          -2.1401  -18.0488   21.4748 C.ar    1  UNL1        0.2223
     18 N          -1.8181  -16.6118   21.1895 N.ar    1  UNL1       -0.2092
     19 C          -0.5964  -16.5743   20.3200 C.ar    1  UNL1        0.1424
     20 C          -0.1633  -17.9881   20.0680 C.ar    1  UNL1        0.2018
     21 O          -1.1173  -18.8994   20.7817 O.2     1  UNL1       -0.4338
     22 C          -7.7400  -16.2545   22.3565 C.3     1  UNL1        0.1339
     23 F          -6.4337  -15.0541   28.0881 F       1  UNL1       -0.2042
     24 C          -6.7603  -15.3542   26.6552 C.ar    1  UNL1        0.1401
     25 C          -5.6780  -15.3236   25.6171 C.ar    1  UNL1        0.0294
     26 C          -6.0046  -15.6237   24.1842 C.ar    1  UNL1       -0.0001
     27 C          -7.4135  -15.9544   23.7893 C.ar    1  UNL1        0.0006
     28 C          -8.4957  -15.9850   24.8275 C.ar    1  UNL1       -0.0001
     29 C          -8.1691  -15.6849   26.2604 C.ar    1  UNL1        0.0294
@<TRIPOS>BOND
     1    23    24    1
     2    24    25   ar
     3    25    26   ar
     4    26    27   ar
     5    27    22    1
     6    22     1    1
     7     1     2   ar
     8     2    10    1
     9    10    11    1
    10    11    12    1
    11    12    13    1
    12    13    14    1
    13    14    16    1
    14    16    17    1
    15    17    18   ar
    16    18    19   ar
    17    19    20   ar
    18    20    21   ar
    19    14    15    1
    20     2     3   ar
    21     3     4   ar
    22     4     5   ar
    23     5     6   ar
    24     6     7   ar
    25     7     8   ar
    26     8     9   ar
    27    27    28   ar
    28    28    29   ar
    29    29    24   ar
    30     9     1   ar
    31    15    10    1
    32     9     4   ar
    33    21    17   ar
@<TRIPOS>MOLECULE
*****
 29 33 0 0 0
SMALL
GASTEIGER

@<TRIPOS>ATOM
      1 N          -8.2012  -17.4134   24.1291 N.ar    1  UNL1       -0.3106
      2 C          -6.9666  -17.5623   23.2902 C.ar    1  UNL1        0.1215
      3 N          -5.8860  -16.7214   23.9026 N.ar    1  UNL1       -0.2309
      4 C          -6.4527  -16.0527   25.1198 C.ar    1  UNL1        0.0983
      5 C          -5.8506  -15.1096   26.1188 C.ar    1  UNL1        0.0206
      6 C          -6.6794  -14.5942   27.2578 C.ar    1  UNL1        0.0016
      7 C          -8.1103  -15.0219   27.3978 C.ar    1  UNL1        0.0016
      8 C          -8.7124  -15.9650   26.3988 C.ar    1  UNL1        0.0188
      9 C          -7.8836  -16.4804   25.2598 C.ar    1  UNL1        0.0789
     10 C          -6.8357  -18.4044   22.0558 C.3     1  UNL1        0.0729
     11 C          -8.0452  -18.7049   21.2211 C.3     1  UNL1        0.0103
     12 C          -7.9143  -19.5469   19.9867 C.3     1  UNL1        0.0178
     13 C          -6.5738  -20.0886   19.5870 C.3     1  UNL1        0.0725
     14 N          -5.3643  -19.7881   20.4217 N.3     1  UNL1       -0.2645
     15 C          -5.4953  -18.9460   21.6561 C.3     1  UNL1        0.0800
     16 C          -4.0238  -20.3298   20.0220 C.3     1  UNL1        0.1587
     17 C          -2.8453  -19.4084   19.9114 C.ar    1  UNL1        0.2223
     18 N          -1.7125  -19.3045   20.8892 N.ar    1  UNL1       -0.2092
     19 C          -0.7598  -18.2611   20.3858 C.ar    1  UNL1        0.1424
     20 C          -1.3037  -17.7201   19.0968 C.ar    1  UNL1        0.2018
     21 O          -2.5926  -18.4291   18.8037 O.2     1  UNL1       -0.4338
     22 C          -9.5216  -18.0804   23.8808 C.3     1  UNL1        0.1339
     23 F         -13.3009  -15.8277   19.8013 F       1  UNL1       -0.2042
     24 C         -12.3560  -16.3908   20.8212 C.ar    1  UNL1        0.1401
     25 C         -12.7323  -17.6202   21.5940 C.ar    1  UNL1        0.0294
     26 C         -11.7875  -18.1833   22.6138 C.ar    1  UNL1       -0.0001
     27 C         -10.4664  -17.5172   22.8610 C.ar    1  UNL1        0.0006
     28 C         -10.0902  -16.2879   22.0881 C.ar    1  UNL1       -0.0001
     29 C         -11.0350  -15.7247   21.0683 C.ar    1  UNL1        0.0294
@<TRIPOS>BOND
     1    23    24    1
     2    24    25   ar
     3    25    26   ar
     4    26    27   ar
     5    27    22    1
     6    22     1    1
     7     1     2   ar
     8     2    10    1
     9    10    11    1
    10    11    12    1
    11    12    13    1
    12    13    14    1
    13    14    16    1
    14    16    17    1
    15    17    18   ar
    16    18    19   ar
    17    19    20   ar
    18    20    21   ar
    19    14    15    1
    20     2     3   ar
    21     3     4   ar
    22     4     5   ar
    23     5     6   ar
    24     6     7   ar
    25     7     8   ar
    26     8     9   ar
    27    27    28   ar
    28    28    29   ar
    29    29    24   ar
    30     9     1   ar
    31    15    10    1
    32     9     4   ar
    33    21    17   ar
@<TRIPOS>MOLECULE
*****
 29 33 0 0 0
SMALL
GASTEIGER

@<TRIPOS>ATOM
      1 N          -7.6267  -17.6985   22.8222 N.ar    1  UNL1       -0.3106
      2 C          -6.1842  -18.0639   22.6335 C.ar    1  UNL1        0.1215
      3 N          -5.3785  -17.3110   23.6504 N.ar    1  UNL1       -0.2309
      4 C          -6.3232  -16.4803   24.4676 C.ar    1  UNL1        0.0983
      5 C          -6.0976  -15.5367   25.6116 C.ar    1  UNL1        0.0206
      6 C          -7.2615  -14.8327   26.2437 C.ar    1  UNL1        0.0016
      7 C          -8.6510  -15.0723   25.7318 C.ar    1  UNL1        0.0016
      8 C          -8.8765  -16.0158   24.5878 C.ar    1  UNL1        0.0188
      9 C          -7.7126  -16.7198   23.9557 C.ar    1  UNL1        0.0789
     10 C          -5.6424  -19.0151   21.6081 C.3     1  UNL1        0.0729
     11 C          -6.2657  -20.3687   21.4373 C.3     1  UNL1        0.0103
     12 C          -5.7239  -21.3200   20.4118 C.3     1  UNL1        0.0178
     13 C          -4.5588  -20.9176   19.5571 C.3     1  UNL1        0.0725
     14 N          -3.9355  -19.5640   19.7279 N.3     1  UNL1       -0.2645
     15 C          -4.4773  -18.6128   20.7533 C.3     1  UNL1        0.0800
     16 C          -2.7703  -19.1616   18.8731 C.3     1  UNL1        0.1587
     17 C          -1.6769  -18.3107   19.4480 C.ar    1  UNL1        0.2223
     18 N          -0.2344  -18.6999   19.5809 N.ar    1  UNL1       -0.2092
     19 C           0.5000  -17.5510   20.2060 C.ar    1  UNL1        0.1424
     20 C          -0.4887  -16.4517   20.4594 C.ar    1  UNL1        0.2018
     21 O          -1.8341  -16.9213   19.9909 O.2     1  UNL1       -0.4338
     22 C          -8.7807  -18.2203   22.0185 C.3     1  UNL1        0.1339
     23 F         -14.3383  -18.0235   24.2712 F       1  UNL1       -0.2042
     24 C         -12.9489  -18.0727   23.7081 C.ar    1  UNL1        0.1401
     25 C         -12.5845  -17.2126   22.5344 C.ar    1  UNL1        0.0294
     26 C         -11.1951  -17.2618   21.9713 C.ar    1  UNL1       -0.0001
     27 C         -10.1701  -18.1711   22.5817 C.ar    1  UNL1        0.0006
     28 C         -10.5345  -19.0312   23.7553 C.ar    1  UNL1       -0.0001
     29 C         -11.9239  -18.9820   24.3185 C.ar    1  UNL1        0.0294
@<TRIPOS>BOND
     1    23    24    1
     2    24    25   ar
     3    25    26   ar
     4    26    27   ar
     5    27    22    1
     6    22     1    1
     7     1     2   ar
     8     2    10    1
     9    10    11    1
    10    11    12    1
    11    12    13    1
    12    13    14    1
    13    14    16    1
    14    16    17    1
    15    17    18   ar
    16    18    19   ar
    17    19    20   ar
    18    20    21   ar
    19    14    15    1
    20     2     3   ar
    21     3     4   ar
    22     4     5   ar
    23     5     6   ar
    24     6     7   ar
    25     7     8   ar
    26     8     9   ar
    27    27    28   ar
    28    28    29   ar
    29    29    24   ar
    30     9     1   ar
    31    15    10    1
    32     9     4   ar
    33    21    17   ar
@<TRIPOS>MOLECULE
*****
 29 33 0 0 0
SMALL
GASTEIGER

@<TRIPOS>ATOM
      1 N          -9.2703  -18.3397   22.1399 N.ar    1  UNL1       -0.3106
      2 C          -8.6979  -18.7513   20.8159 C.ar    1  UNL1        0.1215
      3 N          -9.5688  -18.1795   19.7367 N.ar    1  UNL1       -0.2309
      4 C         -10.6793  -17.4146   20.3937 C.ar    1  UNL1        0.0983
      5 C         -11.8347  -16.6408   19.8314 C.ar    1  UNL1        0.0206
      6 C         -12.8056  -15.9660   20.7544 C.ar    1  UNL1        0.0016
      7 C         -12.6211  -16.0649   22.2397 C.ar    1  UNL1        0.0016
      8 C         -11.4657  -16.8388   22.8020 C.ar    1  UNL1        0.0188
      9 C         -10.4948  -17.5136   21.8790 C.ar    1  UNL1        0.0789
     10 C          -7.4703  -19.5877   20.6077 C.3     1  UNL1        0.0729
     11 C          -7.5133  -20.7645   19.6786 C.3     1  UNL1        0.0103
     12 C          -6.2857  -21.6009   19.4704 C.3     1  UNL1        0.0178
     13 C          -5.0151  -21.2605   20.1912 C.3     1  UNL1        0.0725
     14 N          -4.9721  -20.0837   21.1203 N.3     1  UNL1       -0.2645
     15 C          -6.1997  -19.2473   21.3285 C.3     1  UNL1        0.0800
     16 C          -3.7014  -19.7432   21.8411 C.3     1  UNL1        0.1587
     17 C          -3.2813  -18.3104   21.9845 C.ar    1  UNL1        0.2223
     18 N          -3.8596  -17.3139   22.9450 N.ar    1  UNL1       -0.2092
     19 C          -3.1448  -16.0102   22.7467 C.ar    1  UNL1        0.1424
     20 C          -2.1248  -16.2009   21.6636 C.ar    1  UNL1        0.2018
     21 O          -2.2092  -17.6225   21.1925 O.2     1  UNL1       -0.4338
     22 C          -8.7155  -18.6923   23.4882 C.3     1  UNL1        0.1339
     23 F          -8.3042  -14.4940   27.7549 F       1  UNL1       -0.2042
     24 C          -8.4070  -15.5435   26.6882 C.ar    1  UNL1        0.1401
     25 C          -8.9113  -16.9141   27.0308 C.ar    1  UNL1        0.0294
     26 C          -9.0141  -17.9636   25.9641 C.ar    1  UNL1       -0.0001
     27 C          -8.6126  -17.6427   24.5548 C.ar    1  UNL1        0.0006
     28 C          -8.1083  -16.2722   24.2124 C.ar    1  UNL1       -0.0001
     29 C          -8.0055  -15.2226   25.2791 C.ar    1  UNL1        0.0294
@<TRIPOS>BOND
     1    23    24    1
     2    24    25   ar
     3    25    26   ar
     4    26    27   ar
     5    27    22    1
     6    22     1    1
     7     1     2   ar
     8     2    10    1
     9    10    11    1
    10    11    12    1
    11    12    13    1
    12    13    14    1
    13    14    16    1
    14    16    17    1
    15    17    18   ar
    16    18    19   ar
    17    19    20   ar
    18    20    21   ar
    19    14    15    1
    20     2     3   ar
    21     3     4   ar
    22     4     5   ar
    23     5     6   ar
    24     6     7   ar
    25     7     8   ar
    26     8     9   ar
    27    27    28   ar
    28    28    29   ar
    29    29    24   ar
    30     9     1   ar
    31    15    10    1
    32     9     4   ar
    33    21    17   ar
@<TRIPOS>MOLECULE
*****
 29 33 0 0 0
SMALL
GASTEIGER

@<TRIPOS>ATOM
      1 N          -6.6928  -16.1235   23.8327 N.ar    1  UNL1       -0.3106
      2 C          -5.2254  -16.3554   24.0401 C.ar    1  UNL1        0.1215
      3 N          -4.9093  -16.0673   25.4778 N.ar    1  UNL1       -0.2309
      4 C          -6.1813  -15.6573   26.1590 C.ar    1  UNL1        0.0983
      5 C          -6.4782  -15.2569   27.5737 C.ar    1  UNL1        0.0206
      6 C          -7.8774  -14.8912   27.9716 C.ar    1  UNL1        0.0016
      7 C          -8.9797  -14.9259   26.9549 C.ar    1  UNL1        0.0016
      8 C          -8.6828  -15.3263   25.5402 C.ar    1  UNL1        0.0188
      9 C          -7.2836  -15.6920   25.1422 C.ar    1  UNL1        0.0789
     10 C          -4.2461  -16.7977   22.9935 C.3     1  UNL1        0.0729
     11 C          -3.0169  -15.9815   22.7238 C.3     1  UNL1        0.0103
     12 C          -2.0376  -16.4239   21.6772 C.3     1  UNL1        0.0178
     13 C          -2.2876  -17.6824   20.9003 C.3     1  UNL1        0.0725
     14 N          -3.5168  -18.4985   21.1700 N.3     1  UNL1       -0.2645
     15 C          -4.4961  -18.0562   22.2166 C.3     1  UNL1        0.0800
     16 C          -3.7668  -19.7571   20.3931 C.3     1  UNL1        0.1587
     17 C          -5.1710  -20.1673   20.0613 C.ar    1  UNL1        0.2223
     18 N          -6.3132  -19.2413   19.7644 N.ar    1  UNL1       -0.2092
     19 C          -7.5276  -20.0771   19.4878 C.ar    1  UNL1        0.1424
     20 C          -7.1361  -21.5196   19.6138 C.ar    1  UNL1        0.2018
     21 O          -5.6796  -21.5753   19.9682 O.2     1  UNL1       -0.4338
     22 C          -7.4386  -16.2932   22.5423 C.3     1  UNL1        0.1339
     23 F         -11.3630  -20.7880   21.9138 F       1  UNL1       -0.2042
     24 C         -10.3819  -19.6643   22.0709 C.ar    1  UNL1        0.1401
     25 C         -10.6881  -18.3149   21.4918 C.ar    1  UNL1        0.0294
     26 C          -9.7069  -17.1912   21.6490 C.ar    1  UNL1       -0.0001
     27 C          -8.4196  -17.4169   22.3852 C.ar    1  UNL1        0.0006
     28 C          -8.1135  -18.7663   22.9643 C.ar    1  UNL1       -0.0001
     29 C          -9.0946  -19.8900   22.8071 C.ar    1  UNL1        0.0294
@<TRIPOS>BOND
     1    23    24    1
     2    24    25   ar
     3    25    26   ar
     4    26    27   ar
     5    27    22    1
     6    22     1    1
     7     1     2   ar
     8     2    10    1
     9    10    11    1
    10    11    12    1
    11    12    13    1
    12    13    14    1
    13    14    16    1
    14    16    17    1
    15    17    18   ar
    16    18    19   ar
    17    19    20   ar
    18    20    21   ar
    19    14    15    1
    20     2     3   ar
    21     3     4   ar
    22     4     5   ar
    23     5     6   ar
    24     6     7   ar
    25     7     8   ar
    26     8     9   ar
    27    27    28   ar
    28    28    29   ar
    29    29    24   ar
    30     9     1   ar
    31    15    10    1
    32     9     4   ar
    33    21    17   ar
@<TRIPOS>MOLECULE
*****
 29 33 0 0 0
SMALL
GASTEIGER

@<TRIPOS>ATOM
      1 N           1.4709    4.8302   35.7886 N.ar    1  UNL1       -0.3106
      2 C           1.7988    4.2808   34.4319 C.ar    1  UNL1        0.1215
      3 N           0.8194    4.8537   33.4508 N.ar    1  UNL1       -0.2309
      4 C          -0.1138    5.7572   34.2011 C.ar    1  UNL1        0.0983
      5 C          -1.2781    6.5911   33.7553 C.ar    1  UNL1        0.0206
      6 C          -2.0398    7.4106   34.7544 C.ar    1  UNL1        0.0016
      7 C          -1.6372    7.3960   36.1993 C.ar    1  UNL1        0.0016
      8 C          -0.4729    6.5621   36.6451 C.ar    1  UNL1        0.0188
      9 C           0.2888    5.7426   35.6460 C.ar    1  UNL1        0.0789
     10 C           2.9108    3.3262   34.1125 C.3     1  UNL1        0.0729
     11 C           4.3303    3.6964   34.4257 C.3     1  UNL1        0.0103
     12 C           5.4423    2.7418   34.1062 C.3     1  UNL1        0.0178
     13 C           5.1349    1.4169   33.4735 C.3     1  UNL1        0.0725
     14 N           3.7155    1.0467   33.1603 N.3     1  UNL1       -0.2645
     15 C           2.6034    2.0014   33.4798 C.3     1  UNL1        0.0800
     16 C           3.4080   -0.2781   32.5276 C.3     1  UNL1        0.1587
     17 C           2.9627   -0.3406   31.0966 C.ar    1  UNL1        0.2223
     18 N           3.8144   -0.7286   29.9244 N.ar    1  UNL1       -0.2092
     19 C           2.9657   -0.6538   28.6898 C.ar    1  UNL1        0.1424
     20 C           1.5895   -0.2195   29.0991 C.ar    1  UNL1        0.2018
     21 O           1.5877   -0.0259   30.5865 O.2     1  UNL1       -0.4338
     22 C           2.1974    4.5214   37.0641 C.3     1  UNL1        0.1339
     23 F           1.1422   -0.6346   39.9454 F       1  UNL1       -0.2042
     24 C           1.4060    0.6544   39.2251 C.ar    1  UNL1        0.1401
     25 C           2.6253    0.7958   38.3629 C.ar    1  UNL1        0.0294
     26 C           2.8891    2.0848   37.6426 C.ar    1  UNL1       -0.0001
     27 C           1.9336    3.2325   37.7844 C.ar    1  UNL1        0.0006
     28 C           0.7143    3.0910   38.6465 C.ar    1  UNL1       -0.0001
     29 C           0.4505    1.8020   39.3669 C.ar    1  UNL1        0.0294
@<TRIPOS>BOND
     1    23    24    1
     2    24    25   ar
     3    25    26   ar
     4    26    27   ar
     5    27    22    1
     6    22     1    1
     7     1     2   ar
     8     2    10    1
     9    10    11    1
    10    11    12    1
    11    12    13    1
    12    13    14    1
    13    14    16    1
    14    16    17    1
    15    17    18   ar
    16    18    19   ar
    17    19    20   ar
    18    20    21   ar
    19    14    15    1
    20     2     3   ar
    21     3     4   ar
    22     4     5   ar
    23     5     6   ar
    24     6     7   ar
    25     7     8   ar
    26     8     9   ar
    27    27    28   ar
    28    28    29   ar
    29    29    24   ar
    30     9     1   ar
    31    15    10    1
    32     9     4   ar
    33    21    17   ar
