@<TRIPOS>MOLECULE
*****
 39 43 0 0 0
SMALL
GASTEIGER

@<TRIPOS>ATOM
      1 C           0.2688    5.8244   20.4370 C.3     1  UNL1        0.0666
      2 S           0.0468    4.6936   21.3972 S.3     1  UNL1       -0.0756
      3 C           1.2296    1.2234   20.1227 C.ar    1  UNL1        0.1680
      4 N          -0.2301    0.9656   20.3528 N.ar    1  UNL1       -0.1282
      5 N          -0.8508    2.2342   20.8582 N.ar    1  UNL1       -0.1221
      6 C           0.2253    3.2760   20.9405 C.ar    1  UNL1        0.1932
      7 N           1.5110    2.6514   20.4859 N.ar    1  UNL1       -0.2884
      8 C           2.8441    3.3346   20.4083 C.3     1  UNL1        0.1340
      9 C           2.5423   -0.6830   22.0312 C.3     1  UNL1        0.0522
     10 C           2.8882   -0.7251   20.5722 C.ar    1  UNL1        0.0624
     11 N           3.8905   -1.7205   20.0676 N.ar    1  UNL1       -0.2450
     12 C           4.2364   -1.7627   18.6086 C.ar    1  UNL1        0.1338
     13 C           3.5801   -0.8095   17.6543 C.ar    1  UNL1        0.0238
     14 C           2.5778    0.1859   18.1590 C.ar    1  UNL1        0.0059
     15 C           2.2319    0.2280   19.6179 C.ar    1  UNL1        0.0495
     16 C           5.2387   -2.7580   18.1039 C.2     1  UNL1        0.2605
     17 N           4.9870   -4.2271   18.2724 N.am    1  UNL1       -0.3241
     18 O           6.4926   -2.2843   17.4307 O.2     1  UNL1       -0.2687
     19 H           4.1641   -4.5381   18.7142 H       1  UNL1        0.1453
     20 H           5.6449   -4.8804   17.9411 H       1  UNL1        0.1453
     21 C          -0.8057    6.2009   19.4604 C.3     1  UNL1        0.0294
     22 C          -1.1355    5.2859   18.3184 C.3     1  UNL1        0.0730
     23 N          -2.4989    4.6681   18.2220 N.3     1  UNL1       -0.2726
     24 C          -3.1425    4.1428   16.9731 C.3     1  UNL1        0.0721
     25 C          -4.4995    3.6173   17.3368 C.3     1  UNL1        0.0190
     26 C          -4.6946    3.8178   18.8105 C.3     1  UNL1        0.0201
     27 C          -6.0710    3.2243   18.8686 C.3     1  UNL1        0.0061
     28 C          -5.4274    3.7497   20.1175 C.3     1  UNL1        0.0237
     29 C          -3.4582    4.4673   19.3576 C.3     1  UNL1        0.0724
     30 C          -5.4789    4.0137   21.5932 C.ar    1  UNL1       -0.0225
     31 C          -6.1809    5.2331   22.1129 C.ar    1  UNL1       -0.0043
     32 C          -6.2324    5.4971   23.5886 C.ar    1  UNL1        0.0035
     33 C          -5.5818    4.5416   24.5446 C.ar    1  UNL1        0.0714
     34 C          -4.8798    3.3222   24.0248 C.ar    1  UNL1        0.0035
     35 C          -4.8283    3.0582   22.5492 C.ar    1  UNL1       -0.0043
     36 C          -5.6333    4.8056   26.0202 C.3     1  UNL1        0.4186
     37 F          -5.6847    5.0696   27.4960 F       1  UNL1       -0.1659
     38 F          -6.7933    5.7338   25.8137 F       1  UNL1       -0.1659
     39 F          -4.4732    3.8774   26.2267 F       1  UNL1       -0.1659
@<TRIPOS>BOND
     1     9    10    1
     2    10    11   ar
     3    11    12   ar
     4    12    16    1
     5    16    17   am
     6    16    18    2
     7    12    13   ar
     8    13    14   ar
     9    14    15   ar
    10    15     3    1
    11     3     4   ar
    12     4     5   ar
    13     5     6   ar
    14     6     2    1
    15     2     1    1
    16     1    21    1
    17    21    22    1
    18    22    23    1
    19    23    24    1
    20    24    25    1
    21    26    25    1
    22    26    27    1
    23    27    28    1
    24    28    30    1
    25    30    31   ar
    26    31    32   ar
    27    32    33   ar
    28    33    36    1
    29    36    37    1
    30    36    38    1
    31    36    39    1
    32    33    34   ar
    33    34    35   ar
    34    26    29    1
    35     6     7   ar
    36     7     8    1
    37    15    10   ar
    38     7     3   ar
    39    29    23    1
    40    28    26    1
    41    35    30   ar
    42    17    19    1
    43    17    20    1
@<TRIPOS>MOLECULE
*****
 39 43 0 0 0
SMALL
GASTEIGER

@<TRIPOS>ATOM
      1 C           0.7271    2.2463   18.3991 C.3     1  UNL1        0.0666
      2 S           1.0021    0.9819   19.1578 S.3     1  UNL1       -0.0756
      3 C           4.1316   -1.3123   19.0665 C.ar    1  UNL1        0.1680
      4 N           4.0599   -0.8627   17.6372 N.ar    1  UNL1       -0.1282
      5 N           2.8789    0.0514   17.4975 N.ar    1  UNL1       -0.1221
      6 C           2.2206    0.1668   18.8404 C.ar    1  UNL1        0.1932
      7 N           2.9948   -0.6759   19.8101 N.ar    1  UNL1       -0.2884
      8 C           2.6864   -0.8516   21.2675 C.3     1  UNL1        0.1340
      9 C           3.5458   -4.2441   19.3134 C.3     1  UNL1        0.0522
     10 C           4.8667   -3.7018   19.7732 C.ar    1  UNL1        0.0624
     11 N           5.8946   -4.6256   20.3564 N.ar    1  UNL1       -0.2450
     12 C           7.2154   -4.0833   20.8162 C.ar    1  UNL1        0.1338
     13 C           7.5083   -2.6174   20.6928 C.ar    1  UNL1        0.0238
     14 C           6.4804   -1.6937   20.1095 C.ar    1  UNL1        0.0059
     15 C           5.1596   -2.2360   19.6497 C.ar    1  UNL1        0.0495
     16 C           8.2433   -5.0070   21.3994 C.2     1  UNL1        0.2605
     17 N           9.5356   -5.2439   20.6756 N.am    1  UNL1       -0.3241
     18 O           7.9790   -5.6938   22.7065 O.2     1  UNL1       -0.2687
     19 H           9.7090   -4.7932   19.8177 H       1  UNL1        0.1453
     20 H          10.2102   -5.8502   21.0584 H       1  UNL1        0.1453
     21 C          -0.2356    3.2567   18.9490 C.3     1  UNL1        0.0294
     22 C          -1.0587    4.0941   18.0156 C.3     1  UNL1        0.0730
     23 N          -2.5490    3.9283   17.9758 N.3     1  UNL1       -0.2726
     24 C          -3.3815    3.7309   16.7437 C.3     1  UNL1        0.0721
     25 C          -4.8154    3.6114   17.1675 C.3     1  UNL1        0.0190
     26 C          -4.8691    3.7349   18.6615 C.3     1  UNL1        0.0201
     27 C          -6.3568    3.5829   18.7781 C.3     1  UNL1        0.0061
     28 C          -5.5243    3.7803   20.0101 C.3     1  UNL1        0.0237
     29 C          -3.4683    3.9308   19.1610 C.3     1  UNL1        0.0724
     30 C          -5.4219    3.9205   21.5000 C.ar    1  UNL1       -0.0225
     31 C          -6.4248    4.7498   22.2460 C.ar    1  UNL1       -0.0043
     32 C          -6.3224    4.8900   23.7359 C.ar    1  UNL1        0.0035
     33 C          -5.2170    4.2010   24.4798 C.ar    1  UNL1        0.0714
     34 C          -4.2141    3.3717   23.7338 C.ar    1  UNL1        0.0035
     35 C          -4.3165    3.2315   22.2439 C.ar    1  UNL1       -0.0043
     36 C          -5.1146    4.3412   25.9697 C.3     1  UNL1        0.4186
     37 F          -5.0122    4.4813   27.4597 F       1  UNL1       -0.1659
     38 F          -6.4187    5.0821   25.9896 F       1  UNL1       -0.1659
     39 F          -3.8106    3.6002   25.9498 F       1  UNL1       -0.1659
@<TRIPOS>BOND
     1     9    10    1
     2    10    11   ar
     3    11    12   ar
     4    12    16    1
     5    16    17   am
     6    16    18    2
     7    12    13   ar
     8    13    14   ar
     9    14    15   ar
    10    15     3    1
    11     3     4   ar
    12     4     5   ar
    13     5     6   ar
    14     6     2    1
    15     2     1    1
    16     1    21    1
    17    21    22    1
    18    22    23    1
    19    23    24    1
    20    24    25    1
    21    26    25    1
    22    26    27    1
    23    27    28    1
    24    28    30    1
    25    30    31   ar
    26    31    32   ar
    27    32    33   ar
    28    33    36    1
    29    36    37    1
    30    36    38    1
    31    36    39    1
    32    33    34   ar
    33    34    35   ar
    34    26    29    1
    35     6     7   ar
    36     7     8    1
    37    15    10   ar
    38     7     3   ar
    39    29    23    1
    40    28    26    1
    41    35    30   ar
    42    17    19    1
    43    17    20    1
@<TRIPOS>MOLECULE
*****
 39 43 0 0 0
SMALL
GASTEIGER

@<TRIPOS>ATOM
      1 C           3.9023   -0.1508   26.4130 C.3     1  UNL1        0.0666
      2 S           4.3107   -1.0262   27.5604 S.3     1  UNL1       -0.0756
      3 C           3.4185   -0.4096   31.2873 C.ar    1  UNL1        0.1680
      4 N           2.0583   -0.6380   30.6975 N.ar    1  UNL1       -0.1282
      5 N           2.2270   -0.8968   29.2296 N.ar    1  UNL1       -0.1221
      6 C           3.6914   -0.8283   28.9122 C.ar    1  UNL1        0.1932
      7 N           4.4278   -0.5273   30.1838 N.ar    1  UNL1       -0.2884
      8 C           5.9128   -0.3712   30.3270 C.3     1  UNL1        0.1340
      9 C           4.5787   -2.5455   33.0455 C.3     1  UNL1        0.0522
     10 C           4.2970   -1.1833   33.6066 C.ar    1  UNL1        0.0624
     11 N           4.5954   -0.8890   35.0469 N.ar    1  UNL1       -0.2450
     12 C           4.3137    0.4732   35.6080 C.ar    1  UNL1        0.1338
     13 C           3.7336    1.5413   34.7289 C.ar    1  UNL1        0.0238
     14 C           3.4352    1.2470   33.2886 C.ar    1  UNL1        0.0059
     15 C           3.7169   -0.1153   32.7275 C.ar    1  UNL1        0.0495
     16 C           4.6121    0.7676   37.0483 C.2     1  UNL1        0.2605
     17 N           3.5465    0.5834   38.0878 N.am    1  UNL1       -0.3241
     18 O           5.9761    1.2461   37.4490 O.2     1  UNL1       -0.2687
     19 H           2.6513    0.2694   37.8248 H       1  UNL1        0.1453
     20 H           3.7424    0.7766   39.0331 H       1  UNL1        0.1453
     21 C           3.7627   -0.7333   25.0377 C.3     1  UNL1        0.0294
     22 C           4.4645   -2.0127   24.6903 C.3     1  UNL1        0.0730
     23 N           4.4439   -2.5200   23.2789 N.3     1  UNL1       -0.2726
     24 C           5.1327   -3.7537   22.7753 C.3     1  UNL1        0.0721
     25 C           4.8453   -3.8789   21.3084 C.3     1  UNL1        0.0190
     26 C           3.9790   -2.7225   20.9054 C.3     1  UNL1        0.0201
     27 C           3.8679   -3.1062   19.4596 C.3     1  UNL1        0.0061
     28 C           3.1792   -1.8725   19.9632 C.3     1  UNL1        0.0237
     29 C           3.7309   -1.8827   22.1232 C.3     1  UNL1        0.0724
     30 C           2.3198   -0.6695   19.7099 C.ar    1  UNL1       -0.0225
     31 C           1.0231   -0.5057   20.4460 C.ar    1  UNL1       -0.0043
     32 C           0.1637    0.6973   20.1928 C.ar    1  UNL1        0.0035
     33 C           0.6010    1.7365   19.2035 C.ar    1  UNL1        0.0714
     34 C           1.8977    1.5728   18.4674 C.ar    1  UNL1        0.0035
     35 C           2.7571    0.3698   18.7206 C.ar    1  UNL1       -0.0043
     36 C          -0.2584    2.9395   18.9503 C.3     1  UNL1        0.4186
     37 F          -1.1179    4.1426   18.6971 F       1  UNL1       -0.1659
     38 F          -0.0500    2.7776   17.4737 F       1  UNL1       -0.1659
     39 F          -0.4669    3.1015   20.4269 F       1  UNL1       -0.1659
@<TRIPOS>BOND
     1     9    10    1
     2    10    11   ar
     3    11    12   ar
     4    12    16    1
     5    16    17   am
     6    16    18    2
     7    12    13   ar
     8    13    14   ar
     9    14    15   ar
    10    15     3    1
    11     3     4   ar
    12     4     5   ar
    13     5     6   ar
    14     6     2    1
    15     2     1    1
    16     1    21    1
    17    21    22    1
    18    22    23    1
    19    23    24    1
    20    24    25    1
    21    26    25    1
    22    26    27    1
    23    27    28    1
    24    28    30    1
    25    30    31   ar
    26    31    32   ar
    27    32    33   ar
    28    33    36    1
    29    36    37    1
    30    36    38    1
    31    36    39    1
    32    33    34   ar
    33    34    35   ar
    34    26    29    1
    35     6     7   ar
    36     7     8    1
    37    15    10   ar
    38     7     3   ar
    39    29    23    1
    40    28    26    1
    41    35    30   ar
    42    17    19    1
    43    17    20    1
@<TRIPOS>MOLECULE
*****
 39 43 0 0 0
SMALL
GASTEIGER

@<TRIPOS>ATOM
      1 C           7.3526   -1.8937   18.8796 C.3     1  UNL1        0.0666
      2 S           8.1882   -2.7097   19.8208 S.3     1  UNL1       -0.0756
      3 C           7.1532   -4.4790   23.1169 C.ar    1  UNL1        0.1680
      4 N           5.9230   -4.6785   22.2821 N.ar    1  UNL1       -0.1282
      5 N           6.1610   -4.0400   20.9458 N.ar    1  UNL1       -0.1221
      6 C           7.5383   -3.4459   20.9547 C.ar    1  UNL1        0.1932
      7 N           8.1516   -3.7172   22.2964 N.ar    1  UNL1       -0.2884
      8 C           9.5224   -3.3000   22.7399 C.3     1  UNL1        0.1340
      9 C           8.5042   -7.1075   23.6326 C.3     1  UNL1        0.0522
     10 C           8.0260   -6.2716   24.7827 C.ar    1  UNL1        0.0624
     11 N           8.2233   -6.7500   26.1906 N.ar    1  UNL1       -0.2450
     12 C           7.7451   -5.9141   27.3406 C.ar    1  UNL1        0.1338
     13 C           7.0696   -4.5998   27.0828 C.ar    1  UNL1        0.0238
     14 C           6.8723   -4.1214   25.6749 C.ar    1  UNL1        0.0059
     15 C           7.3505   -4.9573   24.5248 C.ar    1  UNL1        0.0495
     16 C           7.9424   -6.3924   28.7486 C.2     1  UNL1        0.2605
     17 N           8.9993   -7.4123   29.0530 N.am    1  UNL1       -0.3241
     18 O           7.0827   -5.8508   29.8520 O.2     1  UNL1       -0.2687
     19 H           9.5635   -7.7677   28.3288 H       1  UNL1        0.1453
     20 H           9.1288   -7.7262   29.9771 H       1  UNL1        0.1453
     21 C           7.4227   -0.3959   18.9208 C.3     1  UNL1        0.0294
     22 C           6.3529    0.4235   18.2619 C.3     1  UNL1        0.0730
     23 N           4.9086    0.1533   18.5635 N.3     1  UNL1       -0.2726
     24 C           3.7858    0.1500   17.5688 C.3     1  UNL1        0.0721
     25 C           2.5169   -0.1664   18.3034 C.3     1  UNL1        0.0190
     26 C           2.8553   -0.3587   19.7520 C.3     1  UNL1        0.0201
     27 C           1.4544   -0.6475   20.2034 C.3     1  UNL1        0.0061
     28 C           2.5771   -0.6442   21.1981 C.3     1  UNL1        0.0237
     29 C           4.3336   -0.1611   19.9128 C.3     1  UNL1        0.0724
     30 C           3.0647   -0.8071   22.6072 C.ar    1  UNL1       -0.0225
     31 C           2.5478    0.0946   23.6887 C.ar    1  UNL1       -0.0043
     32 C           3.0354   -0.0683   25.0979 C.ar    1  UNL1        0.0035
     33 C           4.0400   -1.1330   25.4255 C.ar    1  UNL1        0.0714
     34 C           4.5570   -2.0347   24.3439 C.ar    1  UNL1        0.0035
     35 C           4.0693   -1.8718   22.9348 C.ar    1  UNL1       -0.0043
     36 C           4.5276   -1.2959   26.8346 C.3     1  UNL1        0.4186
     37 F           5.0153   -1.4589   28.2438 F       1  UNL1       -0.1659
     38 F           3.1371   -1.6453   27.2754 F       1  UNL1       -0.1659
     39 F           5.9182   -0.9465   26.3938 F       1  UNL1       -0.1659
@<TRIPOS>BOND
     1     9    10    1
     2    10    11   ar
     3    11    12   ar
     4    12    16    1
     5    16    17   am
     6    16    18    2
     7    12    13   ar
     8    13    14   ar
     9    14    15   ar
    10    15     3    1
    11     3     4   ar
    12     4     5   ar
    13     5     6   ar
    14     6     2    1
    15     2     1    1
    16     1    21    1
    17    21    22    1
    18    22    23    1
    19    23    24    1
    20    24    25    1
    21    26    25    1
    22    26    27    1
    23    27    28    1
    24    28    30    1
    25    30    31   ar
    26    31    32   ar
    27    32    33   ar
    28    33    36    1
    29    36    37    1
    30    36    38    1
    31    36    39    1
    32    33    34   ar
    33    34    35   ar
    34    26    29    1
    35     6     7   ar
    36     7     8    1
    37    15    10   ar
    38     7     3   ar
    39    29    23    1
    40    28    26    1
    41    35    30   ar
    42    17    19    1
    43    17    20    1
@<TRIPOS>MOLECULE
*****
 39 43 0 0 0
SMALL
GASTEIGER

@<TRIPOS>ATOM
      1 C           8.0863   -3.5016   20.8908 C.3     1  UNL1        0.0666
      2 S           6.7461   -3.9393   21.4027 S.3     1  UNL1       -0.0756
      3 C           3.6427   -2.1780   19.8754 C.ar    1  UNL1        0.1680
      4 N           3.5033   -3.5580   19.3041 N.ar    1  UNL1       -0.1282
      5 N           4.6488   -4.3857   19.8067 N.ar    1  UNL1       -0.1221
      6 C           5.4963   -3.5173   20.6886 C.ar    1  UNL1        0.1932
      7 N           4.8745   -2.1529   20.7311 N.ar    1  UNL1       -0.2884
      8 C           5.3934   -0.9709   21.4951 C.3     1  UNL1        0.1340
      9 C           4.1304   -0.3155   17.5747 C.3     1  UNL1        0.0522
     10 C           2.9574   -0.0943   18.4831 C.ar    1  UNL1        0.0624
     11 N           2.0283    1.0582   18.2411 N.ar    1  UNL1       -0.2450
     12 C           0.8554    1.2794   19.1495 C.ar    1  UNL1        0.1338
     13 C           0.6114    0.3481   20.2999 C.ar    1  UNL1        0.0238
     14 C           1.5406   -0.8043   20.5419 C.ar    1  UNL1        0.0059
     15 C           2.7135   -1.0255   19.6334 C.ar    1  UNL1        0.0495
     16 C          -0.0738    2.4318   18.9076 C.2     1  UNL1        0.2605
     17 N          -0.2784    2.9508   17.5152 N.am    1  UNL1       -0.3241
     18 O          -0.7984    3.0654   20.0581 O.2     1  UNL1       -0.2687
     19 H           0.1972    2.5350   16.7601 H       1  UNL1        0.1453
     20 H          -0.8882    3.7072   17.3564 H       1  UNL1        0.1453
     21 C           9.3310   -3.8546   21.6500 C.3     1  UNL1        0.0294
     22 C           9.2930   -3.9588   23.1459 C.3     1  UNL1        0.0730
     23 N           8.8508   -5.2353   23.7978 N.3     1  UNL1       -0.2726
     24 C           8.8520   -6.5951   23.1647 C.3     1  UNL1        0.0721
     25 C           8.3318   -7.5762   24.1730 C.3     1  UNL1        0.0190
     26 C           8.0091   -6.8228   25.4293 C.3     1  UNL1        0.0201
     27 C           7.5357   -8.0136   26.2090 C.3     1  UNL1        0.0061
     28 C           7.5345   -6.6538   26.8422 C.3     1  UNL1        0.0237
     29 C           8.3299   -5.3760   25.1974 C.3     1  UNL1        0.0724
     30 C           7.2598   -5.7711   28.0234 C.ar    1  UNL1       -0.0225
     31 C           6.6154   -4.4312   27.8247 C.ar    1  UNL1       -0.0043
     32 C           6.3407   -3.5485   29.0059 C.ar    1  UNL1        0.0035
     33 C           6.7105   -4.0056   30.3859 C.ar    1  UNL1        0.0714
     34 C           7.3549   -5.3455   30.5846 C.ar    1  UNL1        0.0035
     35 C           7.6296   -6.2282   29.4034 C.ar    1  UNL1       -0.0043
     36 C           6.4358   -3.1229   31.5671 C.3     1  UNL1        0.4186
     37 F           6.1611   -2.2402   32.7484 F       1  UNL1       -0.1659
     38 F           6.4061   -1.9249   30.6650 F       1  UNL1       -0.1659
     39 F           6.4655   -4.3209   32.4693 F       1  UNL1       -0.1659
@<TRIPOS>BOND
     1     9    10    1
     2    10    11   ar
     3    11    12   ar
     4    12    16    1
     5    16    17   am
     6    16    18    2
     7    12    13   ar
     8    13    14   ar
     9    14    15   ar
    10    15     3    1
    11     3     4   ar
    12     4     5   ar
    13     5     6   ar
    14     6     2    1
    15     2     1    1
    16     1    21    1
    17    21    22    1
    18    22    23    1
    19    23    24    1
    20    24    25    1
    21    26    25    1
    22    26    27    1
    23    27    28    1
    24    28    30    1
    25    30    31   ar
    26    31    32   ar
    27    32    33   ar
    28    33    36    1
    29    36    37    1
    30    36    38    1
    31    36    39    1
    32    33    34   ar
    33    34    35   ar
    34    26    29    1
    35     6     7   ar
    36     7     8    1
    37    15    10   ar
    38     7     3   ar
    39    29    23    1
    40    28    26    1
    41    35    30   ar
    42    17    19    1
    43    17    20    1
@<TRIPOS>MOLECULE
*****
 39 43 0 0 0
SMALL
GASTEIGER

@<TRIPOS>ATOM
      1 C           9.0835   -3.0598   25.5899 C.3     1  UNL1        0.0666
      2 S           9.0454   -3.0994   24.0910 S.3     1  UNL1       -0.0756
      3 C           5.6431   -2.8775   22.2359 C.ar    1  UNL1        0.1680
      4 N           5.8247   -4.3635   22.3318 N.ar    1  UNL1       -0.1282
      5 N           7.1213   -4.6274   23.0384 N.ar    1  UNL1       -0.1221
      6 C           7.7411   -3.3046   23.3792 C.ar    1  UNL1        0.1932
      7 N           6.8276   -2.2232   22.8832 N.ar    1  UNL1       -0.2884
      8 C           7.0580   -0.7466   23.0120 C.3     1  UNL1        0.1340
      9 C           5.2133   -3.0520   19.2720 C.3     1  UNL1        0.0522
     10 C           4.2663   -2.2575   20.1217 C.ar    1  UNL1        0.0624
     11 N           3.1044   -1.5502   19.4894 N.ar    1  UNL1       -0.2450
     12 C           2.1575   -0.7557   20.3391 C.ar    1  UNL1        0.1338
     13 C           2.3724   -0.6684   21.8211 C.ar    1  UNL1        0.0238
     14 C           3.5343   -1.3757   22.4534 C.ar    1  UNL1        0.0059
     15 C           4.4812   -2.1702   21.6036 C.ar    1  UNL1        0.0495
     16 C           0.9956   -0.0484   19.7069 C.2     1  UNL1        0.2605
     17 N          -0.2574    0.1897   20.4965 N.am    1  UNL1       -0.3241
     18 O           1.0866    0.4208   18.2851 O.2     1  UNL1       -0.2687
     19 H          -0.3171   -0.1183   21.4297 H       1  UNL1        0.1453
     20 H          -1.0200    0.6539   20.0815 H       1  UNL1        0.1453
     21 C           8.0496   -2.2792   26.3461 C.3     1  UNL1        0.0294
     22 C           6.8345   -2.9721   26.8879 C.3     1  UNL1        0.0730
     23 N           6.9650   -3.9234   28.0403 N.3     1  UNL1       -0.2726
     24 C           7.3559   -5.3688   27.9506 C.3     1  UNL1        0.0721
     25 C           7.3599   -5.9349   29.3396 C.3     1  UNL1        0.0190
     26 C           6.9714   -4.8394   30.2878 C.3     1  UNL1        0.0201
     27 C           7.0605   -5.6709   31.5331 C.3     1  UNL1        0.0061
     28 C           6.6696   -4.2255   31.6228 C.3     1  UNL1        0.0237
     29 C           6.7274   -3.5962   29.4848 C.3     1  UNL1        0.0724
     30 C           6.2697   -3.0366   32.4453 C.ar    1  UNL1       -0.0225
     31 C           4.8706   -2.9276   32.9752 C.ar    1  UNL1       -0.0043
     32 C           4.4707   -1.7387   33.7977 C.ar    1  UNL1        0.0035
     33 C           5.4698   -0.6588   34.0903 C.ar    1  UNL1        0.0714
     34 C           6.8689   -0.7679   33.5605 C.ar    1  UNL1        0.0035
     35 C           7.2688   -1.9568   32.7380 C.ar    1  UNL1       -0.0043
     36 C           5.0699    0.5301   34.9128 C.3     1  UNL1        0.4186
     37 F           4.6700    1.7190   35.7354 F       1  UNL1       -0.1659
     38 F           3.7612    0.5949   34.1828 F       1  UNL1       -0.1659
     39 F           6.3787    0.4653   35.6429 F       1  UNL1       -0.1659
@<TRIPOS>BOND
     1     9    10    1
     2    10    11   ar
     3    11    12   ar
     4    12    16    1
     5    16    17   am
     6    16    18    2
     7    12    13   ar
     8    13    14   ar
     9    14    15   ar
    10    15     3    1
    11     3     4   ar
    12     4     5   ar
    13     5     6   ar
    14     6     2    1
    15     2     1    1
    16     1    21    1
    17    21    22    1
    18    22    23    1
    19    23    24    1
    20    24    25    1
    21    26    25    1
    22    26    27    1
    23    27    28    1
    24    28    30    1
    25    30    31   ar
    26    31    32   ar
    27    32    33   ar
    28    33    36    1
    29    36    37    1
    30    36    38    1
    31    36    39    1
    32    33    34   ar
    33    34    35   ar
    34    26    29    1
    35     6     7   ar
    36     7     8    1
    37    15    10   ar
    38     7     3   ar
    39    29    23    1
    40    28    26    1
    41    35    30   ar
    42    17    19    1
    43    17    20    1
@<TRIPOS>MOLECULE
*****
 39 43 0 0 0
SMALL
GASTEIGER

@<TRIPOS>ATOM
      1 C           7.0755   -5.3979   25.8825 C.3     1  UNL1        0.0666
      2 S           8.2464   -5.1919   24.9680 S.3     1  UNL1       -0.0756
      3 C           7.3781   -4.1795   21.3229 C.ar    1  UNL1        0.1680
      4 N           8.0111   -5.5223   21.1079 N.ar    1  UNL1       -0.1282
      5 N           8.4135   -6.0650   22.4472 N.ar    1  UNL1       -0.1221
      6 C           8.0291   -5.0576   23.4900 C.ar    1  UNL1        0.1932
      7 N           7.3892   -3.8923   22.7952 N.ar    1  UNL1       -0.2884
      8 C           6.8543   -2.6568   23.4565 C.3     1  UNL1        0.1340
      9 C           4.4810   -4.3477   20.5622 C.3     1  UNL1        0.0522
     10 C           5.3816   -3.3658   19.8732 C.ar    1  UNL1        0.0624
     11 N           4.8336   -2.4679   18.8038 N.ar    1  UNL1       -0.2450
     12 C           5.7342   -1.4860   18.1148 C.ar    1  UNL1        0.1338
     13 C           7.1828   -1.4019   18.4951 C.ar    1  UNL1        0.0238
     14 C           7.7307   -2.2997   19.5645 C.ar    1  UNL1        0.0059
     15 C           6.8301   -3.2817   20.2535 C.ar    1  UNL1        0.0495
     16 C           5.1862   -0.5881   17.0454 C.2     1  UNL1        0.2605
     17 N           5.8976    0.6862   16.6988 N.am    1  UNL1       -0.3241
     18 O           3.9270   -0.9645   16.3226 O.2     1  UNL1       -0.2687
     19 H           6.7241    0.9333   17.1732 H       1  UNL1        0.1453
     20 H           5.5380    1.2755   15.9969 H       1  UNL1        0.1453
     21 C           6.9214   -4.5458   27.1074 C.3     1  UNL1        0.0294
     22 C           7.0713   -3.0566   27.0089 C.3     1  UNL1        0.0730
     23 N           5.9228   -2.1617   27.3694 N.3     1  UNL1       -0.2726
     24 C           5.5499   -1.7200   28.7535 C.3     1  UNL1        0.0721
     25 C           4.3421   -0.8367   28.6486 C.3     1  UNL1        0.0190
     26 C           3.9686   -0.7324   27.1996 C.3     1  UNL1        0.0201
     27 C           2.7873    0.1685   27.4066 C.3     1  UNL1        0.0061
     28 C           3.1602   -0.2732   26.0225 C.3     1  UNL1        0.0237
     29 C           4.9455   -1.5513   26.4090 C.3     1  UNL1        0.0724
     30 C           2.9087   -0.2630   24.5437 C.ar    1  UNL1       -0.0225
     31 C           2.0073    0.7748   23.9433 C.ar    1  UNL1       -0.0043
     32 C           1.7559    0.7849   22.4646 C.ar    1  UNL1        0.0035
     33 C           2.4059   -0.2427   21.5863 C.ar    1  UNL1        0.0714
     34 C           3.3073   -1.2805   22.1867 C.ar    1  UNL1        0.0035
     35 C           3.5587   -1.2906   23.6654 C.ar    1  UNL1       -0.0043
     36 C           2.1545   -0.2325   20.1076 C.3     1  UNL1        0.4186
     37 F           1.9031   -0.2224   18.6287 F       1  UNL1       -0.1659
     38 F           0.7785   -0.7835   20.3377 F       1  UNL1       -0.1659
     39 F           3.5305    0.3185   19.8774 F       1  UNL1       -0.1659
@<TRIPOS>BOND
     1     9    10    1
     2    10    11   ar
     3    11    12   ar
     4    12    16    1
     5    16    17   am
     6    16    18    2
     7    12    13   ar
     8    13    14   ar
     9    14    15   ar
    10    15     3    1
    11     3     4   ar
    12     4     5   ar
    13     5     6   ar
    14     6     2    1
    15     2     1    1
    16     1    21    1
    17    21    22    1
    18    22    23    1
    19    23    24    1
    20    24    25    1
    21    26    25    1
    22    26    27    1
    23    27    28    1
    24    28    30    1
    25    30    31   ar
    26    31    32   ar
    27    32    33   ar
    28    33    36    1
    29    36    37    1
    30    36    38    1
    31    36    39    1
    32    33    34   ar
    33    34    35   ar
    34    26    29    1
    35     6     7   ar
    36     7     8    1
    37    15    10   ar
    38     7     3   ar
    39    29    23    1
    40    28    26    1
    41    35    30   ar
    42    17    19    1
    43    17    20    1
@<TRIPOS>MOLECULE
*****
 39 43 0 0 0
SMALL
GASTEIGER

@<TRIPOS>ATOM
      1 C           8.5152   -3.6810   21.3515 C.3     1  UNL1        0.0666
      2 S           9.2993   -4.7454   22.0601 S.3     1  UNL1       -0.0756
      3 C           8.0521   -5.7026   25.6089 C.ar    1  UNL1        0.1680
      4 N           7.7796   -6.9700   24.8542 N.ar    1  UNL1       -0.1282
      5 N           8.2137   -6.7657   23.4329 N.ar    1  UNL1       -0.1221
      6 C           8.7544   -5.3720   23.3093 C.ar    1  UNL1        0.1932
      7 N           8.6546   -4.7150   24.6540 N.ar    1  UNL1       -0.2884
      8 C           9.0821   -3.3160   24.9857 C.3     1  UNL1        0.1340
      9 C           9.5092   -7.2890   27.6969 C.3     1  UNL1        0.0522
     10 C           8.5000   -6.2579   28.1070 C.ar    1  UNL1        0.0624
     11 N           8.2193   -6.0200   29.5612 N.ar    1  UNL1       -0.2450
     12 C           7.2101   -4.9889   29.9713 C.ar    1  UNL1        0.1338
     13 C           6.4814   -4.1956   28.9273 C.ar    1  UNL1        0.0238
     14 C           6.7621   -4.4336   27.4731 C.ar    1  UNL1        0.0059
     15 C           7.7714   -5.4647   27.0630 C.ar    1  UNL1        0.0495
     16 C           6.9294   -4.7509   31.4255 C.2     1  UNL1        0.2605
     17 N           6.6416   -5.9098   32.3332 N.am    1  UNL1       -0.3241
     18 O           6.9364   -3.3540   31.9719 O.2     1  UNL1       -0.2687
     19 H           6.6369   -6.8267   31.9746 H       1  UNL1        0.1453
     20 H           6.4573   -5.7536   33.2877 H       1  UNL1        0.1453
     21 C           8.7213   -3.4493   19.8839 C.3     1  UNL1        0.0294
     22 C           8.0777   -2.2723   19.2127 C.3     1  UNL1        0.0730
     23 N           6.5852   -2.1232   19.2291 N.3     1  UNL1       -0.2726
     24 C           5.6855   -2.1277   18.0289 C.3     1  UNL1        0.0721
     25 C           4.2747   -1.9506   18.5067 C.3     1  UNL1        0.0190
     26 C           4.3025   -1.8367   20.0021 C.3     1  UNL1        0.0201
     27 C           2.8211   -1.6765   20.1748 C.3     1  UNL1        0.0061
     28 C           3.7209   -1.6719   21.3749 C.3     1  UNL1        0.0237
     29 C           5.7305   -1.9433   20.4486 C.3     1  UNL1        0.0724
     30 C           3.9046   -1.5742   22.8604 C.ar    1  UNL1       -0.0225
     31 C           3.0881   -0.5981   23.6545 C.ar    1  UNL1       -0.0043
     32 C           3.2718   -0.5004   25.1400 C.ar    1  UNL1        0.0035
     33 C           4.2720   -1.3788   25.8314 C.ar    1  UNL1        0.0714
     34 C           5.0885   -2.3549   25.0373 C.ar    1  UNL1        0.0035
     35 C           4.9048   -2.4526   23.5518 C.ar    1  UNL1       -0.0043
     36 C           4.4557   -1.2810   27.3168 C.3     1  UNL1        0.4186
     37 F           4.6394   -1.1833   28.8024 F       1  UNL1       -0.1659
     38 F           5.9051   -0.9511   27.1159 F       1  UNL1       -0.1659
     39 F           3.0063   -1.6110   27.5178 F       1  UNL1       -0.1659
@<TRIPOS>BOND
     1     9    10    1
     2    10    11   ar
     3    11    12   ar
     4    12    16    1
     5    16    17   am
     6    16    18    2
     7    12    13   ar
     8    13    14   ar
     9    14    15   ar
    10    15     3    1
    11     3     4   ar
    12     4     5   ar
    13     5     6   ar
    14     6     2    1
    15     2     1    1
    16     1    21    1
    17    21    22    1
    18    22    23    1
    19    23    24    1
    20    24    25    1
    21    26    25    1
    22    26    27    1
    23    27    28    1
    24    28    30    1
    25    30    31   ar
    26    31    32   ar
    27    32    33   ar
    28    33    36    1
    29    36    37    1
    30    36    38    1
    31    36    39    1
    32    33    34   ar
    33    34    35   ar
    34    26    29    1
    35     6     7   ar
    36     7     8    1
    37    15    10   ar
    38     7     3   ar
    39    29    23    1
    40    28    26    1
    41    35    30   ar
    42    17    19    1
    43    17    20    1
@<TRIPOS>MOLECULE
*****
 39 43 0 0 0
SMALL
GASTEIGER

@<TRIPOS>ATOM
      1 C           6.5292   -3.5301   30.0479 C.3     1  UNL1        0.0666
      2 S           6.9100   -3.6667   31.4923 S.3     1  UNL1       -0.0756
      3 C           6.1053   -0.7886   33.9692 C.ar    1  UNL1        0.1680
      4 N           7.5212   -0.4628   33.5962 N.ar    1  UNL1       -0.1282
      5 N           7.9950   -1.5012   32.6230 N.ar    1  UNL1       -0.1221
      6 C           6.8719   -2.4689   32.3945 C.ar    1  UNL1        0.1932
      7 N           5.7040   -2.0286   33.2264 N.ar    1  UNL1       -0.2884
      8 C           4.3692   -2.7087   33.3023 C.3     1  UNL1        0.1340
      9 C           4.0451    1.1155   32.9064 C.3     1  UNL1        0.0522
     10 C           4.2121    0.9409   34.3868 C.ar    1  UNL1        0.0624
     11 N           3.3490    1.7185   35.3358 N.ar    1  UNL1       -0.2450
     12 C           3.5161    1.5439   36.8162 C.ar    1  UNL1        0.1338
     13 C           4.5462    0.5917   37.3477 C.ar    1  UNL1        0.0238
     14 C           5.4093   -0.1858   36.3986 C.ar    1  UNL1        0.0059
     15 C           5.2422   -0.0111   34.9182 C.ar    1  UNL1        0.0495
     16 C           2.6530    2.3213   37.7652 C.2     1  UNL1        0.2605
     17 N           1.6618    3.3147   37.2354 N.am    1  UNL1       -0.3241
     18 O           2.7812    2.1055   39.2441 O.2     1  UNL1       -0.2687
     19 H           1.5777    3.4564   36.2648 H       1  UNL1        0.1453
     20 H           1.0954    3.8250   37.8583 H       1  UNL1        0.1453
     21 C           7.1606   -2.4631   29.2035 C.3     1  UNL1        0.0294
     22 C           6.9091   -2.4297   27.7252 C.3     1  UNL1        0.0730
     23 N           5.7965   -1.5890   27.1724 N.3     1  UNL1       -0.2726
     24 C           5.0818   -0.4862   27.8956 C.3     1  UNL1        0.0721
     25 C           4.0470    0.0808   26.9696 C.3     1  UNL1        0.0190
     26 C           4.1221   -0.6716   25.6741 C.3     1  UNL1        0.0201
     27 C           3.0235    0.0858   24.9889 C.3     1  UNL1        0.0061
     28 C           3.7382   -1.0170   24.2657 C.3     1  UNL1        0.0237
     29 C           5.2034   -1.7036   25.7994 C.3     1  UNL1        0.0724
     30 C           3.9292   -1.8531   23.0352 C.ar    1  UNL1       -0.0225
     31 C           4.6610   -3.1596   23.1222 C.ar    1  UNL1       -0.0043
     32 C           4.8520   -3.9957   21.8917 C.ar    1  UNL1        0.0035
     33 C           4.3112   -3.5254   20.5740 C.ar    1  UNL1        0.0714
     34 C           3.5793   -2.2189   20.4869 C.ar    1  UNL1        0.0035
     35 C           3.3883   -1.3828   21.7175 C.ar    1  UNL1       -0.0043
     36 C           4.5022   -4.3615   19.3434 C.3     1  UNL1        0.4186
     37 F           4.6932   -5.1977   18.1127 F       1  UNL1       -0.1659
     38 F           3.5168   -5.3622   19.8704 F       1  UNL1       -0.1659
     39 F           5.4875   -3.3609   18.8164 F       1  UNL1       -0.1659
@<TRIPOS>BOND
     1     9    10    1
     2    10    11   ar
     3    11    12   ar
     4    12    16    1
     5    16    17   am
     6    16    18    2
     7    12    13   ar
     8    13    14   ar
     9    14    15   ar
    10    15     3    1
    11     3     4   ar
    12     4     5   ar
    13     5     6   ar
    14     6     2    1
    15     2     1    1
    16     1    21    1
    17    21    22    1
    18    22    23    1
    19    23    24    1
    20    24    25    1
    21    26    25    1
    22    26    27    1
    23    27    28    1
    24    28    30    1
    25    30    31   ar
    26    31    32   ar
    27    32    33   ar
    28    33    36    1
    29    36    37    1
    30    36    38    1
    31    36    39    1
    32    33    34   ar
    33    34    35   ar
    34    26    29    1
    35     6     7   ar
    36     7     8    1
    37    15    10   ar
    38     7     3   ar
    39    29    23    1
    40    28    26    1
    41    35    30   ar
    42    17    19    1
    43    17    20    1
