@<TRIPOS>MOLECULE
*****
 28 31 0 0 0
SMALL
GASTEIGER

@<TRIPOS>ATOM
      1 C          -7.1993  -17.0230   23.5768 C.ar    1  UNL1        0.0985
      2 C          -6.1354  -17.6808   22.7488 C.ar    1  UNL1        0.1003
      3 N          -4.8211  -17.0447   23.0922 N.ar    1  UNL1       -0.2239
      4 C          -5.0727  -15.9937   24.1325 C.ar    1  UNL1        0.1786
      5 N          -6.5424  -15.9802   24.4320 N.ar    1  UNL1       -0.3052
      6 C         -12.0704  -16.8732   21.4150 C.ar    1  UNL1        0.1713
      7 C         -13.3487  -17.4724   21.9217 C.ar    1  UNL1        0.1302
      8 N         -13.0519  -18.1720   23.2149 N.ar    1  UNL1       -0.2227
      9 C         -11.5902  -18.0052   23.5074 C.ar    1  UNL1        0.1647
     10 C         -10.7332  -18.4805   24.6430 C.ar    1  UNL1        0.0405
     11 C          -9.2696  -18.1531   24.6661 C.ar    1  UNL1        0.0255
     12 C          -8.6630  -17.3504   23.5536 C.ar    1  UNL1        0.1187
     13 N          -9.5199  -16.8750   22.4181 N.ar    1  UNL1       -0.1616
     14 N         -10.9836  -17.2024   22.3950 N.ar    1  UNL1       -0.2010
     15 N         -11.7444  -15.2934   18.8855 N.1     1  UNL1       -0.1892
     16 C         -11.9074  -16.0833   20.1502 C.1     1  UNL1        0.1215
     17 C          -6.3485  -18.7816   21.7524 C.ar    1  UNL1        0.0202
     18 C          -5.3967  -19.9396   21.6990 C.ar    1  UNL1        0.0039
     19 C          -5.6097  -21.0403   20.7025 C.ar    1  UNL1        0.0306
     20 C          -6.7747  -20.9831   19.7594 C.ar    1  UNL1        0.1506
     21 F          -6.9878  -22.0838   18.7629 F       1  UNL1       -0.2033
     22 C          -7.7267  -19.8250   19.8127 C.ar    1  UNL1        0.0851
     23 CL         -8.8916  -19.7677   18.8696 Cl      1  UNL1       -0.0799
     24 C          -7.5135  -18.7243   20.8092 C.ar    1  UNL1        0.0152
     25 C          -7.2339  -15.0818   25.4141 C.3     1  UNL1        0.1393
     26 C          -7.2232  -15.4190   26.8756 C.3     1  UNL1        0.1616
     27 O          -8.3813  -16.1524   27.4848 O.3     1  UNL1       -0.3799
     28 H          -9.1718  -15.5912   27.4535 H       1  UNL1        0.2105
@<TRIPOS>BOND
     1    15    16    3
     2    16     6    1
     3     6     7   ar
     4     7     8   ar
     5     8     9   ar
     6     9    10   ar
     7    10    11   ar
     8    11    12   ar
     9    12     1    1
    10     1     2   ar
    11     2    17    1
    12    17    18   ar
    13    18    19   ar
    14    19    20   ar
    15    20    21    1
    16    20    22   ar
    17    22    23    1
    18    22    24   ar
    19     2     3   ar
    20     3     4   ar
    21     4     5   ar
    22     5    25    1
    23    25    26    1
    24    26    27    1
    25    12    13   ar
    26    13    14   ar
    27    14     6   ar
    28    14     9   ar
    29     5     1   ar
    30    24    17   ar
    31    27    28    1
@<TRIPOS>MOLECULE
*****
 28 31 0 0 0
SMALL
GASTEIGER

@<TRIPOS>ATOM
      1 C          -4.8539  -19.1765   21.4233 C.ar    1  UNL1        0.0985
      2 C          -5.8720  -19.9802   20.6700 C.ar    1  UNL1        0.1003
      3 N          -5.1395  -20.9634   19.8058 N.ar    1  UNL1       -0.2239
      4 C          -3.6686  -20.7674   20.0252 C.ar    1  UNL1        0.1786
      5 N          -3.4921  -19.6630   21.0248 N.ar    1  UNL1       -0.3052
      6 C          -8.1336  -15.8720   24.0209 C.ar    1  UNL1        0.1713
      7 C          -7.8058  -14.8255   25.0443 C.ar    1  UNL1        0.1302
      8 N          -6.3208  -14.8330   25.2557 N.ar    1  UNL1       -0.2227
      9 C          -5.7308  -15.8841   24.3628 C.ar    1  UNL1        0.1647
     10 C          -4.3181  -16.3394   24.1461 C.ar    1  UNL1        0.0405
     11 C          -4.0258  -17.4369   23.1663 C.ar    1  UNL1        0.0255
     12 C          -5.1462  -18.0790   22.4032 C.ar    1  UNL1        0.1187
     13 N          -6.5589  -17.6237   22.6199 N.ar    1  UNL1       -0.1616
     14 N          -6.8512  -16.5262   23.5997 N.ar    1  UNL1       -0.2010
     15 N         -10.8731  -16.5394   22.9963 N.1     1  UNL1       -0.1892
     16 C          -9.5033  -16.2057   23.5086 C.1     1  UNL1        0.1215
     17 C          -7.3612  -19.8274   20.7642 C.ar    1  UNL1        0.0202
     18 C          -8.1600  -19.4937   19.5392 C.ar    1  UNL1        0.0039
     19 C          -9.6492  -19.3410   19.6335 C.ar    1  UNL1        0.0306
     20 C         -10.3397  -19.5220   20.9527 C.ar    1  UNL1        0.1506
     21 F         -11.8290  -19.3693   21.0470 F       1  UNL1       -0.2033
     22 C          -9.5410  -19.8557   22.1778 C.ar    1  UNL1        0.0851
     23 CL        -10.2315  -20.0367   23.4970 Cl      1  UNL1       -0.0799
     24 C          -8.0518  -20.0084   22.0835 C.ar    1  UNL1        0.0152
     25 C          -2.1835  -19.1375   21.5361 C.3     1  UNL1        0.1393
     26 C          -1.3377  -18.2559   20.6659 C.3     1  UNL1        0.1616
     27 O          -0.2279  -18.8497   19.8500 O.3     1  UNL1       -0.3799
     28 H           0.4570  -19.1990   20.4414 H       1  UNL1        0.2105
@<TRIPOS>BOND
     1    15    16    3
     2    16     6    1
     3     6     7   ar
     4     7     8   ar
     5     8     9   ar
     6     9    10   ar
     7    10    11   ar
     8    11    12   ar
     9    12     1    1
    10     1     2   ar
    11     2    17    1
    12    17    18   ar
    13    18    19   ar
    14    19    20   ar
    15    20    21    1
    16    20    22   ar
    17    22    23    1
    18    22    24   ar
    19     2     3   ar
    20     3     4   ar
    21     4     5   ar
    22     5    25    1
    23    25    26    1
    24    26    27    1
    25    12    13   ar
    26    13    14   ar
    27    14     6   ar
    28    14     9   ar
    29     5     1   ar
    30    24    17   ar
    31    27    28    1
@<TRIPOS>MOLECULE
*****
 28 31 0 0 0
SMALL
GASTEIGER

@<TRIPOS>ATOM
      1 C          -6.6204  -16.6924   23.5852 C.ar    1  UNL1        0.0985
      2 C          -5.1855  -16.3000   23.7778 C.ar    1  UNL1        0.1003
      3 N          -5.1121  -15.3752   24.9565 N.ar    1  UNL1       -0.2239
      4 C          -6.5016  -15.1961   25.4924 C.ar    1  UNL1        0.1786
      5 N          -7.4338  -16.0102   24.6449 N.ar    1  UNL1       -0.3052
      6 C         -10.2884  -18.2381   20.0383 C.ar    1  UNL1        0.1713
      7 C         -10.2677  -19.4148   19.1082 C.ar    1  UNL1        0.1302
      8 N          -8.9809  -20.1544   19.3252 N.ar    1  UNL1       -0.2227
      9 C          -8.2063  -19.4348   20.3893 C.ar    1  UNL1        0.1647
     10 C          -6.8696  -19.7051   21.0138 C.ar    1  UNL1        0.0405
     11 C          -6.3410  -18.7909   22.0791 C.ar    1  UNL1        0.0255
     12 C          -7.1491  -17.6066   22.5198 C.ar    1  UNL1        0.1187
     13 N          -8.4858  -17.3363   21.8953 N.ar    1  UNL1       -0.1616
     14 N          -9.0145  -18.2505   20.8300 N.ar    1  UNL1       -0.2010
     15 N         -12.4912  -16.2151   20.2737 N.1     1  UNL1       -0.1892
     16 C         -11.3898  -17.2266   20.1560 C.1     1  UNL1        0.1215
     17 C          -4.0274  -16.7528   22.9389 C.ar    1  UNL1        0.0202
     18 C          -3.1267  -15.7409   22.2950 C.ar    1  UNL1        0.0039
     19 C          -1.9686  -16.1937   21.4561 C.ar    1  UNL1        0.0306
     20 C          -1.7111  -17.6585   21.2612 C.ar    1  UNL1        0.1506
     21 F          -0.5530  -18.1113   20.4224 F       1  UNL1       -0.2033
     22 C          -2.6118  -18.6706   21.9052 C.ar    1  UNL1        0.0851
     23 CL         -2.3544  -20.1353   21.7103 Cl      1  UNL1       -0.0799
     24 C          -3.7699  -18.2176   22.7440 C.ar    1  UNL1        0.0152
     25 C          -8.9187  -16.1223   24.8254 C.3     1  UNL1        0.1393
     26 C          -9.5314  -17.4390   25.2005 C.3     1  UNL1        0.1616
     27 O         -10.3653  -18.1891   24.2046 O.3     1  UNL1       -0.3799
     28 H         -11.1709  -17.6843   24.0119 H       1  UNL1        0.2105
@<TRIPOS>BOND
     1    15    16    3
     2    16     6    1
     3     6     7   ar
     4     7     8   ar
     5     8     9   ar
     6     9    10   ar
     7    10    11   ar
     8    11    12   ar
     9    12     1    1
    10     1     2   ar
    11     2    17    1
    12    17    18   ar
    13    18    19   ar
    14    19    20   ar
    15    20    21    1
    16    20    22   ar
    17    22    23    1
    18    22    24   ar
    19     2     3   ar
    20     3     4   ar
    21     4     5   ar
    22     5    25    1
    23    25    26    1
    24    26    27    1
    25    12    13   ar
    26    13    14   ar
    27    14     6   ar
    28    14     9   ar
    29     5     1   ar
    30    24    17   ar
    31    27    28    1
@<TRIPOS>MOLECULE
*****
 28 31 0 0 0
SMALL
GASTEIGER

@<TRIPOS>ATOM
      1 C          -8.4545  -18.6546   20.8623 C.ar    1  UNL1        0.0985
      2 C          -9.8727  -19.1163   20.7017 C.ar    1  UNL1        0.1003
      3 N          -9.9248  -20.0560   19.5337 N.ar    1  UNL1       -0.2239
      4 C          -8.5388  -20.1752   18.9725 C.ar    1  UNL1        0.1786
      5 N          -7.6302  -19.3090   19.7936 N.ar    1  UNL1       -0.3052
      6 C          -4.6317  -16.5545   23.9281 C.ar    1  UNL1        0.1713
      7 C          -4.7320  -15.4575   24.9462 C.ar    1  UNL1        0.1302
      8 N          -6.1583  -14.9950   24.9902 N.ar    1  UNL1       -0.2227
      9 C          -6.9394  -15.8063   23.9994 C.ar    1  UNL1        0.1647
     10 C          -8.3879  -15.7919   23.6101 C.ar    1  UNL1        0.0405
     11 C          -8.8929  -16.7413   22.5644 C.ar    1  UNL1        0.0255
     12 C          -7.9494  -17.7051   21.9080 C.ar    1  UNL1        0.1187
     13 N          -6.5009  -17.7196   22.2973 N.ar    1  UNL1       -0.1616
     14 N          -5.9959  -16.7701   23.3430 N.ar    1  UNL1       -0.2010
     15 N          -2.1400  -18.0542   23.1916 N.1     1  UNL1       -0.1892
     16 C          -3.3859  -17.3044   23.5599 C.1     1  UNL1        0.1215
     17 C         -11.0347  -18.7096   21.5586 C.ar    1  UNL1        0.0202
     18 C         -12.1753  -17.9411   20.9600 C.ar    1  UNL1        0.0039
     19 C         -13.3373  -17.5344   21.8169 C.ar    1  UNL1        0.0306
     20 C         -13.3587  -17.8962   23.2725 C.ar    1  UNL1        0.1506
     21 F         -14.5207  -17.4895   24.1294 F       1  UNL1       -0.2033
     22 C         -12.2180  -18.6647   23.8712 C.ar    1  UNL1        0.0851
     23 CL        -12.2394  -19.0265   25.3266 Cl      1  UNL1       -0.0799
     24 C         -11.0561  -19.0714   23.0141 C.ar    1  UNL1        0.0152
     25 C          -6.1560  -19.1290   19.5829 C.3     1  UNL1        0.1393
     26 C          -5.1864  -20.0876   20.2079 C.3     1  UNL1        0.1616
     27 O          -4.1948  -19.5977   21.2212 O.3     1  UNL1       -0.3799
     28 H          -3.5703  -18.9901   20.7949 H       1  UNL1        0.2105
@<TRIPOS>BOND
     1    15    16    3
     2    16     6    1
     3     6     7   ar
     4     7     8   ar
     5     8     9   ar
     6     9    10   ar
     7    10    11   ar
     8    11    12   ar
     9    12     1    1
    10     1     2   ar
    11     2    17    1
    12    17    18   ar
    13    18    19   ar
    14    19    20   ar
    15    20    21    1
    16    20    22   ar
    17    22    23    1
    18    22    24   ar
    19     2     3   ar
    20     3     4   ar
    21     4     5   ar
    22     5    25    1
    23    25    26    1
    24    26    27    1
    25    12    13   ar
    26    13    14   ar
    27    14     6   ar
    28    14     9   ar
    29     5     1   ar
    30    24    17   ar
    31    27    28    1
@<TRIPOS>MOLECULE
*****
 28 31 0 0 0
SMALL
GASTEIGER

@<TRIPOS>ATOM
      1 C          -6.7851  -16.8731   23.7154 C.ar    1  UNL1        0.0985
      2 C          -5.3925  -17.2137   23.2738 C.ar    1  UNL1        0.1003
      3 N          -4.4373  -16.3577   24.0515 N.ar    1  UNL1       -0.2239
      4 C          -5.2394  -15.4881   24.9738 C.ar    1  UNL1        0.1786
      5 N          -6.6904  -15.8067   24.7660 N.ar    1  UNL1       -0.3052
      6 C         -10.9716  -17.0799   20.4209 C.ar    1  UNL1        0.1713
      7 C         -12.0824  -18.0864   20.3654 C.ar    1  UNL1        0.1302
      8 N         -11.8404  -19.1035   21.4410 N.ar    1  UNL1       -0.2227
      9 C         -10.5801  -18.7256   22.1613 C.ar    1  UNL1        0.1647
     10 C          -9.8521  -19.3588   23.3098 C.ar    1  UNL1        0.0405
     11 C          -8.5871  -18.7413   23.8278 C.ar    1  UNL1        0.0255
     12 C          -8.0501  -17.4906   23.1973 C.ar    1  UNL1        0.1187
     13 N          -8.7781  -16.8575   22.0489 N.ar    1  UNL1       -0.1616
     14 N         -10.0431  -17.4750   21.5308 N.ar    1  UNL1       -0.2010
     15 N         -10.6613  -14.6954   18.6270 N.1     1  UNL1       -0.1892
     16 C         -10.8164  -15.8877   19.5240 C.1     1  UNL1        0.1215
     17 C          -5.0206  -18.2315   22.2367 C.ar    1  UNL1        0.0202
     18 C          -5.8986  -19.4262   22.0095 C.ar    1  UNL1        0.0039
     19 C          -5.5267  -20.4440   20.9723 C.ar    1  UNL1        0.0306
     20 C          -4.2767  -20.2671   20.1623 C.ar    1  UNL1        0.1506
     21 F          -3.9047  -21.2849   19.1251 F       1  UNL1       -0.2033
     22 C          -3.3985  -19.0723   20.3894 C.ar    1  UNL1        0.0851
     23 CL         -2.1486  -18.8953   19.5794 Cl      1  UNL1       -0.0799
     24 C          -3.7706  -18.0545   21.4266 C.ar    1  UNL1        0.0152
     25 C          -7.8441  -15.1705   25.4830 C.3     1  UNL1        0.1393
     26 C          -8.1821  -15.5919   26.8823 C.3     1  UNL1        0.1616
     27 O          -8.7057  -16.9730   27.1440 O.3     1  UNL1       -0.3799
     28 H          -9.5771  -17.0723   26.7297 H       1  UNL1        0.2105
@<TRIPOS>BOND
     1    15    16    3
     2    16     6    1
     3     6     7   ar
     4     7     8   ar
     5     8     9   ar
     6     9    10   ar
     7    10    11   ar
     8    11    12   ar
     9    12     1    1
    10     1     2   ar
    11     2    17    1
    12    17    18   ar
    13    18    19   ar
    14    19    20   ar
    15    20    21    1
    16    20    22   ar
    17    22    23    1
    18    22    24   ar
    19     2     3   ar
    20     3     4   ar
    21     4     5   ar
    22     5    25    1
    23    25    26    1
    24    26    27    1
    25    12    13   ar
    26    13    14   ar
    27    14     6   ar
    28    14     9   ar
    29     5     1   ar
    30    24    17   ar
    31    27    28    1
@<TRIPOS>MOLECULE
*****
 28 31 0 0 0
SMALL
GASTEIGER

@<TRIPOS>ATOM
      1 C         -12.3647   -6.0616   18.4681 C.ar    1  UNL1        0.0985
      2 C         -12.8674   -7.3622   17.9151 C.ar    1  UNL1        0.1003
      3 N         -11.6795   -8.1858   17.5148 N.ar    1  UNL1       -0.2239
      4 C         -10.4425   -7.3942   17.8203 C.ar    1  UNL1        0.1786
      5 N         -10.8660   -6.0814   18.4095 N.ar    1  UNL1       -0.3052
      6 C         -14.2334   -1.0698   18.3540 C.ar    1  UNL1        0.1713
      7 C         -15.2138   -0.4058   19.2748 C.ar    1  UNL1        0.1302
      8 N         -15.6298   -1.4085   20.3100 N.ar    1  UNL1       -0.2227
      9 C         -14.9065   -2.6922   20.0289 C.ar    1  UNL1        0.1647
     10 C         -14.9223   -4.0247   20.7175 C.ar    1  UNL1        0.0405
     11 C         -14.0750   -5.1478   20.1972 C.ar    1  UNL1        0.0255
     12 C         -13.2120   -4.9384   18.9884 C.ar    1  UNL1        0.1187
     13 N         -13.1963   -3.6060   18.2997 N.ar    1  UNL1       -0.1616
     14 N         -14.0435   -2.4828   18.8200 N.ar    1  UNL1       -0.2010
     15 N         -12.8885    0.2046   15.9944 N.1     1  UNL1       -0.1892
     16 C         -13.5610   -0.4326   17.1742 C.1     1  UNL1        0.1215
     17 C         -14.3057   -7.7680   17.7854 C.ar    1  UNL1        0.0202
     18 C         -14.8059   -8.9933   18.4912 C.ar    1  UNL1        0.0039
     19 C         -16.2441   -9.3991   18.3614 C.ar    1  UNL1        0.0306
     20 C         -17.1822   -8.5794   17.5257 C.ar    1  UNL1        0.1506
     21 F         -18.6204   -8.9852   17.3959 F       1  UNL1       -0.2033
     22 C         -16.6820   -7.3540   16.8198 C.ar    1  UNL1        0.0851
     23 CL        -17.6199   -6.5344   15.9842 Cl      1  UNL1       -0.0799
     24 C         -15.2437   -6.9483   16.9497 C.ar    1  UNL1        0.0152
     25 C          -9.9514   -4.9815   18.8608 C.3     1  UNL1        0.1393
     26 C          -9.9641   -3.6583   18.1547 C.3     1  UNL1        0.1616
     27 O         -10.3300   -2.4116   18.9043 O.3     1  UNL1       -0.3799
     28 H         -11.2598   -2.4591   19.1766 H       1  UNL1        0.2105
@<TRIPOS>BOND
     1    15    16    3
     2    16     6    1
     3     6     7   ar
     4     7     8   ar
     5     8     9   ar
     6     9    10   ar
     7    10    11   ar
     8    11    12   ar
     9    12     1    1
    10     1     2   ar
    11     2    17    1
    12    17    18   ar
    13    18    19   ar
    14    19    20   ar
    15    20    21    1
    16    20    22   ar
    17    22    23    1
    18    22    24   ar
    19     2     3   ar
    20     3     4   ar
    21     4     5   ar
    22     5    25    1
    23    25    26    1
    24    26    27    1
    25    12    13   ar
    26    13    14   ar
    27    14     6   ar
    28    14     9   ar
    29     5     1   ar
    30    24    17   ar
    31    27    28    1
@<TRIPOS>MOLECULE
*****
 28 31 0 0 0
SMALL
GASTEIGER

@<TRIPOS>ATOM
      1 C          -5.3387  -19.2896   21.2985 C.ar    1  UNL1        0.0985
      2 C          -6.5385  -20.1162   20.9418 C.ar    1  UNL1        0.1003
      3 N          -6.1151  -21.1322   19.9228 N.ar    1  UNL1       -0.2239
      4 C          -4.6536  -20.9335   19.6497 C.ar    1  UNL1        0.1786
      5 N          -4.1738  -19.7947   20.4999 N.ar    1  UNL1       -0.3052
      6 C          -7.6542  -15.5752   24.3424 C.ar    1  UNL1        0.1713
      7 C          -7.0181  -14.5717   25.2581 C.ar    1  UNL1        0.1302
      8 N          -5.5320  -14.7670   25.1989 N.ar    1  UNL1       -0.2227
      9 C          -5.2497  -15.8911   24.2468 C.ar    1  UNL1        0.1647
     10 C          -3.9678  -16.5244   23.7934 C.ar    1  UNL1        0.0405
     11 C          -3.9975  -17.6572   22.8107 C.ar    1  UNL1        0.0255
     12 C          -5.3090  -18.1567   22.2813 C.ar    1  UNL1        0.1187
     13 N          -6.5909  -17.5234   22.7347 N.ar    1  UNL1       -0.1616
     14 N          -6.5613  -16.3906   23.7174 N.ar    1  UNL1       -0.2010
     15 N         -10.5958  -15.8952   23.8479 N.1     1  UNL1       -0.1892
     16 C          -9.1250  -15.7351   24.0952 C.1     1  UNL1        0.1215
     17 C          -7.9192  -19.9551   21.5053 C.ar    1  UNL1        0.0202
     18 C          -8.2170  -20.4115   22.9028 C.ar    1  UNL1        0.0039
     19 C          -9.5978  -20.2504   23.4663 C.ar    1  UNL1        0.0306
     20 C         -10.6809  -19.6329   22.6322 C.ar    1  UNL1        0.1506
     21 F         -12.0617  -19.4719   23.1956 F       1  UNL1       -0.2033
     22 C         -10.3832  -19.1766   21.2346 C.ar    1  UNL1        0.0851
     23 CL        -11.4662  -18.5591   20.4005 Cl      1  UNL1       -0.0799
     24 C          -9.0024  -19.3377   20.6712 C.ar    1  UNL1        0.0152
     25 C          -2.7747  -19.2557   20.5438 C.3     1  UNL1        0.1393
     26 C          -1.8180  -19.7370   21.5940 C.3     1  UNL1        0.1616
     27 O          -0.9488  -18.7558   22.3232 O.3     1  UNL1       -0.3799
     28 H          -0.3201  -18.3566   21.7018 H       1  UNL1        0.2105
@<TRIPOS>BOND
     1    15    16    3
     2    16     6    1
     3     6     7   ar
     4     7     8   ar
     5     8     9   ar
     6     9    10   ar
     7    10    11   ar
     8    11    12   ar
     9    12     1    1
    10     1     2   ar
    11     2    17    1
    12    17    18   ar
    13    18    19   ar
    14    19    20   ar
    15    20    21    1
    16    20    22   ar
    17    22    23    1
    18    22    24   ar
    19     2     3   ar
    20     3     4   ar
    21     4     5   ar
    22     5    25    1
    23    25    26    1
    24    26    27    1
    25    12    13   ar
    26    13    14   ar
    27    14     6   ar
    28    14     9   ar
    29     5     1   ar
    30    24    17   ar
    31    27    28    1
@<TRIPOS>MOLECULE
*****
 28 31 0 0 0
SMALL
GASTEIGER

@<TRIPOS>ATOM
      1 C           6.1362    1.4137   36.3548 C.ar    1  UNL1        0.0985
      2 C           5.5830    2.0257   37.6076 C.ar    1  UNL1        0.1003
      3 N           6.7368    2.5017   38.4396 N.ar    1  UNL1       -0.2239
      4 C           8.0031    2.1838   37.7010 C.ar    1  UNL1        0.1786
      5 N           7.6319    1.5114   36.4126 N.ar    1  UNL1       -0.3052
      6 C           3.1398    1.7062   31.9548 C.ar    1  UNL1        0.1713
      7 C           2.5225    0.5971   31.1557 C.ar    1  UNL1        0.1302
      8 N           2.8878   -0.7032   31.8082 N.ar    1  UNL1       -0.2227
      9 C           3.7309   -0.3977   33.0107 C.ar    1  UNL1        0.1647
     10 C           4.3769   -1.2830   34.0347 C.ar    1  UNL1        0.0405
     11 C           5.1786   -0.6792   35.1494 C.ar    1  UNL1        0.0255
     12 C           5.3344    0.8099   35.2401 C.ar    1  UNL1        0.1187
     13 N           4.6884    1.6953   34.2160 N.ar    1  UNL1       -0.1616
     14 N           3.8867    1.0915   33.1013 N.ar    1  UNL1       -0.2010
     15 N           2.9197    4.6393   31.3641 N.1     1  UNL1       -0.1892
     16 C           3.0297    3.1727   31.6594 C.1     1  UNL1        0.1215
     17 C           4.1310    2.1415   37.9656 C.ar    1  UNL1        0.0202
     18 C           3.3735    3.3922   37.6313 C.ar    1  UNL1        0.0039
     19 C           1.9214    3.5080   37.9892 C.ar    1  UNL1        0.0306
     20 C           1.2268    2.3729   38.6815 C.ar    1  UNL1        0.1506
     21 F          -0.2252    2.4887   39.0394 F       1  UNL1       -0.2033
     22 C           1.9843    1.1221   39.0158 C.ar    1  UNL1        0.0851
     23 CL          1.2898   -0.0129   39.7080 Cl      1  UNL1       -0.0799
     24 C           3.4364    1.0064   38.6578 C.ar    1  UNL1        0.0152
     25 C           8.5885    1.0225   35.3657 C.3     1  UNL1        0.1393
     26 C           9.1155   -0.3805   35.4277 C.3     1  UNL1        0.1616
     27 O           9.3283   -1.0438   36.7561 O.3     1  UNL1       -0.3799
     28 H          10.0337   -0.5841   37.2377 H       1  UNL1        0.2105
@<TRIPOS>BOND
     1    15    16    3
     2    16     6    1
     3     6     7   ar
     4     7     8   ar
     5     8     9   ar
     6     9    10   ar
     7    10    11   ar
     8    11    12   ar
     9    12     1    1
    10     1     2   ar
    11     2    17    1
    12    17    18   ar
    13    18    19   ar
    14    19    20   ar
    15    20    21    1
    16    20    22   ar
    17    22    23    1
    18    22    24   ar
    19     2     3   ar
    20     3     4   ar
    21     4     5   ar
    22     5    25    1
    23    25    26    1
    24    26    27    1
    25    12    13   ar
    26    13    14   ar
    27    14     6   ar
    28    14     9   ar
    29     5     1   ar
    30    24    17   ar
    31    27    28    1
@<TRIPOS>MOLECULE
*****
 28 31 0 0 0
SMALL
GASTEIGER

@<TRIPOS>ATOM
      1 C          -6.3850  -16.2325   24.3647 C.ar    1  UNL1        0.0985
      2 C          -5.1236  -17.0068   24.1205 C.ar    1  UNL1        0.1003
      3 N          -4.2518  -16.8670   25.3331 N.ar    1  UNL1       -0.2239
      4 C          -4.9744  -16.0063   26.3267 C.ar    1  UNL1        0.1786
      5 N          -6.2927  -15.6142   25.7282 N.ar    1  UNL1       -0.3052
      6 C         -11.3594  -17.2640   22.7475 C.ar    1  UNL1        0.1713
      7 C         -12.0762  -16.7759   21.5236 C.ar    1  UNL1        0.1302
      8 N         -11.1366  -15.8925   20.7575 N.ar    1  UNL1       -0.2227
      9 C          -9.8391  -15.8346   21.5080 C.ar    1  UNL1        0.1647
     10 C          -8.5501  -15.1196   21.2304 C.ar    1  UNL1        0.0405
     11 C          -7.3987  -15.2523   22.1826 C.ar    1  UNL1        0.0255
     12 C          -7.5364  -16.0999   23.4124 C.ar    1  UNL1        0.1187
     13 N          -8.8254  -16.8149   23.6901 N.ar    1  UNL1       -0.1616
     14 N          -9.9768  -16.6823   22.7379 N.ar    1  UNL1       -0.2010
     15 N         -12.4920  -19.0842   24.8461 N.1     1  UNL1       -0.1892
     16 C         -11.9257  -18.1740   23.7968 C.1     1  UNL1        0.1215
     17 C          -4.7923  -17.7844   22.8814 C.ar    1  UNL1        0.0202
     18 C          -5.8442  -18.6236   22.2188 C.ar    1  UNL1        0.0039
     19 C          -5.5128  -19.4012   20.9796 C.ar    1  UNL1        0.0306
     20 C          -4.1295  -19.3396   20.4030 C.ar    1  UNL1        0.1506
     21 F          -3.7981  -20.1171   19.1638 F       1  UNL1       -0.2033
     22 C          -3.0774  -18.5003   21.0656 C.ar    1  UNL1        0.0851
     23 CL         -1.6941  -18.4386   20.4890 Cl      1  UNL1       -0.0799
     24 C          -3.4089  -17.7227   22.3047 C.ar    1  UNL1        0.0152
     25 C          -7.3357  -14.7546   26.3789 C.3     1  UNL1        0.1393
     26 C          -8.4357  -15.3864   27.1793 C.3     1  UNL1        0.1616
     27 O          -8.4934  -16.8778   27.3286 O.3     1  UNL1       -0.3799
     28 H          -8.6684  -17.2826   26.4646 H       1  UNL1        0.2105
@<TRIPOS>BOND
     1    15    16    3
     2    16     6    1
     3     6     7   ar
     4     7     8   ar
     5     8     9   ar
     6     9    10   ar
     7    10    11   ar
     8    11    12   ar
     9    12     1    1
    10     1     2   ar
    11     2    17    1
    12    17    18   ar
    13    18    19   ar
    14    19    20   ar
    15    20    21    1
    16    20    22   ar
    17    22    23    1
    18    22    24   ar
    19     2     3   ar
    20     3     4   ar
    21     4     5   ar
    22     5    25    1
    23    25    26    1
    24    26    27    1
    25    12    13   ar
    26    13    14   ar
    27    14     6   ar
    28    14     9   ar
    29     5     1   ar
    30    24    17   ar
    31    27    28    1
