@<TRIPOS>MOLECULE
*****
 29 32 0 0 0
SMALL
GASTEIGER

@<TRIPOS>ATOM
      1 C          -7.2429  -17.8832   22.0376 C.2     1  UNL1        0.3279
      2 N          -5.8868  -18.2691   21.5257 N.2     1  UNL1       -0.0020
      3 C          -4.6550  -17.8302   22.2605 C.2     1  UNL1        0.3351
      4 C          -4.7793  -17.0055   23.5073 C.2     1  UNL1        0.0880
      5 C          -6.1354  -16.6196   24.0192 C.2     1  UNL1        0.0161
      6 C          -6.5676  -15.8192   25.2119 C.2     1  UNL1       -0.0100
      7 C          -5.6602  -15.1859   26.2245 C.3     1  UNL1        0.0320
      8 C          -8.0666  -15.7634   25.2142 C.2     1  UNL1        0.0509
      9 C          -8.9213  -15.0645   26.2296 C.3     1  UNL1        0.0513
     10 N          -8.5608  -16.5293   24.0230 N.2     1  UNL1       -0.2602
     11 C          -7.3672  -17.0585   23.2844 C.3     1  UNL1        0.2298
     12 N          -3.2989  -18.2161   21.7486 N.am    1  UNL1       -0.1223
     13 C          -2.8263  -19.6120   21.4692 C.3     1  UNL1        0.2331
     14 C          -1.4126  -19.5324   20.9742 C.3     1  UNL1        0.1443
     15 N          -1.0114  -18.0873   20.9477 N.am    1  UNL1       -0.2643
     16 C          -2.1772  -17.2738   21.4263 C.2     1  UNL1        0.3956
     17 O          -2.2147  -15.7802   21.5593 O.2     1  UNL1       -0.2236
     18 H          -0.1365  -17.7346   20.6657 H       1  UNL1        0.1532
     19 N          -8.4748  -18.3220   21.3028 N.pl3   1  UNL1       -0.2166
     20 H          -8.6680  -17.9624   20.4069 H       1  UNL1        0.2923
     21 C          -9.4124  -19.3089   21.9330 C.3     1  UNL1        0.2258
     22 C         -11.3756  -17.9555   20.1125 C.3     1  UNL1        0.0308
     23 C         -11.7185  -18.1730   21.5565 C.ar    1  UNL1       -0.0223
     24 C         -13.0430  -17.7139   22.0903 C.ar    1  UNL1       -0.0045
     25 C         -13.3859  -17.9314   23.5342 C.ar    1  UNL1       -0.0007
     26 C         -12.4043  -18.6081   24.4444 C.ar    1  UNL1       -0.0045
     27 C         -11.0798  -19.0673   23.9107 C.ar    1  UNL1       -0.0223
     28 C         -10.0982  -19.7440   24.8210 C.3     1  UNL1        0.0308
     29 C         -10.7369  -18.8497   22.4667 C.ar    1  UNL1        0.0162
@<TRIPOS>BOND
     1    22    23    1
     2    23    24   ar
     3    24    25   ar
     4    25    26   ar
     5    26    27   ar
     6    27    28    1
     7    27    29   ar
     8    29    21    1
     9    21    19    1
    10    19     1    1
    11     1     2    2
    12     2     3    1
    13     3    12    1
    14    12    13    1
    15    13    14    1
    16    14    15    1
    17    15    16   am
    18    16    17    2
    19     3     4    2
    20     4     5    1
    21     5     6    2
    22     6     7    1
    23     6     8    1
    24     8     9    1
    25     8    10    2
    26    10    11    1
    27    29    23   ar
    28    11     1    1
    29    16    12   am
    30    11     5    1
    31    19    20    1
    32    15    18    1
@<TRIPOS>MOLECULE
*****
 29 32 0 0 0
SMALL
GASTEIGER

@<TRIPOS>ATOM
      1 C          -7.2427  -17.8806   22.0353 C.2     1  UNL1        0.3279
      2 N          -5.8861  -18.2668   21.5251 N.2     1  UNL1       -0.0020
      3 C          -4.6551  -17.8294   22.2623 C.2     1  UNL1        0.3351
      4 C          -4.7808  -17.0058   23.5096 C.2     1  UNL1        0.0880
      5 C          -6.1375  -16.6196   24.0198 C.2     1  UNL1        0.0161
      6 C          -6.5711  -15.8202   25.2127 C.2     1  UNL1       -0.0100
      7 C          -5.6648  -15.1884   26.2273 C.3     1  UNL1        0.0320
      8 C          -8.0700  -15.7635   25.2128 C.2     1  UNL1        0.0509
      9 C          -8.9258  -15.0650   26.2276 C.3     1  UNL1        0.0513
     10 N          -8.5628  -16.5279   24.0200 N.2     1  UNL1       -0.2602
     11 C          -7.3684  -17.0570   23.2827 C.3     1  UNL1        0.2298
     12 N          -3.2984  -18.2156   21.7521 N.am    1  UNL1       -0.1223
     13 C          -2.8243  -19.6119   21.4774 C.3     1  UNL1        0.2331
     14 C          -1.4106  -19.5325   20.9825 C.3     1  UNL1        0.1443
     15 N          -1.0108  -18.0870   20.9514 N.am    1  UNL1       -0.2643
     16 C          -2.1776  -17.2732   21.4270 C.2     1  UNL1        0.3956
     17 O          -2.2167  -15.7792   21.5550 O.2     1  UNL1       -0.2236
     18 H          -0.1362  -17.7345   20.6685 H       1  UNL1        0.1532
     19 N          -8.4737  -18.3179   21.2981 N.pl3   1  UNL1       -0.2166
     20 H          -8.6661  -17.9560   20.4030 H       1  UNL1        0.2923
     21 C          -9.4116  -19.3067   21.9248 C.3     1  UNL1        0.2258
     22 C         -10.0826  -19.7214   24.8193 C.3     1  UNL1        0.0308
     23 C         -11.0711  -19.0563   23.9081 C.ar    1  UNL1       -0.0223
     24 C         -12.3952  -18.5985   24.4440 C.ar    1  UNL1       -0.0045
     25 C         -13.3838  -17.9334   23.5328 C.ar    1  UNL1       -0.0007
     26 C         -13.0483  -17.7261   22.0856 C.ar    1  UNL1       -0.0045
     27 C         -11.7242  -18.1839   21.5496 C.ar    1  UNL1       -0.0223
     28 C         -11.3887  -17.9765   20.1024 C.3     1  UNL1        0.0308
     29 C         -10.7356  -18.8490   22.4608 C.ar    1  UNL1        0.0162
@<TRIPOS>BOND
     1    22    23    1
     2    23    24   ar
     3    24    25   ar
     4    25    26   ar
     5    26    27   ar
     6    27    28    1
     7    27    29   ar
     8    29    21    1
     9    21    19    1
    10    19     1    1
    11     1     2    2
    12     2     3    1
    13     3    12    1
    14    12    13    1
    15    13    14    1
    16    14    15    1
    17    15    16   am
    18    16    17    2
    19     3     4    2
    20     4     5    1
    21     5     6    2
    22     6     7    1
    23     6     8    1
    24     8     9    1
    25     8    10    2
    26    10    11    1
    27    29    23   ar
    28    11     1    1
    29    16    12   am
    30    11     5    1
    31    19    20    1
    32    15    18    1
@<TRIPOS>MOLECULE
*****
 29 32 0 0 0
SMALL
GASTEIGER

@<TRIPOS>ATOM
      1 C          -7.9029  -17.7582   21.7215 C.2     1  UNL1        0.3279
      2 N          -8.1399  -17.0361   23.0147 N.2     1  UNL1       -0.0020
      3 C          -7.0075  -16.8288   23.9763 C.2     1  UNL1        0.3351
      4 C          -5.6382  -17.3437   23.6447 C.2     1  UNL1        0.0880
      5 C          -5.4012  -18.0658   22.3516 C.2     1  UNL1        0.0161
      6 C          -4.1694  -18.6809   21.7565 C.2     1  UNL1       -0.0100
      7 C          -2.8059  -18.7045   22.3812 C.3     1  UNL1        0.0320
      8 C          -4.5404  -19.2684   20.4272 C.2     1  UNL1        0.0509
      9 C          -3.6130  -19.9826   19.4891 C.3     1  UNL1        0.0513
     10 N          -6.0016  -19.0164   20.2006 N.2     1  UNL1       -0.2602
     11 C          -6.5336  -18.2731   21.3899 C.3     1  UNL1        0.2298
     12 N          -7.2444  -16.1067   25.2696 N.am    1  UNL1       -0.1223
     13 C          -8.4750  -16.2049   26.1217 C.3     1  UNL1        0.2331
     14 C          -8.2834  -15.3185   27.3164 C.3     1  UNL1        0.1443
     15 N          -6.9344  -14.6724   27.2028 N.am    1  UNL1       -0.2643
     16 C          -6.2923  -15.1595   25.9377 C.2     1  UNL1        0.3956
     17 O          -4.9362  -14.7682   25.4300 O.2     1  UNL1       -0.2236
     18 H          -6.5398  -14.0397   27.8456 H       1  UNL1        0.1532
     19 N          -9.0353  -17.9656   20.7598 N.pl3   1  UNL1       -0.2166
     20 H          -9.0844  -17.4310   19.9345 H       1  UNL1        0.2923
     21 C         -10.0929  -18.9873   21.0556 C.3     1  UNL1        0.2258
     22 C          -9.5682  -20.3655   23.6681 C.3     1  UNL1        0.0308
     23 C         -10.7657  -19.4750   23.5172 C.ar    1  UNL1       -0.0223
     24 C         -11.7010  -19.2736   24.6725 C.ar    1  UNL1       -0.0045
     25 C         -12.8986  -18.3831   24.5216 C.ar    1  UNL1       -0.0007
     26 C         -13.1610  -17.6940   23.2153 C.ar    1  UNL1       -0.0045
     27 C         -12.2258  -17.8954   22.0600 C.ar    1  UNL1       -0.0223
     28 C         -12.4881  -17.2063   20.7537 C.3     1  UNL1        0.0308
     29 C         -11.0281  -18.7859   22.2109 C.ar    1  UNL1        0.0162
@<TRIPOS>BOND
     1    22    23    1
     2    23    24   ar
     3    24    25   ar
     4    25    26   ar
     5    26    27   ar
     6    27    28    1
     7    27    29   ar
     8    29    21    1
     9    21    19    1
    10    19     1    1
    11     1     2    2
    12     2     3    1
    13     3    12    1
    14    12    13    1
    15    13    14    1
    16    14    15    1
    17    15    16   am
    18    16    17    2
    19     3     4    2
    20     4     5    1
    21     5     6    2
    22     6     7    1
    23     6     8    1
    24     8     9    1
    25     8    10    2
    26    10    11    1
    27    29    23   ar
    28    11     1    1
    29    16    12   am
    30    11     5    1
    31    19    20    1
    32    15    18    1
@<TRIPOS>MOLECULE
*****
 29 32 0 0 0
SMALL
GASTEIGER

@<TRIPOS>ATOM
      1 C          -7.5165  -18.1074   21.5728 C.2     1  UNL1        0.3279
      2 N          -7.6780  -17.2609   22.8006 N.2     1  UNL1       -0.0020
      3 C          -6.4954  -16.9821   23.6801 C.2     1  UNL1        0.3351
      4 C          -5.1513  -17.5497   23.3319 C.2     1  UNL1        0.0880
      5 C          -4.9899  -18.3962   22.1042 C.2     1  UNL1        0.0161
      6 C          -3.7978  -19.0865   21.5106 C.2     1  UNL1       -0.0100
      7 C          -2.4044  -19.0736   22.0660 C.3     1  UNL1        0.0320
      8 C          -4.2436  -19.7920   20.2642 C.2     1  UNL1        0.0509
      9 C          -3.3743  -20.6084   19.3543 C.3     1  UNL1        0.0513
     10 N          -5.7113  -19.5377   20.0874 N.2     1  UNL1       -0.2602
     11 C          -6.1725  -18.6750   21.2246 C.3     1  UNL1        0.2298
     12 N          -6.6569  -16.1356   24.9079 N.am    1  UNL1       -0.1223
     13 C          -5.5500  -15.6528   25.7978 C.3     1  UNL1        0.2331
     14 C          -6.1626  -14.8421   26.9012 C.3     1  UNL1        0.1443
     15 N          -7.6481  -14.8239   26.6933 N.am    1  UNL1       -0.2643
     16 C          -7.9535  -15.6233   25.4614 C.2     1  UNL1        0.3956
     17 O          -9.3163  -15.8675   24.8843 O.2     1  UNL1       -0.2236
     18 H          -8.3069  -14.3674   27.2650 H       1  UNL1        0.1532
     19 N          -8.6992  -18.3863   20.6932 N.pl3   1  UNL1       -0.2166
     20 H          -8.7893  -17.9244   19.8285 H       1  UNL1        0.2923
     21 C          -9.7445  -19.3689   21.1312 C.3     1  UNL1        0.2258
     22 C         -11.9598  -17.4965   20.3654 C.3     1  UNL1        0.0308
     23 C         -11.8799  -18.0314   21.7645 C.ar    1  UNL1       -0.0223
     24 C         -12.9076  -17.6302   22.7808 C.ar    1  UNL1       -0.0045
     25 C         -12.8277  -18.1651   24.1798 C.ar    1  UNL1       -0.0007
     26 C         -11.7200  -19.1013   24.5627 C.ar    1  UNL1       -0.0045
     27 C         -10.6923  -19.5026   23.5465 C.ar    1  UNL1       -0.0223
     28 C          -9.5846  -20.4388   23.9294 C.3     1  UNL1        0.0308
     29 C         -10.7722  -18.9676   22.1473 C.ar    1  UNL1        0.0162
@<TRIPOS>BOND
     1    22    23    1
     2    23    24   ar
     3    24    25   ar
     4    25    26   ar
     5    26    27   ar
     6    27    28    1
     7    27    29   ar
     8    29    21    1
     9    21    19    1
    10    19     1    1
    11     1     2    2
    12     2     3    1
    13     3    12    1
    14    12    13    1
    15    13    14    1
    16    14    15    1
    17    15    16   am
    18    16    17    2
    19     3     4    2
    20     4     5    1
    21     5     6    2
    22     6     7    1
    23     6     8    1
    24     8     9    1
    25     8    10    2
    26    10    11    1
    27    29    23   ar
    28    11     1    1
    29    16    12   am
    30    11     5    1
    31    19    20    1
    32    15    18    1
@<TRIPOS>MOLECULE
*****
 29 32 0 0 0
SMALL
GASTEIGER

@<TRIPOS>ATOM
      1 C          -7.0270  -18.1565   22.0054 C.2     1  UNL1        0.3279
      2 N          -6.7461  -17.4449   23.2957 N.2     1  UNL1       -0.0020
      3 C          -7.8637  -16.7833   24.0460 C.2     1  UNL1        0.3351
      4 C          -9.2623  -16.8332   23.5061 C.2     1  UNL1        0.0880
      5 C          -9.5433  -17.5447   22.2159 C.2     1  UNL1        0.0161
      6 C         -10.8108  -17.7584   21.4429 C.2     1  UNL1       -0.0100
      7 C         -12.1734  -17.2650   21.8300 C.3     1  UNL1        0.0320
      8 C         -10.4766  -18.5521   20.2147 C.2     1  UNL1        0.0509
      9 C         -11.4463  -18.9918   19.1580 C.3     1  UNL1        0.0513
     10 N          -9.0024  -18.8290   20.2287 N.2     1  UNL1       -0.2602
     11 C          -8.4256  -18.2064   21.4656 C.3     1  UNL1        0.2298
     12 N          -7.5828  -16.0717   25.3363 N.am    1  UNL1       -0.1223
     13 C          -8.3847  -16.1858   26.5988 C.3     1  UNL1        0.2331
     14 C          -7.7482  -15.3057   27.6334 C.3     1  UNL1        0.1443
     15 N          -6.5528  -14.6477   27.0102 N.am    1  UNL1       -0.2643
     16 C          -6.4507  -15.1211   25.5906 C.2     1  UNL1        0.3956
     17 O          -5.4007  -14.7152   24.5992 O.2     1  UNL1       -0.2236
     18 H          -5.9426  -14.0160   27.4549 H       1  UNL1        0.1532
     19 N          -5.9094  -18.8182   21.2550 N.pl3   1  UNL1       -0.2166
     20 H          -6.0553  -19.1374   20.3352 H       1  UNL1        0.2923
     21 C          -4.5694  -18.9934   21.9061 C.3     1  UNL1        0.2258
     22 C          -3.2070  -16.6338   23.1614 C.3     1  UNL1        0.0308
     23 C          -2.6626  -17.2288   21.8967 C.ar    1  UNL1       -0.0223
     24 C          -1.4369  -16.6440   21.2596 C.ar    1  UNL1       -0.0045
     25 C          -0.8926  -17.2390   19.9949 C.ar    1  UNL1       -0.0007
     26 C          -1.5738  -18.4188   19.3672 C.ar    1  UNL1       -0.0045
     27 C          -2.7994  -19.0036   20.0042 C.ar    1  UNL1       -0.0223
     28 C          -3.4806  -20.1834   19.3765 C.3     1  UNL1        0.0308
     29 C          -3.3438  -18.4086   21.2690 C.ar    1  UNL1        0.0162
@<TRIPOS>BOND
     1    22    23    1
     2    23    24   ar
     3    24    25   ar
     4    25    26   ar
     5    26    27   ar
     6    27    28    1
     7    27    29   ar
     8    29    21    1
     9    21    19    1
    10    19     1    1
    11     1     2    2
    12     2     3    1
    13     3    12    1
    14    12    13    1
    15    13    14    1
    16    14    15    1
    17    15    16   am
    18    16    17    2
    19     3     4    2
    20     4     5    1
    21     5     6    2
    22     6     7    1
    23     6     8    1
    24     8     9    1
    25     8    10    2
    26    10    11    1
    27    29    23   ar
    28    11     1    1
    29    16    12   am
    30    11     5    1
    31    19    20    1
    32    15    18    1
@<TRIPOS>MOLECULE
*****
 29 32 0 0 0
SMALL
GASTEIGER

@<TRIPOS>ATOM
      1 C          -6.9306  -18.2345   22.1994 C.2     1  UNL1        0.3279
      2 N          -6.4329  -17.4827   23.3982 N.2     1  UNL1       -0.0020
      3 C          -7.3243  -16.4906   24.0845 C.2     1  UNL1        0.3351
      4 C          -8.7135  -16.2504   23.5721 C.2     1  UNL1        0.0880
      5 C          -9.2112  -17.0022   22.3733 C.2     1  UNL1        0.0161
      6 C         -10.5227  -16.9766   21.6458 C.2     1  UNL1       -0.0100
      7 C         -11.7071  -16.1243   21.9933 C.3     1  UNL1        0.0320
      8 C         -10.4418  -17.9528   20.5098 C.2     1  UNL1        0.0509
      9 C         -11.5312  -18.2482   19.5219 C.3     1  UNL1        0.0513
     10 N          -9.0803  -18.5818   20.5353 N.2     1  UNL1       -0.2602
     11 C          -8.3197  -17.9943   21.6870 C.3     1  UNL1        0.2298
     12 N          -6.8267  -15.7388   25.2833 N.am    1  UNL1       -0.1223
     13 C          -5.5957  -14.8835   25.3391 C.3     1  UNL1        0.2331
     14 C          -5.4809  -14.3263   26.7270 C.3     1  UNL1        0.1443
     15 N          -6.6409  -14.8373   27.5291 N.am    1  UNL1       -0.2643
     16 C          -7.4726  -15.7102   26.6368 C.2     1  UNL1        0.3956
     17 O          -8.7297  -16.4285   27.0291 O.2     1  UNL1       -0.2236
     18 H          -6.8242  -14.6352   28.4750 H       1  UNL1        0.1532
     19 N          -6.0391  -19.2266   21.5130 N.pl3   1  UNL1       -0.2166
     20 H          -6.3800  -19.7513   20.7529 H       1  UNL1        0.2923
     21 C          -4.6283  -19.4193   21.9848 C.3     1  UNL1        0.2258
     22 C          -3.6927  -20.3892   19.3045 C.3     1  UNL1        0.0308
     23 C          -3.0335  -19.2038   19.9451 C.ar    1  UNL1       -0.0223
     24 C          -1.9065  -18.5034   19.2457 C.ar    1  UNL1       -0.0045
     25 C          -1.2473  -17.3181   19.8863 C.ar    1  UNL1       -0.0007
     26 C          -1.7152  -16.8332   21.2265 C.ar    1  UNL1       -0.0045
     27 C          -2.8421  -17.5335   21.9259 C.ar    1  UNL1       -0.0223
     28 C          -3.3100  -17.0486   23.2661 C.3     1  UNL1        0.0308
     29 C          -3.5014  -18.7189   21.2853 C.ar    1  UNL1        0.0162
@<TRIPOS>BOND
     1    22    23    1
     2    23    24   ar
     3    24    25   ar
     4    25    26   ar
     5    26    27   ar
     6    27    28    1
     7    27    29   ar
     8    29    21    1
     9    21    19    1
    10    19     1    1
    11     1     2    2
    12     2     3    1
    13     3    12    1
    14    12    13    1
    15    13    14    1
    16    14    15    1
    17    15    16   am
    18    16    17    2
    19     3     4    2
    20     4     5    1
    21     5     6    2
    22     6     7    1
    23     6     8    1
    24     8     9    1
    25     8    10    2
    26    10    11    1
    27    29    23   ar
    28    11     1    1
    29    16    12   am
    30    11     5    1
    31    19    20    1
    32    15    18    1
@<TRIPOS>MOLECULE
*****
 29 32 0 0 0
SMALL
GASTEIGER

@<TRIPOS>ATOM
      1 C          -6.0139  -16.3726   23.6340 C.2     1  UNL1        0.3279
      2 N          -7.0259  -17.1320   22.8284 N.2     1  UNL1       -0.0020
      3 C          -8.4322  -17.2721   23.3308 C.2     1  UNL1        0.3351
      4 C          -8.8265  -16.6529   24.6389 C.2     1  UNL1        0.0880
      5 C          -7.8145  -15.8935   25.4445 C.2     1  UNL1        0.0161
      6 C          -7.9098  -15.1798   26.7604 C.2     1  UNL1       -0.0100
      7 C          -9.1371  -15.0672   27.6154 C.3     1  UNL1        0.0320
      8 C          -6.5624  -14.5986   27.0712 C.2     1  UNL1        0.0509
      9 C          -6.2057  -13.8026   28.2916 C.3     1  UNL1        0.0513
     10 N          -5.6343  -14.9531   25.9474 N.2     1  UNL1       -0.2602
     11 C          -6.4081  -15.7534   24.9421 C.3     1  UNL1        0.2298
     12 N          -9.4444  -18.0315   22.5252 N.am    1  UNL1       -0.1223
     13 C          -9.8362  -19.4653   22.7272 C.3     1  UNL1        0.2331
     14 C         -10.8763  -19.8103   21.7030 C.3     1  UNL1        0.1443
     15 N         -11.1274  -18.5897   20.8679 N.am    1  UNL1       -0.2643
     16 C         -10.2424  -17.4904   21.3761 C.2     1  UNL1        0.3956
     17 O         -10.1685  -16.0950   20.8309 O.2     1  UNL1       -0.2236
     18 H         -11.7617  -18.5221   20.1180 H       1  UNL1        0.1532
     19 N          -4.6074  -16.2324   23.1315 N.pl3   1  UNL1       -0.2166
     20 H          -4.2734  -15.3527   22.8423 H       1  UNL1        0.2923
     21 C          -3.7099  -17.4327   23.0699 C.3     1  UNL1        0.2258
     22 C          -5.2442  -19.8453   22.1613 C.3     1  UNL1        0.0308
     23 C          -4.1629  -19.2734   21.2932 C.ar    1  UNL1       -0.0223
     24 C          -3.8487  -19.9078   19.9707 C.ar    1  UNL1       -0.0045
     25 C          -2.7673  -19.3359   19.1026 C.ar    1  UNL1       -0.0007
     26 C          -2.0002  -18.1297   19.5569 C.ar    1  UNL1       -0.0045
     27 C          -2.3144  -17.4953   20.8793 C.ar    1  UNL1       -0.0223
     28 C          -1.5472  -16.2890   21.3336 C.3     1  UNL1        0.0308
     29 C          -3.3957  -18.0671   21.7475 C.ar    1  UNL1        0.0162
@<TRIPOS>BOND
     1    22    23    1
     2    23    24   ar
     3    24    25   ar
     4    25    26   ar
     5    26    27   ar
     6    27    28    1
     7    27    29   ar
     8    29    21    1
     9    21    19    1
    10    19     1    1
    11     1     2    2
    12     2     3    1
    13     3    12    1
    14    12    13    1
    15    13    14    1
    16    14    15    1
    17    15    16   am
    18    16    17    2
    19     3     4    2
    20     4     5    1
    21     5     6    2
    22     6     7    1
    23     6     8    1
    24     8     9    1
    25     8    10    2
    26    10    11    1
    27    29    23   ar
    28    11     1    1
    29    16    12   am
    30    11     5    1
    31    19    20    1
    32    15    18    1
@<TRIPOS>MOLECULE
*****
 29 32 0 0 0
SMALL
GASTEIGER

@<TRIPOS>ATOM
      1 C          -7.5464  -17.5494   22.4908 C.2     1  UNL1        0.3279
      2 N          -8.9813  -17.8305   22.1559 N.2     1  UNL1       -0.0020
      3 C         -10.0720  -17.3479   23.0654 C.2     1  UNL1        0.3351
      4 C          -9.7280  -16.5842   24.3097 C.2     1  UNL1        0.0880
      5 C          -8.2932  -16.3032   24.6446 C.2     1  UNL1        0.0161
      6 C          -7.6534  -15.5804   25.7928 C.2     1  UNL1       -0.0100
      7 C          -8.3735  -14.9351   26.9395 C.3     1  UNL1        0.0320
      8 C          -6.1672  -15.6163   25.5930 C.2     1  UNL1        0.0509
      9 C          -5.1401  -15.0131   26.5048 C.3     1  UNL1        0.0513
     10 N          -5.8884  -16.3613   24.3212 N.2     1  UNL1       -0.2602
     11 C          -7.2024  -16.7858   23.7351 C.3     1  UNL1        0.2298
     12 N         -11.5070  -17.6289   22.7305 N.am    1  UNL1       -0.1223
     13 C         -12.5585  -18.1063   23.6877 C.3     1  UNL1        0.2331
     14 C         -13.8437  -18.2544   22.9284 C.3     1  UNL1        0.1443
     15 N         -13.5864  -17.8684   21.5019 N.am    1  UNL1       -0.2643
     16 C         -12.1422  -17.4818   21.3796 C.2     1  UNL1        0.3956
     17 O         -11.4541  -17.0279   20.1264 O.2     1  UNL1       -0.2236
     18 H         -14.2490  -17.8687   20.7738 H       1  UNL1        0.1532
     19 N          -6.4555  -18.0320   21.5812 N.pl3   1  UNL1       -0.2166
     20 H          -6.5386  -17.9145   20.6073 H       1  UNL1        0.2923
     21 C          -5.2380  -18.6936   22.1557 C.3     1  UNL1        0.2258
     22 C          -3.1216  -16.6873   22.8595 C.3     1  UNL1        0.0308
     23 C          -2.8858  -17.6680   21.7493 C.ar    1  UNL1       -0.0223
     24 C          -1.5918  -17.6456   20.9910 C.ar    1  UNL1       -0.0045
     25 C          -1.3560  -18.6263   19.8808 C.ar    1  UNL1       -0.0007
     26 C          -2.4142  -19.6295   19.5289 C.ar    1  UNL1       -0.0045
     27 C          -3.7082  -19.6520   20.2872 C.ar    1  UNL1       -0.0223
     28 C          -4.7664  -20.6552   19.9353 C.3     1  UNL1        0.0308
     29 C          -3.9440  -18.6712   21.3974 C.ar    1  UNL1        0.0162
@<TRIPOS>BOND
     1    22    23    1
     2    23    24   ar
     3    24    25   ar
     4    25    26   ar
     5    26    27   ar
     6    27    28    1
     7    27    29   ar
     8    29    21    1
     9    21    19    1
    10    19     1    1
    11     1     2    2
    12     2     3    1
    13     3    12    1
    14    12    13    1
    15    13    14    1
    16    14    15    1
    17    15    16   am
    18    16    17    2
    19     3     4    2
    20     4     5    1
    21     5     6    2
    22     6     7    1
    23     6     8    1
    24     8     9    1
    25     8    10    2
    26    10    11    1
    27    29    23   ar
    28    11     1    1
    29    16    12   am
    30    11     5    1
    31    19    20    1
    32    15    18    1
@<TRIPOS>MOLECULE
*****
 29 32 0 0 0
SMALL
GASTEIGER

@<TRIPOS>ATOM
      1 C          -6.1185  -16.4218   23.6360 C.2     1  UNL1        0.3279
      2 N          -7.1573  -17.1333   22.8208 N.2     1  UNL1       -0.0020
      3 C          -8.5667  -17.2334   23.3243 C.2     1  UNL1        0.3351
      4 C          -8.9372  -16.6221   24.6431 C.2     1  UNL1        0.0880
      5 C          -7.8984  -15.9107   25.4582 C.2     1  UNL1        0.0161
      6 C          -7.9669  -15.2153   26.7855 C.2     1  UNL1       -0.0100
      7 C          -9.1880  -15.0746   27.6451 C.3     1  UNL1        0.0320
      8 C          -6.5998  -14.6853   27.1023 C.2     1  UNL1        0.0509
      9 C          -6.2139  -13.9216   28.3344 C.3     1  UNL1        0.0513
     10 N          -5.6864  -15.0531   25.9708 N.2     1  UNL1       -0.2602
     11 C          -6.4890  -15.8105   24.9547 C.3     1  UNL1        0.2298
     12 N          -9.6056  -17.9450   22.5092 N.am    1  UNL1       -0.1223
     13 C         -10.4947  -17.3206   21.4749 C.3     1  UNL1        0.2331
     14 C         -11.3764  -18.3955   20.9117 C.3     1  UNL1        0.1443
     15 N         -11.0323  -19.6843   21.5979 N.am    1  UNL1       -0.2643
     16 C          -9.9379  -19.4058   22.5852 C.2     1  UNL1        0.3956
     17 O          -9.2895  -20.4115   23.4897 O.2     1  UNL1       -0.2236
     18 H         -11.4511  -20.5592   21.4299 H       1  UNL1        0.1532
     19 N          -4.7090  -16.3216   23.1324 N.pl3   1  UNL1       -0.2166
     20 H          -4.3408  -15.4468   22.8708 H       1  UNL1        0.2923
     21 C          -3.8607  -17.5542   23.0274 C.3     1  UNL1        0.2258
     22 C          -1.6987  -16.2899   21.3759 C.3     1  UNL1        0.0308
     23 C          -2.4390  -17.4855   20.8539 C.ar    1  UNL1       -0.0223
     24 C          -2.0984  -18.0489   19.5061 C.ar    1  UNL1       -0.0045
     25 C          -2.8387  -19.2445   18.9841 C.ar    1  UNL1       -0.0007
     26 C          -3.9197  -19.8766   19.8098 C.ar    1  UNL1       -0.0045
     27 C          -4.2604  -19.3132   21.1576 C.ar    1  UNL1       -0.0223
     28 C          -5.3414  -19.9454   21.9833 C.3     1  UNL1        0.0308
     29 C          -3.5200  -18.1176   21.6797 C.ar    1  UNL1        0.0162
@<TRIPOS>BOND
     1    22    23    1
     2    23    24   ar
     3    24    25   ar
     4    25    26   ar
     5    26    27   ar
     6    27    28    1
     7    27    29   ar
     8    29    21    1
     9    21    19    1
    10    19     1    1
    11     1     2    2
    12     2     3    1
    13     3    12    1
    14    12    13    1
    15    13    14    1
    16    14    15    1
    17    15    16   am
    18    16    17    2
    19     3     4    2
    20     4     5    1
    21     5     6    2
    22     6     7    1
    23     6     8    1
    24     8     9    1
    25     8    10    2
    26    10    11    1
    27    29    23   ar
    28    11     1    1
    29    16    12   am
    30    11     5    1
    31    19    20    1
    32    15    18    1
