@<TRIPOS>MOLECULE
*****
 25 27 0 0 0
SMALL
GASTEIGER

@<TRIPOS>ATOM
      1 C          -5.9556  -14.8288   26.9410 C.3     1  UNL1        0.0522
      2 C          -5.7723  -15.6357   25.6899 C.ar    1  UNL1        0.0625
      3 C          -4.4602  -16.3096   25.4176 C.ar    1  UNL1        0.0522
      4 C          -4.2768  -17.1165   24.1665 C.ar    1  UNL1        0.1483
      5 C          -5.4056  -17.2496   23.1877 C.ar    1  UNL1        0.0612
      6 C          -6.7178  -16.5757   23.4600 C.ar    1  UNL1        0.1374
      7 N          -6.9011  -15.7688   24.7111 N.ar    1  UNL1       -0.2449
      8 C          -7.8467  -16.7088   22.4812 C.2     1  UNL1        0.2684
      9 O          -7.6830  -17.5630   21.2592 O.2     1  UNL1       -0.2681
     10 N          -9.1392  -15.9876   22.7246 N.am    1  UNL1       -0.2645
     11 H          -9.2466  -15.4270   23.5266 H       1  UNL1        0.1566
     12 C         -10.2681  -16.1207   21.7458 C.ar    1  UNL1        0.1367
     13 C         -11.4488  -16.9850   22.0757 C.ar    1  UNL1        0.0641
     14 C         -12.5777  -17.1180   21.0969 C.ar    1  UNL1        0.1445
     15 F         -13.7585  -17.9823   21.4268 F       1  UNL1       -0.2040
     16 C         -12.5257  -16.3867   19.7882 C.ar    1  UNL1        0.0504
     17 C         -11.3450  -15.5225   19.4583 C.ar    1  UNL1        0.1026
     18 N         -10.2162  -15.3895   20.4371 N.ar    1  UNL1       -0.2289
     19 O          -2.9646  -17.7903   23.8941 O.3     1  UNL1       -0.4502
     20 C          -2.4264  -17.8465   22.4951 C.ar    1  UNL1        0.1835
     21 C          -2.2575  -19.1697   21.8090 C.ar    1  UNL1        0.1396
     22 N          -1.7193  -19.2258   20.4100 N.ar    1  UNL1       -0.2192
     23 C          -1.3501  -17.9587   19.6971 C.ar    1  UNL1        0.1991
     24 N          -1.5190  -16.6356   20.3832 N.ar    1  UNL1       -0.2192
     25 C          -2.0572  -16.5794   21.7822 C.ar    1  UNL1        0.1396
@<TRIPOS>BOND
     1     1     2    1
     2     2     3   ar
     3     3     4   ar
     4     4    19    1
     5    19    20    1
     6    20    21   ar
     7    21    22   ar
     8    22    23   ar
     9    23    24   ar
    10    24    25   ar
    11     4     5   ar
    12     5     6   ar
    13     6     8    1
    14     8     9    2
    15     8    10   am
    16    10    12    1
    17    12    13   ar
    18    13    14   ar
    19    14    15    1
    20    14    16   ar
    21    16    17   ar
    22    17    18   ar
    23     6     7   ar
    24     7     2   ar
    25    25    20   ar
    26    18    12   ar
    27    10    11    1
@<TRIPOS>MOLECULE
*****
 25 27 0 0 0
SMALL
GASTEIGER

@<TRIPOS>ATOM
      1 C          -6.6513  -14.9298   27.2943 C.3     1  UNL1        0.0522
      2 C          -7.0434  -15.5168   25.9708 C.ar    1  UNL1        0.0625
      3 C          -8.4846  -15.5341   25.5554 C.ar    1  UNL1        0.0522
      4 C          -8.8767  -16.1211   24.2319 C.ar    1  UNL1        0.1483
      5 C          -7.8276  -16.6909   23.3238 C.ar    1  UNL1        0.0612
      6 C          -6.3864  -16.6737   23.7392 C.ar    1  UNL1        0.1374
      7 N          -5.9943  -16.0866   25.0627 N.ar    1  UNL1       -0.2449
      8 C          -5.3372  -17.2435   22.8311 C.2     1  UNL1        0.2684
      9 O          -5.7209  -18.2289   21.7673 O.2     1  UNL1       -0.2681
     10 N          -3.9044  -16.8279   22.9869 N.am    1  UNL1       -0.2645
     11 H          -3.6526  -16.1812   23.6851 H       1  UNL1        0.1566
     12 C          -2.8552  -17.3977   22.0788 C.ar    1  UNL1        0.1367
     13 C          -1.8755  -16.4869   21.4003 C.ar    1  UNL1        0.0641
     14 C          -0.8263  -17.0567   20.4922 C.ar    1  UNL1        0.1445
     15 F           0.1535  -16.1458   19.8137 F       1  UNL1       -0.2040
     16 C          -0.7570  -18.5374   20.2626 C.ar    1  UNL1        0.0504
     17 C          -1.7367  -19.4483   20.9411 C.ar    1  UNL1        0.1026
     18 N          -2.7859  -18.8784   21.8492 N.ar    1  UNL1       -0.2289
     19 O         -10.3180  -16.1383   23.8165 O.3     1  UNL1       -0.4502
     20 C         -10.7084  -16.7117   22.4866 C.ar    1  UNL1        0.1835
     21 C         -11.2243  -18.1174   22.3982 C.ar    1  UNL1        0.1396
     22 N         -11.6147  -18.6908   21.0682 N.ar    1  UNL1       -0.2192
     23 C         -11.4892  -17.8585   19.8266 C.ar    1  UNL1        0.1991
     24 N         -10.9732  -16.4528   19.9151 N.ar    1  UNL1       -0.2192
     25 C         -10.5828  -15.8794   21.2450 C.ar    1  UNL1        0.1396
@<TRIPOS>BOND
     1     1     2    1
     2     2     3   ar
     3     3     4   ar
     4     4    19    1
     5    19    20    1
     6    20    21   ar
     7    21    22   ar
     8    22    23   ar
     9    23    24   ar
    10    24    25   ar
    11     4     5   ar
    12     5     6   ar
    13     6     8    1
    14     8     9    2
    15     8    10   am
    16    10    12    1
    17    12    13   ar
    18    13    14   ar
    19    14    15    1
    20    14    16   ar
    21    16    17   ar
    22    17    18   ar
    23     6     7   ar
    24     7     2   ar
    25    25    20   ar
    26    18    12   ar
    27    10    11    1
@<TRIPOS>MOLECULE
*****
 25 27 0 0 0
SMALL
GASTEIGER

@<TRIPOS>ATOM
      1 C          -5.7702  -21.8426   19.7679 C.3     1  UNL1        0.0522
      2 C          -5.8817  -20.6495   20.6701 C.ar    1  UNL1        0.0625
      3 C          -4.6421  -19.9835   21.1895 C.ar    1  UNL1        0.0522
      4 C          -4.7537  -18.7904   22.0918 C.ar    1  UNL1        0.1483
      5 C          -6.1048  -18.2633   22.4746 C.ar    1  UNL1        0.0612
      6 C          -7.3443  -18.9293   21.9552 C.ar    1  UNL1        0.1374
      7 N          -7.2328  -20.1224   21.0529 N.ar    1  UNL1       -0.2449
      8 C          -8.6956  -18.4022   22.3380 C.2     1  UNL1        0.2684
      9 O          -8.8889  -16.9332   22.5717 O.2     1  UNL1       -0.2681
     10 N          -9.8533  -19.3441   22.4872 N.am    1  UNL1       -0.2645
     11 H          -9.7264  -20.3083   22.3338 H       1  UNL1        0.1566
     12 C         -11.2045  -18.8170   22.8700 C.ar    1  UNL1        0.1367
     13 C         -11.7360  -19.0496   24.2533 C.ar    1  UNL1        0.0641
     14 C         -13.0871  -18.5225   24.6361 C.ar    1  UNL1        0.1445
     15 F         -13.6186  -18.7550   26.0194 F       1  UNL1       -0.2040
     16 C         -13.9068  -17.7628   23.6356 C.ar    1  UNL1        0.0504
     17 C         -13.3754  -17.5303   22.2523 C.ar    1  UNL1        0.1026
     18 N         -12.0243  -18.0574   21.8695 N.ar    1  UNL1       -0.2289
     19 O          -3.5140  -18.1244   22.6112 O.3     1  UNL1       -0.4502
     20 C          -2.3448  -17.9000   21.6987 C.ar    1  UNL1        0.1835
     21 C          -1.6674  -19.0686   21.0462 C.ar    1  UNL1        0.1396
     22 N          -0.4982  -18.8441   20.1338 N.ar    1  UNL1       -0.2192
     23 C          -0.0063  -17.4511   19.8738 C.ar    1  UNL1        0.1991
     24 N          -0.6837  -16.2825   20.5263 N.ar    1  UNL1       -0.2192
     25 C          -1.8529  -16.5070   21.4387 C.ar    1  UNL1        0.1396
@<TRIPOS>BOND
     1     1     2    1
     2     2     3   ar
     3     3     4   ar
     4     4    19    1
     5    19    20    1
     6    20    21   ar
     7    21    22   ar
     8    22    23   ar
     9    23    24   ar
    10    24    25   ar
    11     4     5   ar
    12     5     6   ar
    13     6     8    1
    14     8     9    2
    15     8    10   am
    16    10    12    1
    17    12    13   ar
    18    13    14   ar
    19    14    15    1
    20    14    16   ar
    21    16    17   ar
    22    17    18   ar
    23     6     7   ar
    24     7     2   ar
    25    25    20   ar
    26    18    12   ar
    27    10    11    1
@<TRIPOS>MOLECULE
*****
 25 27 0 0 0
SMALL
GASTEIGER

@<TRIPOS>ATOM
      1 C         -11.3822  -20.1255   21.2214 C.3     1  UNL1        0.0522
      2 C         -10.2216  -19.3120   21.7128 C.ar    1  UNL1        0.0625
      3 C         -10.4363  -18.2482   22.7482 C.ar    1  UNL1        0.0522
      4 C          -9.2758  -17.4347   23.2396 C.ar    1  UNL1        0.1483
      5 C          -7.9006  -17.6849   22.6954 C.ar    1  UNL1        0.0612
      6 C          -7.6859  -18.7487   21.6599 C.ar    1  UNL1        0.1374
      7 N          -8.8464  -19.5622   21.1686 N.ar    1  UNL1       -0.2449
      8 C          -6.3107  -18.9990   21.1157 C.2     1  UNL1        0.2684
      9 O          -6.1090  -20.0035   20.0202 O.2     1  UNL1       -0.2681
     10 N          -5.1372  -18.2448   21.6671 N.am    1  UNL1       -0.2645
     11 H          -5.2696  -17.5855   22.3862 H       1  UNL1        0.1566
     12 C          -3.7619  -18.4951   21.1229 C.ar    1  UNL1        0.1367
     13 C          -3.3968  -18.0053   19.7530 C.ar    1  UNL1        0.0641
     14 C          -2.0216  -18.2556   19.2088 C.ar    1  UNL1        0.1445
     15 F          -1.6565  -17.7658   17.8388 F       1  UNL1       -0.2040
     16 C          -1.0115  -18.9957   20.0346 C.ar    1  UNL1        0.0504
     17 C          -1.3766  -19.4855   21.4046 C.ar    1  UNL1        0.1026
     18 N          -2.7518  -19.2352   21.9487 N.ar    1  UNL1       -0.2289
     19 O          -9.4906  -16.3709   24.2751 O.3     1  UNL1       -0.4502
     20 C          -8.3610  -15.9579   25.1715 C.ar    1  UNL1        0.1835
     21 C          -8.3626  -16.3642   26.6155 C.ar    1  UNL1        0.1396
     22 N          -7.2330  -15.9513   27.5120 N.ar    1  UNL1       -0.2192
     23 C          -6.1020  -15.1321   26.9644 C.ar    1  UNL1        0.1991
     24 N          -6.1005  -14.7259   25.5205 N.ar    1  UNL1       -0.2192
     25 C          -7.2300  -15.1388   24.6241 C.ar    1  UNL1        0.1396
@<TRIPOS>BOND
     1     1     2    1
     2     2     3   ar
     3     3     4   ar
     4     4    19    1
     5    19    20    1
     6    20    21   ar
     7    21    22   ar
     8    22    23   ar
     9    23    24   ar
    10    24    25   ar
    11     4     5   ar
    12     5     6   ar
    13     6     8    1
    14     8     9    2
    15     8    10   am
    16    10    12    1
    17    12    13   ar
    18    13    14   ar
    19    14    15    1
    20    14    16   ar
    21    16    17   ar
    22    17    18   ar
    23     6     7   ar
    24     7     2   ar
    25    25    20   ar
    26    18    12   ar
    27    10    11    1
@<TRIPOS>MOLECULE
*****
 25 27 0 0 0
SMALL
GASTEIGER

@<TRIPOS>ATOM
      1 C          -9.2160   -7.7215   18.6695 C.3     1  UNL1        0.0522
      2 C         -10.3571   -6.7511   18.7489 C.ar    1  UNL1        0.0625
      3 C         -10.0851   -5.2852   18.9130 C.ar    1  UNL1        0.0522
      4 C         -11.2262   -4.3149   18.9924 C.ar    1  UNL1        0.1483
      5 C         -12.6394   -4.8105   18.9078 C.ar    1  UNL1        0.0612
      6 C         -12.9115   -6.2764   18.7437 C.ar    1  UNL1        0.1374
      7 N         -11.7703   -7.2468   18.6643 N.ar    1  UNL1       -0.2449
      8 C         -14.3247   -6.7721   18.6591 C.2     1  UNL1        0.2684
      9 O         -15.3512   -5.9853   17.8993 O.2     1  UNL1       -0.2681
     10 N         -14.7114   -8.0545   19.3342 N.am    1  UNL1       -0.2645
     11 H         -14.0377   -8.5709   19.8328 H       1  UNL1        0.1566
     12 C         -16.1247   -8.5502   19.2495 C.ar    1  UNL1        0.1367
     13 C         -17.1877   -7.9361   20.1113 C.ar    1  UNL1        0.0641
     14 C         -18.6009   -8.4318   20.0266 C.ar    1  UNL1        0.1445
     15 F         -19.6641   -7.8176   20.8884 F       1  UNL1       -0.2040
     16 C         -18.9510   -9.5416   19.0801 C.ar    1  UNL1        0.0504
     17 C         -17.8879  -10.1557   18.2184 C.ar    1  UNL1        0.1026
     18 N         -16.4748   -9.6600   18.3031 N.ar    1  UNL1       -0.2289
     19 O         -10.9541   -2.8489   19.1565 O.3     1  UNL1       -0.4502
     20 C         -11.5596   -1.8623   18.2026 C.ar    1  UNL1        0.1835
     21 C         -12.8957   -1.2506   18.5041 C.ar    1  UNL1        0.1396
     22 N         -13.5012   -0.2640   17.5501 N.ar    1  UNL1       -0.2192
     23 C         -12.7707    0.1108   16.2947 C.ar    1  UNL1        0.1991
     24 N         -11.4348   -0.5009   15.9933 N.ar    1  UNL1       -0.2192
     25 C         -10.8292   -1.4875   16.9472 C.ar    1  UNL1        0.1396
@<TRIPOS>BOND
     1     1     2    1
     2     2     3   ar
     3     3     4   ar
     4     4    19    1
     5    19    20    1
     6    20    21   ar
     7    21    22   ar
     8    22    23   ar
     9    23    24   ar
    10    24    25   ar
    11     4     5   ar
    12     5     6   ar
    13     6     8    1
    14     8     9    2
    15     8    10   am
    16    10    12    1
    17    12    13   ar
    18    13    14   ar
    19    14    15    1
    20    14    16   ar
    21    16    17   ar
    22    17    18   ar
    23     6     7   ar
    24     7     2   ar
    25    25    20   ar
    26    18    12   ar
    27    10    11    1
@<TRIPOS>MOLECULE
*****
 25 27 0 0 0
SMALL
GASTEIGER

@<TRIPOS>ATOM
      1 C          -9.6338   -7.3198   18.3984 C.3     1  UNL1        0.0522
      2 C         -10.9882   -6.7445   18.6892 C.ar    1  UNL1        0.0625
      3 C         -11.1214   -5.3052   19.0900 C.ar    1  UNL1        0.0522
      4 C         -12.4758   -4.7299   19.3808 C.ar    1  UNL1        0.1483
      5 C         -13.6970   -5.5938   19.2708 C.ar    1  UNL1        0.0612
      6 C         -13.5639   -7.0331   18.8699 C.ar    1  UNL1        0.1374
      7 N         -12.2094   -7.6084   18.5791 N.ar    1  UNL1       -0.2449
      8 C         -14.7851   -7.8971   18.7598 C.2     1  UNL1        0.2684
      9 O         -14.6465   -9.3902   18.7216 O.2     1  UNL1       -0.2681
     10 N         -16.1449   -7.2681   18.6881 N.am    1  UNL1       -0.2645
     11 H         -16.2359   -6.2881   18.7132 H       1  UNL1        0.1566
     12 C         -17.3662   -8.1321   18.5780 C.ar    1  UNL1        0.1367
     13 C         -18.2268   -8.3712   19.7830 C.ar    1  UNL1        0.0641
     14 C         -19.4480   -9.2352   19.6729 C.ar    1  UNL1        0.1445
     15 F         -20.3087   -9.4743   20.8779 F       1  UNL1       -0.2040
     16 C         -19.8086   -9.8601   18.3578 C.ar    1  UNL1        0.0504
     17 C         -18.9479   -9.6210   17.1528 C.ar    1  UNL1        0.1026
     18 N         -17.7267   -8.7570   17.2629 N.ar    1  UNL1       -0.2289
     19 O         -12.6090   -3.2905   19.7817 O.3     1  UNL1       -0.4502
     20 C         -13.6588   -2.4288   19.1451 C.ar    1  UNL1        0.1835
     21 C         -13.4812   -1.9482   17.7353 C.ar    1  UNL1        0.1396
     22 N         -14.5310   -1.0865   17.0988 N.ar    1  UNL1       -0.2192
     23 C         -15.7586   -0.7053   17.8721 C.ar    1  UNL1        0.1991
     24 N         -15.9362   -1.1858   19.2819 N.ar    1  UNL1       -0.2192
     25 C         -14.8863   -2.0475   19.9184 C.ar    1  UNL1        0.1396
@<TRIPOS>BOND
     1     1     2    1
     2     2     3   ar
     3     3     4   ar
     4     4    19    1
     5    19    20    1
     6    20    21   ar
     7    21    22   ar
     8    22    23   ar
     9    23    24   ar
    10    24    25   ar
    11     4     5   ar
    12     5     6   ar
    13     6     8    1
    14     8     9    2
    15     8    10   am
    16    10    12    1
    17    12    13   ar
    18    13    14   ar
    19    14    15    1
    20    14    16   ar
    21    16    17   ar
    22    17    18   ar
    23     6     7   ar
    24     7     2   ar
    25    25    20   ar
    26    18    12   ar
    27    10    11    1
@<TRIPOS>MOLECULE
*****
 25 27 0 0 0
SMALL
GASTEIGER

@<TRIPOS>ATOM
      1 C         -19.1851   -1.8574   19.3490 C.3     1  UNL1        0.0522
      2 C         -18.4634   -3.1691   19.4402 C.ar    1  UNL1        0.0625
      3 C         -19.2386   -4.4533   19.4404 C.ar    1  UNL1        0.0522
      4 C         -18.5168   -5.7650   19.5315 C.ar    1  UNL1        0.1483
      5 C         -17.0199   -5.7927   19.6225 C.ar    1  UNL1        0.0612
      6 C         -16.2447   -4.5085   19.6224 C.ar    1  UNL1        0.1374
      7 N         -16.9664   -3.1968   19.5312 N.ar    1  UNL1       -0.2449
      8 C         -14.7476   -4.5361   19.7134 C.2     1  UNL1        0.2684
      9 O         -14.0611   -4.0137   20.9405 O.2     1  UNL1       -0.2681
     10 N         -13.9372   -5.0861   18.5773 N.am    1  UNL1       -0.2645
     11 H         -14.3878   -5.4290   17.7719 H       1  UNL1        0.1566
     12 C         -12.4402   -5.1137   18.6683 C.ar    1  UNL1        0.1367
     13 C         -11.7253   -6.4158   18.8769 C.ar    1  UNL1        0.0641
     14 C         -10.2284   -6.4433   18.9679 C.ar    1  UNL1        0.1445
     15 F          -9.5135   -7.7455   19.1764 F       1  UNL1       -0.2040
     16 C          -9.4463   -5.1688   18.8503 C.ar    1  UNL1        0.0504
     17 C         -10.1611   -3.8667   18.6418 C.ar    1  UNL1        0.1026
     18 N         -11.6580   -3.8392   18.5508 N.ar    1  UNL1       -0.2289
     19 O         -19.2921   -7.0492   19.5317 O.3     1  UNL1       -0.4502
     20 C         -18.6064   -8.3392   19.1915 C.ar    1  UNL1        0.1835
     21 C         -17.5364   -8.8803   20.0928 C.ar    1  UNL1        0.1396
     22 N         -16.8507  -10.1703   19.7526 N.ar    1  UNL1       -0.2192
     23 C         -17.2352  -10.9193   18.5110 C.ar    1  UNL1        0.1991
     24 N         -18.3052  -10.3782   17.6098 N.ar    1  UNL1       -0.2192
     25 C         -18.9908   -9.0882   17.9500 C.ar    1  UNL1        0.1396
@<TRIPOS>BOND
     1     1     2    1
     2     2     3   ar
     3     3     4   ar
     4     4    19    1
     5    19    20    1
     6    20    21   ar
     7    21    22   ar
     8    22    23   ar
     9    23    24   ar
    10    24    25   ar
    11     4     5   ar
    12     5     6   ar
    13     6     8    1
    14     8     9    2
    15     8    10   am
    16    10    12    1
    17    12    13   ar
    18    13    14   ar
    19    14    15    1
    20    14    16   ar
    21    16    17   ar
    22    17    18   ar
    23     6     7   ar
    24     7     2   ar
    25    25    20   ar
    26    18    12   ar
    27    10    11    1
@<TRIPOS>MOLECULE
*****
 25 27 0 0 0
SMALL
GASTEIGER

@<TRIPOS>ATOM
      1 C          -3.5842  -21.1325   19.4745 C.3     1  UNL1        0.0522
      2 C          -4.3118  -20.2211   20.4179 C.ar    1  UNL1        0.0625
      3 C          -3.5670  -19.5418   21.5286 C.ar    1  UNL1        0.0522
      4 C          -4.2946  -18.6304   22.4720 C.ar    1  UNL1        0.1483
      5 C          -5.7671  -18.3984   22.3047 C.ar    1  UNL1        0.0612
      6 C          -6.5119  -19.0778   21.1940 C.ar    1  UNL1        0.1374
      7 N          -5.7843  -19.9891   20.2506 N.ar    1  UNL1       -0.2449
      8 C          -7.9844  -18.8458   21.0267 C.2     1  UNL1        0.2684
      9 O          -8.7566  -19.6319   20.0089 O.2     1  UNL1       -0.2681
     10 N          -8.6847  -17.8277   21.8770 N.am    1  UNL1       -0.2645
     11 H          -8.1779  -17.3118   22.5450 H       1  UNL1        0.1566
     12 C         -10.1572  -17.5958   21.7097 C.ar    1  UNL1        0.1367
     13 C         -11.1154  -18.0693   22.7621 C.ar    1  UNL1        0.0641
     14 C         -12.5878  -17.8373   22.5947 C.ar    1  UNL1        0.1445
     15 F         -13.5462  -18.3109   23.6471 F       1  UNL1       -0.2040
     16 C         -13.1021  -17.1318   21.3749 C.ar    1  UNL1        0.0504
     17 C         -12.1439  -16.6582   20.3226 C.ar    1  UNL1        0.1026
     18 N         -10.6714  -16.8902   20.4900 N.ar    1  UNL1       -0.2289
     19 O          -3.5497  -17.9510   23.5827 O.3     1  UNL1       -0.4502
     20 C          -4.2525  -16.9566   24.4586 C.ar    1  UNL1        0.1835
     21 C          -4.8261  -15.7054   23.8624 C.ar    1  UNL1        0.1396
     22 N          -5.5289  -14.7111   24.7383 N.ar    1  UNL1       -0.2192
     23 C          -5.6581  -14.9679   26.2106 C.ar    1  UNL1        0.1991
     24 N          -5.0844  -16.2190   26.8068 N.ar    1  UNL1       -0.2192
     25 C          -4.3816  -17.2134   25.9308 C.ar    1  UNL1        0.1396
@<TRIPOS>BOND
     1     1     2    1
     2     2     3   ar
     3     3     4   ar
     4     4    19    1
     5    19    20    1
     6    20    21   ar
     7    21    22   ar
     8    22    23   ar
     9    23    24   ar
    10    24    25   ar
    11     4     5   ar
    12     5     6   ar
    13     6     8    1
    14     8     9    2
    15     8    10   am
    16    10    12    1
    17    12    13   ar
    18    13    14   ar
    19    14    15    1
    20    14    16   ar
    21    16    17   ar
    22    17    18   ar
    23     6     7   ar
    24     7     2   ar
    25    25    20   ar
    26    18    12   ar
    27    10    11    1
@<TRIPOS>MOLECULE
*****
 25 27 0 0 0
SMALL
GASTEIGER

@<TRIPOS>ATOM
      1 C           4.6133   -4.5459   18.6661 C.3     1  UNL1        0.0522
      2 C           4.5956   -3.8950   20.0175 C.ar    1  UNL1        0.0625
      3 C           3.6861   -2.7309   20.2774 C.ar    1  UNL1        0.0522
      4 C           3.6684   -2.0801   21.6287 C.ar    1  UNL1        0.1483
      5 C           4.5601   -2.5934   22.7202 C.ar    1  UNL1        0.0612
      6 C           5.4696   -3.7576   22.4602 C.ar    1  UNL1        0.1374
      7 N           5.4873   -4.4084   21.1089 N.ar    1  UNL1       -0.2449
      8 C           6.3613   -4.2710   23.5517 C.2     1  UNL1        0.2684
      9 O           7.5250   -5.1558   23.2155 O.2     1  UNL1       -0.2681
     10 N           6.0895   -3.8996   24.9793 N.am    1  UNL1       -0.2645
     11 H           5.3257   -3.3189   25.2000 H       1  UNL1        0.1566
     12 C           6.9812   -4.4130   26.0708 C.ar    1  UNL1        0.1367
     13 C           6.9278   -5.8593   26.4649 C.ar    1  UNL1        0.0641
     14 C           7.8196   -6.3726   27.5563 C.ar    1  UNL1        0.1445
     15 F           7.7662   -7.8190   27.9504 F       1  UNL1       -0.2040
     16 C           8.7647   -5.4397   28.2536 C.ar    1  UNL1        0.0504
     17 C           8.8182   -3.9934   27.8595 C.ar    1  UNL1        0.1026
     18 N           7.9264   -3.4801   26.7681 N.ar    1  UNL1       -0.2289
     19 O           2.7589   -0.9159   21.8886 O.3     1  UNL1       -0.4502
     20 C           2.3516   -0.0158   20.7599 C.ar    1  UNL1        0.1835
     21 C           3.2558    1.0999   20.3266 C.ar    1  UNL1        0.1396
     22 N           2.8484    2.0000   19.1979 N.ar    1  UNL1       -0.2192
     23 C           1.5369    1.7843   18.5025 C.ar    1  UNL1        0.1991
     24 N           0.6328    0.6686   18.9358 N.ar    1  UNL1       -0.2192
     25 C           1.0402   -0.2314   20.0645 C.ar    1  UNL1        0.1396
@<TRIPOS>BOND
     1     1     2    1
     2     2     3   ar
     3     3     4   ar
     4     4    19    1
     5    19    20    1
     6    20    21   ar
     7    21    22   ar
     8    22    23   ar
     9    23    24   ar
    10    24    25   ar
    11     4     5   ar
    12     5     6   ar
    13     6     8    1
    14     8     9    2
    15     8    10   am
    16    10    12    1
    17    12    13   ar
    18    13    14   ar
    19    14    15    1
    20    14    16   ar
    21    16    17   ar
    22    17    18   ar
    23     6     7   ar
    24     7     2   ar
    25    25    20   ar
    26    18    12   ar
    27    10    11    1
