@<TRIPOS>MOLECULE
*****
 28 31 0 0 0
SMALL
GASTEIGER

@<TRIPOS>ATOM
      1 C          -4.3611  -16.6841   23.7115 C.ar    1  UNL1        0.0195
      2 C          -4.0741  -17.2571   25.0676 C.ar    1  UNL1        0.0047
      3 C          -4.7769  -16.7128   26.2759 C.ar    1  UNL1        0.0369
      4 C          -5.7666  -15.5954   26.1279 C.ar    1  UNL1        0.1386
      5 C          -6.0536  -15.0223   24.7717 C.ar    1  UNL1        0.0369
      6 C          -5.3509  -15.5667   23.5635 C.ar    1  UNL1        0.0047
      7 C          -0.4392  -16.4700   20.3095 C.3     1  UNL1        0.1571
      8 N          -1.6974  -17.1214   20.8023 N.ar    1  UNL1       -0.2146
      9 N          -2.4002  -16.5771   22.0105 N.ar    1  UNL1       -0.1668
     10 C          -3.6583  -17.2284   22.5032 C.ar    1  UNL1        0.1011
     11 C          -4.2137  -18.4241   21.7878 C.ar    1  UNL1        0.0240
     12 C          -5.4719  -19.0754   22.2805 C.ar    1  UNL1        0.0017
     13 C          -6.0272  -20.2711   21.5650 C.ar    1  UNL1        0.0001
     14 C          -5.3245  -20.8154   20.3568 C.ar    1  UNL1        0.0002
     15 C          -4.0663  -20.1641   19.8641 C.ar    1  UNL1        0.0048
     16 C          -3.5110  -18.9685   20.5795 C.ar    1  UNL1        0.0591
     17 C          -2.2528  -18.3171   20.0868 C.ar    1  UNL1        0.2764
     18 O          -1.5500  -18.8614   18.8786 O.2     1  UNL1       -0.2655
     19 O          -6.4694  -15.0511   27.3362 O.3     1  UNL1       -0.4754
     20 C          -7.9151  -15.3740   27.5718 C.3     1  UNL1        0.2068
     21 C          -8.5406  -16.5549   26.8905 C.3     1  UNL1        0.0646
     22 C          -9.1158  -16.4080   25.5128 C.3     1  UNL1        0.0759
     23 N          -9.3750  -17.6247   24.6747 N.3     1  UNL1       -0.2726
     24 C          -8.9513  -17.6486   23.2361 C.3     1  UNL1        0.0721
     25 C          -9.2106  -18.8653   22.3980 C.3     1  UNL1        0.0174
     26 C          -9.8935  -20.0581   22.9986 C.3     1  UNL1        0.0029
     27 C         -10.3173  -20.0342   24.4373 C.3     1  UNL1        0.0174
     28 C         -10.0580  -18.8175   25.2754 C.3     1  UNL1        0.0721
@<TRIPOS>BOND
     1     7     8    1
     2     8     9   ar
     3     9    10   ar
     4    10     1    1
     5     1     2   ar
     6     2     3   ar
     7     3     4   ar
     8     4    19    1
     9    19    20    1
    10    20    21    1
    11    21    22    1
    12    22    23    1
    13    23    24    1
    14    24    25    1
    15    25    26    1
    16    26    27    1
    17    27    28    1
    18     4     5   ar
    19     5     6   ar
    20    10    11   ar
    21    11    12   ar
    22    12    13   ar
    23    13    14   ar
    24    14    15   ar
    25    15    16   ar
    26    16    17   ar
    27    17    18    2
    28    17     8   ar
    29     6     1   ar
    30    16    11   ar
    31    28    23    1
@<TRIPOS>MOLECULE
*****
 28 31 0 0 0
SMALL
GASTEIGER

@<TRIPOS>ATOM
      1 C          -7.7712  -16.7840   22.6958 C.ar    1  UNL1        0.0195
      2 C          -7.2338  -15.5712   23.3960 C.ar    1  UNL1        0.0047
      3 C          -5.7999  -15.5321   23.8346 C.ar    1  UNL1        0.0369
      4 C          -4.9034  -16.7059   23.5731 C.ar    1  UNL1        0.1386
      5 C          -5.4407  -17.9188   22.8729 C.ar    1  UNL1        0.0369
      6 C          -6.8746  -17.9579   22.4343 C.ar    1  UNL1        0.0047
      7 C         -11.4594  -15.5403   19.2534 C.3     1  UNL1        0.1571
      8 N         -11.0492  -16.2013   20.5360 N.ar    1  UNL1       -0.2146
      9 N          -9.6153  -16.1622   20.9746 N.ar    1  UNL1       -0.1668
     10 C          -9.2051  -16.8231   22.2571 C.ar    1  UNL1        0.1011
     11 C         -10.2287  -17.5231   23.1010 C.ar    1  UNL1        0.0240
     12 C          -9.8185  -18.1840   24.3836 C.ar    1  UNL1        0.0017
     13 C         -10.8422  -18.8840   25.2274 C.ar    1  UNL1        0.0001
     14 C         -12.2761  -18.9230   24.7887 C.ar    1  UNL1        0.0002
     15 C         -12.6863  -18.2621   23.5062 C.ar    1  UNL1        0.0048
     16 C         -11.6626  -17.5622   22.6624 C.ar    1  UNL1        0.0591
     17 C         -12.0728  -16.9012   21.3798 C.ar    1  UNL1        0.2764
     18 O         -13.5067  -16.9403   20.9411 O.2     1  UNL1       -0.2655
     19 O          -3.4695  -16.6668   24.0118 O.3     1  UNL1       -0.4754
     20 C          -2.3898  -17.1520   23.0905 C.3     1  UNL1        0.2068
     21 C          -2.0657  -16.3827   21.8442 C.3     1  UNL1        0.0646
     22 C          -2.0994  -17.0675   20.5100 C.3     1  UNL1        0.0759
     23 N          -2.9953  -18.2516   20.2972 N.3     1  UNL1       -0.2726
     24 C          -4.3062  -18.0825   19.5883 C.3     1  UNL1        0.0721
     25 C          -5.2021  -19.2666   19.3755 C.3     1  UNL1        0.0174
     26 C          -4.7870  -20.6199   19.8716 C.3     1  UNL1        0.0029
     27 C          -3.4760  -20.7891   20.5806 C.3     1  UNL1        0.0174
     28 C          -2.5801  -19.6050   20.7934 C.3     1  UNL1        0.0721
@<TRIPOS>BOND
     1     7     8    1
     2     8     9   ar
     3     9    10   ar
     4    10     1    1
     5     1     2   ar
     6     2     3   ar
     7     3     4   ar
     8     4    19    1
     9    19    20    1
    10    20    21    1
    11    21    22    1
    12    22    23    1
    13    23    24    1
    14    24    25    1
    15    25    26    1
    16    26    27    1
    17    27    28    1
    18     4     5   ar
    19     5     6   ar
    20    10    11   ar
    21    11    12   ar
    22    12    13   ar
    23    13    14   ar
    24    14    15   ar
    25    15    16   ar
    26    16    17   ar
    27    17    18    2
    28    17     8   ar
    29     6     1   ar
    30    16    11   ar
    31    28    23    1
@<TRIPOS>MOLECULE
*****
 28 31 0 0 0
SMALL
GASTEIGER

@<TRIPOS>ATOM
      1 C          -7.8714  -18.4912   20.8879 C.ar    1  UNL1        0.0195
      2 C          -8.7105  -19.2912   19.9362 C.ar    1  UNL1        0.0047
      3 C         -10.1460  -18.9206   19.7082 C.ar    1  UNL1        0.0369
      4 C         -10.7424  -17.7500   20.4320 C.ar    1  UNL1        0.1386
      5 C          -9.9033  -16.9500   21.3838 C.ar    1  UNL1        0.0369
      6 C          -8.4678  -17.3205   21.6118 C.ar    1  UNL1        0.0047
      7 C          -3.6854  -21.2854   19.5956 C.3     1  UNL1        0.1571
      8 N          -4.3429  -20.2589   20.4698 N.ar    1  UNL1       -0.2146
      9 N          -5.7784  -19.8883   20.2418 N.ar    1  UNL1       -0.1668
     10 C          -6.4359  -18.8618   21.1159 C.ar    1  UNL1        0.1011
     11 C          -5.6579  -18.2059   22.2180 C.ar    1  UNL1        0.0240
     12 C          -6.3154  -17.1794   23.0920 C.ar    1  UNL1        0.0017
     13 C          -5.5374  -16.5236   24.1941 C.ar    1  UNL1        0.0001
     14 C          -4.1019  -16.8941   24.4220 C.ar    1  UNL1        0.0002
     15 C          -3.4444  -17.9206   23.5479 C.ar    1  UNL1        0.0048
     16 C          -4.2224  -18.5765   22.4459 C.ar    1  UNL1        0.0591
     17 C          -3.5649  -19.6030   21.5718 C.ar    1  UNL1        0.2764
     18 O          -2.1294  -19.9736   21.7998 O.2     1  UNL1       -0.2655
     19 O         -12.1780  -17.3795   20.2041 O.3     1  UNL1       -0.4754
     20 C         -13.0019  -16.8395   21.3352 C.3     1  UNL1        0.2068
     21 C         -13.6779  -17.7813   22.2870 C.3     1  UNL1        0.0646
     22 C         -13.0995  -18.0120   23.6517 C.3     1  UNL1        0.0759
     23 N         -11.7610  -18.6732   23.7970 N.3     1  UNL1       -0.2726
     24 C         -10.7512  -18.1191   24.7578 C.3     1  UNL1        0.0721
     25 C          -9.4126  -18.7803   24.9031 C.3     1  UNL1        0.0174
     26 C          -9.0839  -19.9955   24.0876 C.3     1  UNL1        0.0029
     27 C         -10.0938  -20.5496   23.1267 C.3     1  UNL1        0.0174
     28 C         -11.4323  -19.8884   22.9814 C.3     1  UNL1        0.0721
@<TRIPOS>BOND
     1     7     8    1
     2     8     9   ar
     3     9    10   ar
     4    10     1    1
     5     1     2   ar
     6     2     3   ar
     7     3     4   ar
     8     4    19    1
     9    19    20    1
    10    20    21    1
    11    21    22    1
    12    22    23    1
    13    23    24    1
    14    24    25    1
    15    25    26    1
    16    26    27    1
    17    27    28    1
    18     4     5   ar
    19     5     6   ar
    20    10    11   ar
    21    11    12   ar
    22    12    13   ar
    23    13    14   ar
    24    14    15   ar
    25    15    16   ar
    26    16    17   ar
    27    17    18    2
    28    17     8   ar
    29     6     1   ar
    30    16    11   ar
    31    28    23    1
@<TRIPOS>MOLECULE
*****
 28 31 0 0 0
SMALL
GASTEIGER

@<TRIPOS>ATOM
      1 C          -7.7376  -19.3948   21.2636 C.ar    1  UNL1        0.0195
      2 C          -8.4832  -19.9076   22.4599 C.ar    1  UNL1        0.0047
      3 C          -9.9810  -19.8360   22.4974 C.ar    1  UNL1        0.0369
      4 C         -10.7332  -19.2515   21.3388 C.ar    1  UNL1        0.1386
      5 C          -9.9876  -18.7387   20.1424 C.ar    1  UNL1        0.0369
      6 C          -8.4898  -18.8103   20.1049 C.ar    1  UNL1        0.0047
      7 C          -3.3794  -21.5104   19.3846 C.3     1  UNL1        0.1571
      8 N          -4.0607  -20.5242   20.2866 N.ar    1  UNL1       -0.2146
      9 N          -5.5585  -20.4526   20.3242 N.ar    1  UNL1       -0.1668
     10 C          -6.2398  -19.4665   21.2260 C.ar    1  UNL1        0.1011
     11 C          -5.4232  -18.5520   22.0904 C.ar    1  UNL1        0.0240
     12 C          -6.1045  -17.5659   22.9923 C.ar    1  UNL1        0.0017
     13 C          -5.2880  -16.6514   23.8565 C.ar    1  UNL1        0.0001
     14 C          -3.7902  -16.7231   23.8190 C.ar    1  UNL1        0.0002
     15 C          -3.1089  -17.7092   22.9171 C.ar    1  UNL1        0.0048
     16 C          -3.9254  -18.6236   22.0528 C.ar    1  UNL1        0.0591
     17 C          -3.2441  -19.6098   21.1509 C.ar    1  UNL1        0.2764
     18 O          -1.7463  -19.6814   21.1133 O.2     1  UNL1       -0.2655
     19 O         -12.2310  -19.1799   21.3764 O.3     1  UNL1       -0.4754
     20 C         -12.9130  -17.8684   21.6308 C.3     1  UNL1        0.2068
     21 C         -12.4774  -17.0068   22.7789 C.3     1  UNL1        0.0646
     22 C         -11.1209  -16.3666   22.7636 C.3     1  UNL1        0.0759
     23 N         -10.2185  -16.4931   23.9551 N.3     1  UNL1       -0.2726
     24 C          -9.2874  -15.3728   24.3130 C.3     1  UNL1        0.0721
     25 C          -8.3849  -15.4993   25.5045 C.3     1  UNL1        0.0174
     26 C          -8.4135  -16.7461   26.3380 C.3     1  UNL1        0.0029
     27 C          -9.3446  -17.8664   25.9800 C.3     1  UNL1        0.0174
     28 C         -10.2471  -17.7399   24.7886 C.3     1  UNL1        0.0721
@<TRIPOS>BOND
     1     7     8    1
     2     8     9   ar
     3     9    10   ar
     4    10     1    1
     5     1     2   ar
     6     2     3   ar
     7     3     4   ar
     8     4    19    1
     9    19    20    1
    10    20    21    1
    11    21    22    1
    12    22    23    1
    13    23    24    1
    14    24    25    1
    15    25    26    1
    16    26    27    1
    17    27    28    1
    18     4     5   ar
    19     5     6   ar
    20    10    11   ar
    21    11    12   ar
    22    12    13   ar
    23    13    14   ar
    24    14    15   ar
    25    15    16   ar
    26    16    17   ar
    27    17    18    2
    28    17     8   ar
    29     6     1   ar
    30    16    11   ar
    31    28    23    1
@<TRIPOS>MOLECULE
*****
 28 31 0 0 0
SMALL
GASTEIGER

@<TRIPOS>ATOM
      1 C           7.0271   -3.6302   21.5044 C.ar    1  UNL1        0.0195
      2 C           8.1498   -2.8046   20.9495 C.ar    1  UNL1        0.0047
      3 C           8.0211   -2.1790   19.5923 C.ar    1  UNL1        0.0369
      4 C           6.7697   -2.3791   18.7899 C.ar    1  UNL1        0.1386
      5 C           5.6469   -3.2047   19.3447 C.ar    1  UNL1        0.0369
      6 C           5.7756   -3.8303   20.7020 C.ar    1  UNL1        0.0047
      7 C           8.4289   -7.6406   24.4963 C.3     1  UNL1        0.1571
      8 N           7.8567   -6.2609   24.3576 N.ar    1  UNL1       -0.2146
      9 N           7.7280   -5.6354   23.0004 N.ar    1  UNL1       -0.1668
     10 C           7.1558   -4.2558   22.8616 C.ar    1  UNL1        0.1011
     11 C           6.7123   -3.5017   24.0801 C.ar    1  UNL1        0.0240
     12 C           6.1402   -2.1221   23.9414 C.ar    1  UNL1        0.0017
     13 C           5.6967   -1.3681   25.1599 C.ar    1  UNL1        0.0001
     14 C           5.8254   -1.9936   26.5171 C.ar    1  UNL1        0.0002
     15 C           6.3976   -3.3732   26.6559 C.ar    1  UNL1        0.0048
     16 C           6.8411   -4.1272   25.4374 C.ar    1  UNL1        0.0591
     17 C           7.4133   -5.5069   25.5761 C.ar    1  UNL1        0.2764
     18 O           7.5420   -6.1325   26.9333 O.2     1  UNL1       -0.2655
     19 O           6.6410   -1.7535   17.4327 O.3     1  UNL1       -0.4754
     20 C           6.7219   -0.2632   17.2830 C.3     1  UNL1        0.2068
     21 C           5.5063    0.5170   16.8785 C.3     1  UNL1        0.0646
     22 C           4.6527    1.1713   17.9242 C.3     1  UNL1        0.0759
     23 N           4.1579    0.3743   19.0946 N.3     1  UNL1       -0.2726
     24 C           2.9786   -0.5389   18.9354 C.3     1  UNL1        0.0721
     25 C           2.4837   -1.3358   20.1059 C.3     1  UNL1        0.0174
     26 C           3.1681   -1.2195   21.4356 C.3     1  UNL1        0.0029
     27 C           4.3474   -0.3063   21.5948 C.3     1  UNL1        0.0174
     28 C           4.8423    0.4906   20.4244 C.3     1  UNL1        0.0721
@<TRIPOS>BOND
     1     7     8    1
     2     8     9   ar
     3     9    10   ar
     4    10     1    1
     5     1     2   ar
     6     2     3   ar
     7     3     4   ar
     8     4    19    1
     9    19    20    1
    10    20    21    1
    11    21    22    1
    12    22    23    1
    13    23    24    1
    14    24    25    1
    15    25    26    1
    16    26    27    1
    17    27    28    1
    18     4     5   ar
    19     5     6   ar
    20    10    11   ar
    21    11    12   ar
    22    12    13   ar
    23    13    14   ar
    24    14    15   ar
    25    15    16   ar
    26    16    17   ar
    27    17    18    2
    28    17     8   ar
    29     6     1   ar
    30    16    11   ar
    31    28    23    1
@<TRIPOS>MOLECULE
*****
 28 31 0 0 0
SMALL
GASTEIGER

@<TRIPOS>ATOM
      1 C           2.8253    0.1371   19.6415 C.ar    1  UNL1        0.0195
      2 C           2.3137    0.0971   21.0509 C.ar    1  UNL1        0.0047
      3 C           0.9819    0.7020   21.3829 C.ar    1  UNL1        0.0369
      4 C           0.1615    1.3469   20.3054 C.ar    1  UNL1        0.1386
      5 C           0.6731    1.3870   18.8958 C.ar    1  UNL1        0.0369
      6 C           2.0050    0.7821   18.5639 C.ar    1  UNL1        0.0047
      7 C           7.8857    0.6919   18.5999 C.3     1  UNL1        0.1571
      8 N           6.6873   -0.1904   18.7887 N.ar    1  UNL1       -0.2146
      9 N           5.3555    0.4145   19.1207 N.ar    1  UNL1       -0.1668
     10 C           4.1572   -0.4678   19.3095 C.ar    1  UNL1        0.1011
     11 C           4.2907   -1.9550   19.1663 C.ar    1  UNL1        0.0240
     12 C           3.0924   -2.8372   19.3551 C.ar    1  UNL1        0.0017
     13 C           3.2260   -4.3243   19.2119 C.ar    1  UNL1        0.0001
     14 C           4.5578   -4.9292   18.8799 C.ar    1  UNL1        0.0002
     15 C           5.7561   -4.0470   18.6911 C.ar    1  UNL1        0.0048
     16 C           5.6226   -2.5599   18.8343 C.ar    1  UNL1        0.0591
     17 C           6.8209   -1.6776   18.6455 C.ar    1  UNL1        0.2764
     18 O           8.1528   -2.2825   18.3135 O.2     1  UNL1       -0.2655
     19 O          -1.1703    1.9518   20.6374 O.3     1  UNL1       -0.4754
     20 C          -1.4905    3.3491   20.1958 C.3     1  UNL1        0.2068
     21 C          -2.7295    4.0292   20.6982 C.3     1  UNL1        0.0646
     22 C          -3.9553    3.2217   21.0072 C.3     1  UNL1        0.0759
     23 N          -4.8559    3.6277   22.1360 N.3     1  UNL1       -0.2726
     24 C          -4.3840    3.5022   23.5543 C.3     1  UNL1        0.0721
     25 C          -5.2846    3.9082   24.6830 C.3     1  UNL1        0.0174
     26 C          -6.6571    4.4396   24.3935 C.3     1  UNL1        0.0029
     27 C          -7.1290    4.5651   22.9752 C.3     1  UNL1        0.0174
     28 C          -6.2284    4.1592   21.8464 C.3     1  UNL1        0.0721
@<TRIPOS>BOND
     1     7     8    1
     2     8     9   ar
     3     9    10   ar
     4    10     1    1
     5     1     2   ar
     6     2     3   ar
     7     3     4   ar
     8     4    19    1
     9    19    20    1
    10    20    21    1
    11    21    22    1
    12    22    23    1
    13    23    24    1
    14    24    25    1
    15    25    26    1
    16    26    27    1
    17    27    28    1
    18     4     5   ar
    19     5     6   ar
    20    10    11   ar
    21    11    12   ar
    22    12    13   ar
    23    13    14   ar
    24    14    15   ar
    25    15    16   ar
    26    16    17   ar
    27    17    18    2
    28    17     8   ar
    29     6     1   ar
    30    16    11   ar
    31    28    23    1
@<TRIPOS>MOLECULE
*****
 28 31 0 0 0
SMALL
GASTEIGER

@<TRIPOS>ATOM
      1 C           6.3091   -3.0051   24.2606 C.ar    1  UNL1        0.0195
      2 C           7.1914   -1.8108   24.0484 C.ar    1  UNL1        0.0047
      3 C           6.7289   -0.6823   23.1752 C.ar    1  UNL1        0.0369
      4 C           5.3840   -0.7481   22.5142 C.ar    1  UNL1        0.1386
      5 C           4.5016   -1.9424   22.7264 C.ar    1  UNL1        0.0369
      6 C           4.9642   -3.0710   23.5996 C.ar    1  UNL1        0.0047
      7 C           6.5331   -5.2865   28.9238 C.3     1  UNL1        0.1571
      8 N           6.8837   -5.2744   27.4653 N.ar    1  UNL1       -0.2146
      9 N           6.4212   -4.1459   26.5921 N.ar    1  UNL1       -0.1668
     10 C           6.7717   -4.1337   25.1338 C.ar    1  UNL1        0.1011
     11 C           7.5849   -5.2501   24.5485 C.ar    1  UNL1        0.0240
     12 C           7.9354   -5.2379   23.0901 C.ar    1  UNL1        0.0017
     13 C           8.7485   -6.3543   22.5049 C.ar    1  UNL1        0.0001
     14 C           9.2111   -7.4828   23.3780 C.ar    1  UNL1        0.0002
     15 C           8.8606   -7.4950   24.8364 C.ar    1  UNL1        0.0048
     16 C           8.0474   -6.3786   25.4216 C.ar    1  UNL1        0.0591
     17 C           7.6969   -6.3908   26.8801 C.ar    1  UNL1        0.2764
     18 O           8.1594   -7.5193   27.7533 O.2     1  UNL1       -0.2655
     19 O           4.9214    0.3805   21.6411 O.3     1  UNL1       -0.4754
     20 C           5.8652    1.0002   20.6536 C.3     1  UNL1        0.2068
     21 C           5.5893    0.8926   19.1831 C.3     1  UNL1        0.0646
     22 C           5.9458   -0.3624   18.4429 C.3     1  UNL1        0.0759
     23 N           5.4549   -1.6904   18.9383 N.3     1  UNL1       -0.2726
     24 C           4.0019   -2.0441   18.8211 C.3     1  UNL1        0.0721
     25 C           3.5110   -3.3721   19.3165 C.3     1  UNL1        0.0174
     26 C           4.4730   -4.3464   19.9291 C.3     1  UNL1        0.0029
     27 C           5.9260   -3.9927   20.0463 C.3     1  UNL1        0.0174
     28 C           6.4170   -2.6647   19.5509 C.3     1  UNL1        0.0721
@<TRIPOS>BOND
     1     7     8    1
     2     8     9   ar
     3     9    10   ar
     4    10     1    1
     5     1     2   ar
     6     2     3   ar
     7     3     4   ar
     8     4    19    1
     9    19    20    1
    10    20    21    1
    11    21    22    1
    12    22    23    1
    13    23    24    1
    14    24    25    1
    15    25    26    1
    16    26    27    1
    17    27    28    1
    18     4     5   ar
    19     5     6   ar
    20    10    11   ar
    21    11    12   ar
    22    12    13   ar
    23    13    14   ar
    24    14    15   ar
    25    15    16   ar
    26    16    17   ar
    27    17    18    2
    28    17     8   ar
    29     6     1   ar
    30    16    11   ar
    31    28    23    1
@<TRIPOS>MOLECULE
*****
 28 31 0 0 0
SMALL
GASTEIGER

@<TRIPOS>ATOM
      1 C           6.3652   -3.5153   22.8868 C.ar    1  UNL1        0.0195
      2 C           5.0953   -3.9133   22.1947 C.ar    1  UNL1        0.0047
      3 C           4.9207   -3.6372   20.7307 C.ar    1  UNL1        0.0369
      4 C           6.0160   -2.9632   19.9588 C.ar    1  UNL1        0.1386
      5 C           7.2860   -2.5652   20.6508 C.ar    1  UNL1        0.0369
      6 C           7.4606   -2.8413   22.1149 C.ar    1  UNL1        0.0047
      7 C           5.6998   -2.1035   27.8430 C.3     1  UNL1        0.1571
      8 N           6.2071   -3.0855   26.8289 N.ar    1  UNL1       -0.2146
      9 N           6.0325   -2.8095   25.3649 N.ar    1  UNL1       -0.1668
     10 C           6.5398   -3.7914   24.3508 C.ar    1  UNL1        0.1011
     11 C           7.2216   -5.0495   24.8007 C.ar    1  UNL1        0.0240
     12 C           7.7289   -6.0314   23.7866 C.ar    1  UNL1        0.0017
     13 C           8.4107   -7.2894   24.2365 C.ar    1  UNL1        0.0001
     14 C           8.5853   -7.5655   25.7005 C.ar    1  UNL1        0.0002
     15 C           8.0781   -6.5836   26.7146 C.ar    1  UNL1        0.0048
     16 C           7.3962   -5.3256   26.2647 C.ar    1  UNL1        0.0591
     17 C           6.8889   -4.3435   27.2788 C.ar    1  UNL1        0.2764
     18 O           7.0635   -4.6196   28.7428 O.2     1  UNL1       -0.2655
     19 O           5.8415   -2.6871   18.4948 O.3     1  UNL1       -0.4754
     20 C           4.4760   -2.4030   17.9427 C.3     1  UNL1        0.2068
     21 C           4.1365   -1.0263   17.4534 C.3     1  UNL1        0.0646
     22 C           3.4716   -0.0460   18.3738 C.3     1  UNL1        0.0759
     23 N           3.6613   -0.1624   19.8572 N.3     1  UNL1       -0.2726
     24 C           2.5965   -0.7969   20.7019 C.3     1  UNL1        0.0721
     25 C           2.7862   -0.9134   22.1853 C.3     1  UNL1        0.0174
     26 C           4.0407   -0.3953   22.8239 C.3     1  UNL1        0.0029
     27 C           5.1055    0.2393   21.9792 C.3     1  UNL1        0.0174
     28 C           4.9158    0.3557   20.4958 C.3     1  UNL1        0.0721
@<TRIPOS>BOND
     1     7     8    1
     2     8     9   ar
     3     9    10   ar
     4    10     1    1
     5     1     2   ar
     6     2     3   ar
     7     3     4   ar
     8     4    19    1
     9    19    20    1
    10    20    21    1
    11    21    22    1
    12    22    23    1
    13    23    24    1
    14    24    25    1
    15    25    26    1
    16    26    27    1
    17    27    28    1
    18     4     5   ar
    19     5     6   ar
    20    10    11   ar
    21    11    12   ar
    22    12    13   ar
    23    13    14   ar
    24    14    15   ar
    25    15    16   ar
    26    16    17   ar
    27    17    18    2
    28    17     8   ar
    29     6     1   ar
    30    16    11   ar
    31    28    23    1
@<TRIPOS>MOLECULE
*****
 28 31 0 0 0
SMALL
GASTEIGER

@<TRIPOS>ATOM
      1 C           6.9841   -3.5428   23.4872 C.ar    1  UNL1        0.0195
      2 C           8.2266   -2.8824   22.9677 C.ar    1  UNL1        0.0047
      3 C           8.3172   -2.4849   21.5241 C.ar    1  UNL1        0.0369
      4 C           7.1653   -2.7478   20.6001 C.ar    1  UNL1        0.1386
      5 C           5.9226   -3.4082   21.1196 C.ar    1  UNL1        0.0369
      6 C           5.8320   -3.8057   22.5631 C.ar    1  UNL1        0.0047
      7 C           5.7493   -2.3940   28.4020 C.3     1  UNL1        0.1571
      8 N           6.2761   -3.3659   27.3881 N.ar    1  UNL1       -0.2146
      9 N           6.3667   -2.9684   25.9446 N.ar    1  UNL1       -0.1668
     10 C           6.8934   -3.9403   24.9307 C.ar    1  UNL1        0.1011
     11 C           7.3296   -5.3097   25.3603 C.ar    1  UNL1        0.0240
     12 C           7.8564   -6.2815   24.3465 C.ar    1  UNL1        0.0017
     13 C           8.2925   -7.6509   24.7761 C.ar    1  UNL1        0.0001
     14 C           8.2019   -8.0484   26.2196 C.ar    1  UNL1        0.0002
     15 C           7.6751   -7.0765   27.2335 C.ar    1  UNL1        0.0048
     16 C           7.2390   -5.7072   26.8039 C.ar    1  UNL1        0.0591
     17 C           6.7122   -4.7352   27.8178 C.ar    1  UNL1        0.2764
     18 O           6.6216   -5.1327   29.2613 O.2     1  UNL1       -0.2655
     19 O           7.2559   -2.3503   19.1566 O.3     1  UNL1       -0.4754
     20 C           6.9457   -0.9415   18.7457 C.3     1  UNL1        0.2068
     21 C           5.8988   -0.6770   17.7045 C.3     1  UNL1        0.0646
     22 C           4.6193   -1.4599   17.7117 C.3     1  UNL1        0.0759
     23 N           3.4138   -0.9201   18.4226 N.3     1  UNL1       -0.2726
     24 C           2.9931   -1.5070   19.7373 C.3     1  UNL1        0.0721
     25 C           1.7876   -0.9671   20.4482 C.3     1  UNL1        0.0174
     26 C           1.0028    0.1596   19.8444 C.3     1  UNL1        0.0029
     27 C           1.4235    0.7465   18.5296 C.3     1  UNL1        0.0174
     28 C           2.6290    0.2067   17.8187 C.3     1  UNL1        0.0721
@<TRIPOS>BOND
     1     7     8    1
     2     8     9   ar
     3     9    10   ar
     4    10     1    1
     5     1     2   ar
     6     2     3   ar
     7     3     4   ar
     8     4    19    1
     9    19    20    1
    10    20    21    1
    11    21    22    1
    12    22    23    1
    13    23    24    1
    14    24    25    1
    15    25    26    1
    16    26    27    1
    17    27    28    1
    18     4     5   ar
    19     5     6   ar
    20    10    11   ar
    21    11    12   ar
    22    12    13   ar
    23    13    14   ar
    24    14    15   ar
    25    15    16   ar
    26    16    17   ar
    27    17    18    2
    28    17     8   ar
    29     6     1   ar
    30    16    11   ar
    31    28    23    1
