@<TRIPOS>MOLECULE
*****
 21 23 0 0 0
SMALL
GASTEIGER

@<TRIPOS>ATOM
      1 C          -7.6828  -17.0189   23.2963 C.2     1  UNL1       -0.0247
      2 C          -8.1911  -17.7928   22.1161 C.2     1  UNL1       -0.0048
      3 C          -7.2061  -18.7258   21.4764 C.ar    1  UNL1       -0.0043
      4 C          -5.8794  -18.6853   22.1753 C.ar    1  UNL1       -0.0003
      5 C          -4.7506  -19.5468   21.6920 C.ar    1  UNL1       -0.0000
      6 C          -4.9485  -20.4488   20.5099 C.ar    1  UNL1       -0.0003
      7 C          -6.2751  -20.4893   19.8111 C.ar    1  UNL1       -0.0043
      8 C          -7.4039  -19.6278   20.2944 C.ar    1  UNL1       -0.0218
      9 C          -8.6357  -19.8195   19.4601 C.3     1  UNL1        0.0310
     10 C          -9.9738  -19.1566   19.6017 C.3     1  UNL1        0.0310
     11 C         -10.4106  -18.1383   20.6128 C.ar    1  UNL1       -0.0218
     12 C         -11.8391  -17.7330   20.4003 C.ar    1  UNL1       -0.0043
     13 C         -12.4743  -16.7207   21.3069 C.ar    1  UNL1       -0.0003
     14 C         -11.6809  -16.1137   22.4259 C.ar    1  UNL1       -0.0000
     15 C         -10.2525  -16.5190   22.6383 C.ar    1  UNL1       -0.0003
     16 C          -9.6173  -17.5313   21.7318 C.ar    1  UNL1       -0.0043
     17 C          -8.5875  -16.0579   24.0091 C.3     1  UNL1        0.0431
     18 C          -8.0214  -15.1019   25.0169 C.3     1  UNL1        0.0733
     19 C          -5.5127  -15.1392   25.6913 C.3     1  UNL1        0.0859
     20 N          -6.6245  -14.5803   24.8537 N.3     1  UNL1       -0.2960
     21 H          -6.3649  -14.7337   23.8793 H       1  UNL1        0.1233
@<TRIPOS>BOND
     1    19    20    1
     2    20    18    1
     3    18    17    1
     4    17     1    1
     5     1     2    2
     6     2     3    1
     7     3     4   ar
     8     4     5   ar
     9     5     6   ar
    10     6     7   ar
    11     7     8   ar
    12     8     9    1
    13     9    10    1
    14    10    11    1
    15    11    12   ar
    16    12    13   ar
    17    13    14   ar
    18    14    15   ar
    19    15    16   ar
    20    16     2    1
    21     8     3   ar
    22    16    11   ar
    23    20    21    1
@<TRIPOS>MOLECULE
*****
 21 23 0 0 0
SMALL
GASTEIGER

@<TRIPOS>ATOM
      1 C          -7.6905  -16.6081   23.2555 C.2     1  UNL1       -0.0247
      2 C          -8.1280  -17.5295   22.1556 C.2     1  UNL1       -0.0048
      3 C          -9.5633  -17.4078   21.7371 C.ar    1  UNL1       -0.0043
      4 C         -10.2790  -16.3569   22.5329 C.ar    1  UNL1       -0.0003
      5 C         -11.7289  -16.0755   22.2710 C.ar    1  UNL1       -0.0000
      6 C         -12.4630  -16.8450   21.2132 C.ar    1  UNL1       -0.0003
      7 C         -11.7473  -17.8959   20.4174 C.ar    1  UNL1       -0.0043
      8 C         -10.2975  -18.1773   20.6794 C.ar    1  UNL1       -0.0218
      9 C          -9.7776  -19.2585   19.7789 C.3     1  UNL1        0.0310
     10 C          -8.3953  -19.8373   19.7138 C.3     1  UNL1        0.0310
     11 C          -7.1914  -19.4777   20.5331 C.ar    1  UNL1       -0.0218
     12 C          -5.9994  -20.3023   20.1467 C.ar    1  UNL1       -0.0043
     13 C          -4.6885  -20.0998   20.8470 C.ar    1  UNL1       -0.0003
     14 C          -4.5695  -19.0728   21.9337 C.ar    1  UNL1       -0.0000
     15 C          -5.7614  -18.2482   22.3201 C.ar    1  UNL1       -0.0003
     16 C          -7.0724  -18.4506   21.6198 C.ar    1  UNL1       -0.0043
     17 C          -6.2745  -16.6486   23.7490 C.3     1  UNL1        0.0431
     18 C          -5.6212  -15.3974   24.2567 C.3     1  UNL1        0.0733
     19 C          -6.3731  -15.4453   26.7431 C.3     1  UNL1        0.0859
     20 N          -6.1789  -14.6948   25.4588 N.3     1  UNL1       -0.2960
     21 H          -5.5505  -13.9180   25.6638 H       1  UNL1        0.1233
@<TRIPOS>BOND
     1    19    20    1
     2    20    18    1
     3    18    17    1
     4    17     1    1
     5     1     2    2
     6     2     3    1
     7     3     4   ar
     8     4     5   ar
     9     5     6   ar
    10     6     7   ar
    11     7     8   ar
    12     8     9    1
    13     9    10    1
    14    10    11    1
    15    11    12   ar
    16    12    13   ar
    17    13    14   ar
    18    14    15   ar
    19    15    16   ar
    20    16     2    1
    21     8     3   ar
    22    16    11   ar
    23    20    21    1
@<TRIPOS>MOLECULE
*****
 21 23 0 0 0
SMALL
GASTEIGER

@<TRIPOS>ATOM
      1 C          -7.9559  -19.1314   21.3063 C.2     1  UNL1       -0.0247
      2 C          -6.8417  -18.4360   22.0308 C.2     1  UNL1       -0.0048
      3 C          -5.4555  -18.8937   21.6858 C.ar    1  UNL1       -0.0043
      4 C          -5.4789  -19.9847   20.6567 C.ar    1  UNL1       -0.0003
      5 C          -4.1930  -20.5852   20.1711 C.ar    1  UNL1       -0.0000
      6 C          -2.8838  -20.0948   20.7146 C.ar    1  UNL1       -0.0003
      7 C          -2.8604  -19.0038   21.7437 C.ar    1  UNL1       -0.0043
      8 C          -4.1463  -18.4033   22.2294 C.ar    1  UNL1       -0.0218
      9 C          -3.9000  -17.3339   23.2520 C.3     1  UNL1        0.0310
     10 C          -4.9019  -16.4909   23.9838 C.3     1  UNL1        0.0310
     11 C          -6.3978  -16.5091   23.8735 C.ar    1  UNL1       -0.0218
     12 C          -7.0268  -15.4986   24.7862 C.ar    1  UNL1       -0.0043
     13 C          -8.5192  -15.3536   24.8298 C.ar    1  UNL1       -0.0003
     14 C          -9.3825  -16.2192   23.9607 C.ar    1  UNL1       -0.0000
     15 C          -8.7534  -17.2298   23.0480 C.ar    1  UNL1       -0.0003
     16 C          -7.2611  -17.3747   23.0043 C.ar    1  UNL1       -0.0043
     17 C          -9.3808  -18.7491   21.5777 C.3     1  UNL1        0.0431
     18 C         -10.3819  -18.7444   20.4606 C.3     1  UNL1        0.0733
     19 C         -11.5939  -16.4465   20.4518 C.3     1  UNL1        0.0859
     20 N         -10.7254  -17.4597   19.7669 N.3     1  UNL1       -0.2960
     21 H          -9.8428  -16.9949   19.5538 H       1  UNL1        0.1233
@<TRIPOS>BOND
     1    19    20    1
     2    20    18    1
     3    18    17    1
     4    17     1    1
     5     1     2    2
     6     2     3    1
     7     3     4   ar
     8     4     5   ar
     9     5     6   ar
    10     6     7   ar
    11     7     8   ar
    12     8     9    1
    13     9    10    1
    14    10    11    1
    15    11    12   ar
    16    12    13   ar
    17    13    14   ar
    18    14    15   ar
    19    15    16   ar
    20    16     2    1
    21     8     3   ar
    22    16    11   ar
    23    20    21    1
@<TRIPOS>MOLECULE
*****
 21 23 0 0 0
SMALL
GASTEIGER

@<TRIPOS>ATOM
      1 C          -6.5559  -16.6182   23.5384 C.2     1  UNL1       -0.0247
      2 C          -6.4812  -17.7128   22.5155 C.2     1  UNL1       -0.0048
      3 C          -7.7859  -18.1102   21.8910 C.ar    1  UNL1       -0.0043
      4 C          -8.9245  -17.3026   22.4398 C.ar    1  UNL1       -0.0003
      5 C         -10.3206  -17.5429   21.9467 C.ar    1  UNL1       -0.0000
      6 C         -10.5780  -18.5909   20.9048 C.ar    1  UNL1       -0.0003
      7 C          -9.4393  -19.3985   20.3561 C.ar    1  UNL1       -0.0043
      8 C          -8.0433  -19.1582   20.8492 C.ar    1  UNL1       -0.0218
      9 C          -7.0595  -20.0676   20.1745 C.3     1  UNL1        0.0310
     10 C          -5.5755  -20.1538   20.3750 C.3     1  UNL1        0.0310
     11 C          -4.7086  -19.3516   21.2997 C.ar    1  UNL1       -0.0218
     12 C          -3.2685  -19.7565   21.1898 C.ar    1  UNL1       -0.0043
     13 C          -2.2314  -19.0751   22.0326 C.ar    1  UNL1       -0.0003
     14 C          -2.6344  -17.9888   22.9852 C.ar    1  UNL1       -0.0000
     15 C          -4.0746  -17.5839   23.0951 C.ar    1  UNL1       -0.0003
     16 C          -5.1117  -18.2653   22.2524 C.ar    1  UNL1       -0.0043
     17 C          -5.3080  -16.1455   24.2235 C.3     1  UNL1        0.0431
     18 C          -5.4029  -15.2180   25.3986 C.3     1  UNL1        0.0733
     19 C          -7.0687  -15.8322   27.2954 C.3     1  UNL1        0.0859
     20 N          -6.7193  -15.0135   26.0880 N.3     1  UNL1       -0.2960
     21 H          -6.7521  -14.0355   26.3759 H       1  UNL1        0.1233
@<TRIPOS>BOND
     1    19    20    1
     2    20    18    1
     3    18    17    1
     4    17     1    1
     5     1     2    2
     6     2     3    1
     7     3     4   ar
     8     4     5   ar
     9     5     6   ar
    10     6     7   ar
    11     7     8   ar
    12     8     9    1
    13     9    10    1
    14    10    11    1
    15    11    12   ar
    16    12    13   ar
    17    13    14   ar
    18    14    15   ar
    19    15    16   ar
    20    16     2    1
    21     8     3   ar
    22    16    11   ar
    23    20    21    1
@<TRIPOS>MOLECULE
*****
 21 23 0 0 0
SMALL
GASTEIGER

@<TRIPOS>ATOM
      1 C          -6.6608  -18.9766   21.3610 C.2     1  UNL1       -0.0247
      2 C          -7.5855  -18.0977   22.1500 C.2     1  UNL1       -0.0048
      3 C          -9.0467  -18.2541   21.8490 C.ar    1  UNL1       -0.0043
      4 C          -9.2801  -19.2893   20.7890 C.ar    1  UNL1       -0.0003
      5 C         -10.6768  -19.6004   20.3393 C.ar    1  UNL1       -0.0000
      6 C         -11.8401  -18.8764   20.9496 C.ar    1  UNL1       -0.0003
      7 C         -11.6067  -17.8412   22.0097 C.ar    1  UNL1       -0.0043
      8 C         -10.2100  -17.5300   22.4594 C.ar    1  UNL1       -0.0218
      9 C         -10.1993  -16.4708   23.5215 C.3     1  UNL1        0.0310
     10 C          -9.0229  -15.8740   24.2355 C.3     1  UNL1        0.0310
     11 C          -7.5664  -16.1891   24.0638 C.ar    1  UNL1       -0.0218
     12 C          -6.7148  -15.3598   24.9787 C.ar    1  UNL1       -0.0043
     13 C          -5.2234  -15.5202   24.9654 C.ar    1  UNL1       -0.0003
     14 C          -4.5837  -16.5098   24.0373 C.ar    1  UNL1       -0.0000
     15 C          -5.4354  -17.3390   23.1224 C.ar    1  UNL1       -0.0003
     16 C          -6.9267  -17.1787   23.1357 C.ar    1  UNL1       -0.0043
     17 C          -5.1796  -18.8992   21.5849 C.3     1  UNL1        0.0431
     18 C          -4.2350  -19.1542   20.4479 C.3     1  UNL1        0.0733
     19 C          -2.6954  -17.6655   18.9771 C.3     1  UNL1        0.0859
     20 N          -4.0681  -18.1278   19.3669 N.3     1  UNL1       -0.2960
     21 H          -4.4990  -18.5127   18.5263 H       1  UNL1        0.1233
@<TRIPOS>BOND
     1    19    20    1
     2    20    18    1
     3    18    17    1
     4    17     1    1
     5     1     2    2
     6     2     3    1
     7     3     4   ar
     8     4     5   ar
     9     5     6   ar
    10     6     7   ar
    11     7     8   ar
    12     8     9    1
    13     9    10    1
    14    10    11    1
    15    11    12   ar
    16    12    13   ar
    17    13    14   ar
    18    14    15   ar
    19    15    16   ar
    20    16     2    1
    21     8     3   ar
    22    16    11   ar
    23    20    21    1
@<TRIPOS>MOLECULE
*****
 21 23 0 0 0
SMALL
GASTEIGER

@<TRIPOS>ATOM
      1 C          -8.4013  -18.3306   21.9373 C.2     1  UNL1       -0.0247
      2 C          -6.9775  -18.0787   22.3364 C.2     1  UNL1       -0.0048
      3 C          -6.7703  -17.0099   23.3683 C.ar    1  UNL1       -0.0043
      4 C          -8.0727  -16.4007   23.7956 C.ar    1  UNL1       -0.0003
      5 C          -8.0883  -15.3089   24.8240 C.ar    1  UNL1       -0.0000
      6 C          -6.8016  -14.8263   25.4252 C.ar    1  UNL1       -0.0003
      7 C          -5.4992  -15.4355   24.9979 C.ar    1  UNL1       -0.0043
      8 C          -5.4835  -16.5273   23.9695 C.ar    1  UNL1       -0.0218
      9 C          -4.0863  -16.9943   23.6872 C.3     1  UNL1        0.0310
     10 C          -3.6306  -18.0592   22.7341 C.3     1  UNL1        0.0310
     11 C          -4.4598  -18.9201   21.8278 C.ar    1  UNL1       -0.0218
     12 C          -3.6048  -19.8634   21.0346 C.ar    1  UNL1       -0.0043
     13 C          -4.2393  -20.8154   20.0644 C.ar    1  UNL1       -0.0003
     14 C          -5.7287  -20.8240   19.8874 C.ar    1  UNL1       -0.0000
     15 C          -6.5837  -19.8808   20.6806 C.ar    1  UNL1       -0.0003
     16 C          -5.9493  -18.9288   21.6507 C.ar    1  UNL1       -0.0043
     17 C          -8.7187  -19.3788   20.9123 C.3     1  UNL1        0.0431
     18 C         -10.0126  -19.3204   20.1556 C.3     1  UNL1        0.0733
     19 C         -11.6342  -17.2989   20.3378 C.3     1  UNL1        0.0859
     20 N         -10.5167  -18.0082   19.6322 N.3     1  UNL1       -0.2960
     21 H          -9.7214  -17.3695   19.6237 H       1  UNL1        0.1233
@<TRIPOS>BOND
     1    19    20    1
     2    20    18    1
     3    18    17    1
     4    17     1    1
     5     1     2    2
     6     2     3    1
     7     3     4   ar
     8     4     5   ar
     9     5     6   ar
    10     6     7   ar
    11     7     8   ar
    12     8     9    1
    13     9    10    1
    14    10    11    1
    15    11    12   ar
    16    12    13   ar
    17    13    14   ar
    18    14    15   ar
    19    15    16   ar
    20    16     2    1
    21     8     3   ar
    22    16    11   ar
    23    20    21    1
@<TRIPOS>MOLECULE
*****
 21 23 0 0 0
SMALL
GASTEIGER

@<TRIPOS>ATOM
      1 C          -5.7777  -18.3369   21.7755 C.2     1  UNL1       -0.0247
      2 C          -7.1109  -17.8360   22.2465 C.2     1  UNL1       -0.0048
      3 C          -7.0789  -16.9147   23.4298 C.ar    1  UNL1       -0.0043
      4 C          -5.6755  -16.6827   23.9059 C.ar    1  UNL1       -0.0003
      5 C          -5.4211  -15.7884   25.0830 C.ar    1  UNL1       -0.0000
      6 C          -6.5701  -15.1262   25.7839 C.ar    1  UNL1       -0.0003
      7 C          -7.9734  -15.3582   25.3078 C.ar    1  UNL1       -0.0043
      8 C          -8.2278  -16.2524   24.1307 C.ar    1  UNL1       -0.0218
      9 C          -9.6925  -16.3480   23.8215 C.3     1  UNL1        0.0310
     10 C         -10.3700  -17.1292   22.7350 C.3     1  UNL1        0.0310
     11 C          -9.7501  -18.0080   21.6893 C.ar    1  UNL1       -0.0218
     12 C         -10.7904  -18.6070   20.7898 C.ar    1  UNL1       -0.0043
     13 C         -10.3802  -19.5205   19.6729 C.ar    1  UNL1       -0.0003
     14 C          -8.9299  -19.8350   19.4555 C.ar    1  UNL1       -0.0000
     15 C          -7.8895  -19.2360   20.3550 C.ar    1  UNL1       -0.0003
     16 C          -8.2996  -18.3226   21.4718 C.ar    1  UNL1       -0.0043
     17 C          -5.6979  -19.2640   20.5990 C.3     1  UNL1        0.0431
     18 C          -4.4752  -19.2695   19.7300 C.3     1  UNL1        0.0733
     19 C          -2.4961  -17.6591   19.2403 C.3     1  UNL1        0.0859
     20 N          -3.9580  -17.9842   19.1552 N.3     1  UNL1       -0.2960
     21 H          -4.2023  -17.9851   18.1648 H       1  UNL1        0.1233
@<TRIPOS>BOND
     1    19    20    1
     2    20    18    1
     3    18    17    1
     4    17     1    1
     5     1     2    2
     6     2     3    1
     7     3     4   ar
     8     4     5   ar
     9     5     6   ar
    10     6     7   ar
    11     7     8   ar
    12     8     9    1
    13     9    10    1
    14    10    11    1
    15    11    12   ar
    16    12    13   ar
    17    13    14   ar
    18    14    15   ar
    19    15    16   ar
    20    16     2    1
    21     8     3   ar
    22    16    11   ar
    23    20    21    1
@<TRIPOS>MOLECULE
*****
 21 23 0 0 0
SMALL
GASTEIGER

@<TRIPOS>ATOM
      1 C          -6.1772  -16.7937   23.5085 C.2     1  UNL1       -0.0247
      2 C          -6.2290  -17.8734   22.4685 C.2     1  UNL1       -0.0048
      3 C          -4.9084  -18.4750   22.0887 C.ar    1  UNL1       -0.0043
      4 C          -3.7806  -17.8490   22.8541 C.ar    1  UNL1       -0.0003
      5 C          -2.3715  -18.3085   22.6233 C.ar    1  UNL1       -0.0000
      6 C          -2.0903  -19.3940   21.6270 C.ar    1  UNL1       -0.0003
      7 C          -3.2182  -20.0200   20.8616 C.ar    1  UNL1       -0.0043
      8 C          -4.6272  -19.5605   21.0924 C.ar    1  UNL1       -0.0218
      9 C          -5.5971  -20.3125   20.2299 C.3     1  UNL1        0.0310
     10 C          -7.0877  -20.1648   20.1506 C.3     1  UNL1        0.0310
     11 C          -7.9766  -19.2285   20.9144 C.ar    1  UNL1       -0.0218
     12 C          -9.4162  -19.4055   20.5321 C.ar    1  UNL1       -0.0043
     13 C         -10.4737  -18.5627   21.1814 C.ar    1  UNL1       -0.0003
     14 C         -10.0916  -17.5430   22.2129 C.ar    1  UNL1       -0.0000
     15 C          -8.6519  -17.3660   22.5952 C.ar    1  UNL1       -0.0003
     16 C          -7.5945  -18.2087   21.9459 C.ar    1  UNL1       -0.0043
     17 C          -7.4422  -16.1258   23.9599 C.3     1  UNL1        0.0431
     18 C          -7.3778  -14.8440   24.7363 C.3     1  UNL1        0.0733
     19 C          -8.2297  -15.6580   27.0518 C.3     1  UNL1        0.0859
     20 N          -7.2466  -14.8780   26.2302 N.3     1  UNL1       -0.2960
     21 H          -6.3230  -15.2588   26.4361 H       1  UNL1        0.1233
@<TRIPOS>BOND
     1    19    20    1
     2    20    18    1
     3    18    17    1
     4    17     1    1
     5     1     2    2
     6     2     3    1
     7     3     4   ar
     8     4     5   ar
     9     5     6   ar
    10     6     7   ar
    11     7     8   ar
    12     8     9    1
    13     9    10    1
    14    10    11    1
    15    11    12   ar
    16    12    13   ar
    17    13    14   ar
    18    14    15   ar
    19    15    16   ar
    20    16     2    1
    21     8     3   ar
    22    16    11   ar
    23    20    21    1
@<TRIPOS>MOLECULE
*****
 21 23 0 0 0
SMALL
GASTEIGER

@<TRIPOS>ATOM
      1 C          -9.8617  -16.5042   22.8507 C.2     1  UNL1       -0.0247
      2 C          -8.5848  -17.1941   22.4717 C.2     1  UNL1       -0.0048
      3 C          -7.3734  -16.8029   23.2651 C.ar    1  UNL1       -0.0043
      4 C          -7.7071  -15.7719   24.3022 C.ar    1  UNL1       -0.0003
      5 C          -6.6335  -15.2429   25.2064 C.ar    1  UNL1       -0.0000
      6 C          -5.2263  -15.7450   25.0735 C.ar    1  UNL1       -0.0003
      7 C          -4.8926  -16.7760   24.0364 C.ar    1  UNL1       -0.0043
      8 C          -5.9662  -17.3050   23.1323 C.ar    1  UNL1       -0.0218
      9 C          -5.4229  -18.3222   22.1731 C.3     1  UNL1        0.0310
     10 C          -6.1524  -19.0886   21.1099 C.3     1  UNL1        0.0310
     11 C          -7.6057  -19.0271   20.7434 C.ar    1  UNL1       -0.0218
     12 C          -7.9265  -19.9628   19.6157 C.ar    1  UNL1       -0.0043
     13 C          -9.3299  -20.0553   19.0942 C.ar    1  UNL1       -0.0003
     14 C         -10.4124  -19.2122   19.7002 C.ar    1  UNL1       -0.0000
     15 C         -10.0915  -18.2765   20.8278 C.ar    1  UNL1       -0.0003
     16 C          -8.6882  -18.1839   21.3494 C.ar    1  UNL1       -0.0043
     17 C         -11.1320  -16.8229   22.1194 C.3     1  UNL1        0.0431
     18 C         -12.4538  -16.6774   22.8136 C.3     1  UNL1        0.0733
     19 C         -13.9601  -18.1360   24.3477 C.3     1  UNL1        0.0859
     20 N         -13.3339  -17.8761   23.0096 N.3     1  UNL1       -0.2960
     21 H         -14.0973  -17.7938   22.3382 H       1  UNL1        0.1233
@<TRIPOS>BOND
     1    19    20    1
     2    20    18    1
     3    18    17    1
     4    17     1    1
     5     1     2    2
     6     2     3    1
     7     3     4   ar
     8     4     5   ar
     9     5     6   ar
    10     6     7   ar
    11     7     8   ar
    12     8     9    1
    13     9    10    1
    14    10    11    1
    15    11    12   ar
    16    12    13   ar
    17    13    14   ar
    18    14    15   ar
    19    15    16   ar
    20    16     2    1
    21     8     3   ar
    22    16    11   ar
    23    20    21    1
