@<TRIPOS>MOLECULE
*****
 33 35 0 0 0
SMALL
GASTEIGER

@<TRIPOS>ATOM
      1 C           6.3643   -2.8150   28.0553 C.ar    1  UNL1        0.0594
      2 C           7.3145   -3.6022   27.2024 C.ar    1  UNL1        0.0164
      3 C           7.2336   -3.5092   25.7074 C.ar    1  UNL1        0.0181
      4 C           6.2024   -2.6291   25.0654 C.ar    1  UNL1        0.0758
      5 C           5.2522   -1.8420   25.9183 C.ar    1  UNL1        0.1546
      6 F           4.2211   -0.9619   25.2763 F       1  UNL1       -0.2028
      7 C           5.3332   -1.9349   27.4133 C.ar    1  UNL1        0.0459
      8 N           6.1216   -2.5362   23.5705 N.pl3   1  UNL1       -0.3025
      9 C           6.8318   -1.3688   22.9517 C.3     1  UNL1        0.1096
     10 C           6.9370   -0.9998   21.5015 C.3     1  UNL1        0.1092
     11 N           6.3581   -1.7071   20.3122 N.3     1  UNL1       -0.2248
     12 N           5.5310   -2.9580   20.2791 N.am    1  UNL1       -0.2182
     13 C           5.0994   -3.4170   18.9179 C.2     1  UNL1        0.3060
     14 O           5.4985   -2.6355   17.7014 O.2     1  UNL1       -0.2675
     15 C           5.0785   -3.8106   21.4272 C.3     1  UNL1        0.1328
     16 C           5.3414   -3.6228   22.8921 C.3     1  UNL1        0.1140
     17 H           7.1638   -1.9178   19.7232 H       1  UNL1        0.1453
     18 C           4.2685   -4.6575   18.7732 C.3     1  UNL1        0.3942
     19 F           2.7744   -4.5762   18.8799 F       1  UNL1       -0.1880
     20 F           4.9317   -5.9792   18.5218 F       1  UNL1       -0.1880
     21 C           6.4879   -2.3071   31.9013 C.3     1  UNL1        0.2101
     22 C           6.3604   -1.7590   30.5109 C.3     1  UNL1        0.1468
     23 N           6.4452   -2.9079   29.5502 N.am    1  UNL1       -0.2212
     24 C           6.6251   -4.1661   30.3469 C.2     1  UNL1        0.4088
     25 O           6.7557   -5.5521   29.7886 O.2     1  UNL1       -0.2258
     26 O           6.6515   -3.7947   31.8000 O.3     1  UNL1       -0.4345
     27 C           6.4572   -1.5079   33.1703 C.3     1  UNL1        0.1358
     28 N           5.1548   -1.2698   33.8754 N.am    1  UNL1       -0.2954
     29 H           5.0410   -1.5583   34.8098 H       1  UNL1        0.1502
     30 C           4.0259   -0.5922   33.1570 C.2     1  UNL1        0.2296
     31 S           3.6811    0.8323   33.4765 S.2     1  UNL1        0.0058
     32 C           2.8228   -0.6485   30.8550 C.3     1  UNL1        0.2545
     33 O           3.2418   -1.3389   32.1191 O.3     1  UNL1       -0.4543
@<TRIPOS>BOND
     1    32    33    1
     2    33    30    1
     3    30    31    2
     4    30    28    1
     5    28    27    1
     6    21    27    1
     7    21    22    1
     8    22    23    1
     9    23     1    1
    10     1     2   ar
    11     2     3   ar
    12     3     4   ar
    13     4     8    1
    14     8     9    1
    15     9    10    1
    16    10    11    1
    17    11    12    1
    18    12    13   am
    19    13    14    2
    20    13    18    1
    21    18    19    1
    22    18    20    1
    23    12    15    1
    24    15    16    1
    25     4     5   ar
    26     5     6    1
    27     5     7   ar
    28    23    24   am
    29    24    25    2
    30    24    26    1
    31    26    21    1
    32     7     1   ar
    33    16     8    1
    34    28    29    1
    35    11    17    1
@<TRIPOS>MOLECULE
*****
 33 35 0 0 0
SMALL
GASTEIGER

@<TRIPOS>ATOM
      1 C          -0.4464    2.6691   26.8920 C.ar    1  UNL1        0.0594
      2 C           0.5691    3.5782   27.5184 C.ar    1  UNL1        0.0164
      3 C           1.2650    3.1675   28.7822 C.ar    1  UNL1        0.0181
      4 C           0.9454    1.8478   29.4195 C.ar    1  UNL1        0.0758
      5 C          -0.0700    0.9387   28.7931 C.ar    1  UNL1        0.1546
      6 F          -0.3895   -0.3810   29.4304 F       1  UNL1       -0.2028
      7 C          -0.7659    1.3494   27.5293 C.ar    1  UNL1        0.0459
      8 N           1.6414    1.4372   30.6833 N.pl3   1  UNL1       -0.3025
      9 C           1.3956    2.3135   31.8757 C.3     1  UNL1        0.1096
     10 C           1.9389    2.1736   33.2669 C.3     1  UNL1        0.1092
     11 N           2.8619    1.1231   33.8092 N.3     1  UNL1       -0.2248
     12 N           3.4698   -0.0472   33.0944 N.am    1  UNL1       -0.2182
     13 C           4.3605   -0.9248   33.9228 C.2     1  UNL1        0.3060
     14 O           4.5931   -0.6048   35.3697 O.2     1  UNL1       -0.2675
     15 C           3.3047   -0.4559   31.6606 C.3     1  UNL1        0.1328
     16 C           2.4909    0.2048   30.5876 C.3     1  UNL1        0.1140
     17 H           2.3485    0.7087   34.5871 H       1  UNL1        0.1453
     18 C           5.0187   -2.1225   33.3044 C.3     1  UNL1        0.3942
     19 F           4.4309   -3.4881   33.5043 F       1  UNL1       -0.1880
     20 F           6.2645   -1.9547   32.4861 F       1  UNL1       -0.1880
     21 C          -1.5848    3.5817   23.2953 C.3     1  UNL1        0.2101
     22 C          -0.5345    3.1108   24.2572 C.3     1  UNL1        0.1468
     23 N          -1.1423    3.0798   25.6283 N.am    1  UNL1       -0.2212
     24 C          -2.5681    3.5315   25.5137 C.2     1  UNL1        0.4088
     25 O          -3.5482    3.6518   26.6427 O.2     1  UNL1       -0.2258
     26 O          -2.8415    3.8417   24.0718 O.3     1  UNL1       -0.4345
     27 C          -1.4091    3.7612   21.8164 C.3     1  UNL1        0.1358
     28 N          -2.1246    2.8533   20.8605 N.am    1  UNL1       -0.2954
     29 H          -1.6710    2.0537   20.5080 H       1  UNL1        0.1502
     30 C          -3.5310    3.1636   20.4415 C.2     1  UNL1        0.2296
     31 S          -3.7847    3.9436   19.1856 S.2     1  UNL1        0.0058
     32 C          -5.5097    3.6864   22.0419 C.3     1  UNL1        0.2545
     33 O          -4.6838    2.6940   21.2785 O.3     1  UNL1       -0.4543
@<TRIPOS>BOND
     1    32    33    1
     2    33    30    1
     3    30    31    2
     4    30    28    1
     5    28    27    1
     6    21    27    1
     7    21    22    1
     8    22    23    1
     9    23     1    1
    10     1     2   ar
    11     2     3   ar
    12     3     4   ar
    13     4     8    1
    14     8     9    1
    15     9    10    1
    16    10    11    1
    17    11    12    1
    18    12    13   am
    19    13    14    2
    20    13    18    1
    21    18    19    1
    22    18    20    1
    23    12    15    1
    24    15    16    1
    25     4     5   ar
    26     5     6    1
    27     5     7   ar
    28    23    24   am
    29    24    25    2
    30    24    26    1
    31    26    21    1
    32     7     1   ar
    33    16     8    1
    34    28    29    1
    35    11    17    1
@<TRIPOS>MOLECULE
*****
 33 35 0 0 0
SMALL
GASTEIGER

@<TRIPOS>ATOM
      1 C          -0.5739    2.7271   26.8828 C.ar    1  UNL1        0.0594
      2 C           0.2814    3.7278   27.6020 C.ar    1  UNL1        0.0164
      3 C           0.9828    3.3411   28.8702 C.ar    1  UNL1        0.0181
      4 C           0.8289    1.9537   29.4194 C.ar    1  UNL1        0.0758
      5 C          -0.0263    0.9530   28.7003 C.ar    1  UNL1        0.1546
      6 F          -0.1802   -0.4343   29.2495 F       1  UNL1       -0.2028
      7 C          -0.7278    1.3397   27.4320 C.ar    1  UNL1        0.0459
      8 N           1.5304    1.5671   30.6876 N.pl3   1  UNL1       -0.3025
      9 C           1.2297    2.4208   31.8839 C.3     1  UNL1        0.1096
     10 C           1.7642    2.2962   33.2799 C.3     1  UNL1        0.1092
     11 N           2.7311    1.2872   33.8245 N.3     1  UNL1       -0.2248
     12 N           3.4027    0.1535   33.1076 N.am    1  UNL1       -0.2182
     13 C           4.3260   -0.6866   33.9393 C.2     1  UNL1        0.3060
     14 O           4.5272   -0.3674   35.3910 O.2     1  UNL1       -0.2675
     15 C           3.2730   -0.2511   31.6691 C.3     1  UNL1        0.1328
     16 C           2.4397    0.3781   30.5921 C.3     1  UNL1        0.1140
     17 H           2.2301    0.8422   34.5935 H       1  UNL1        0.1453
     18 C           5.0480   -1.8460   33.3192 C.3     1  UNL1        0.3942
     19 F           6.4641   -1.6843   32.8514 F       1  UNL1       -0.1880
     20 F           4.3540   -3.1670   33.1668 F       1  UNL1       -0.1880
     21 C          -1.7271    3.5743   23.2749 C.3     1  UNL1        0.2101
     22 C          -0.6722    3.1234   24.2412 C.3     1  UNL1        0.1468
     23 N          -1.2753    3.1137   25.6146 N.am    1  UNL1       -0.2212
     24 C          -2.7030    3.5586   25.4971 C.2     1  UNL1        0.4088
     25 O          -3.6799    3.6949   26.6271 O.2     1  UNL1       -0.2258
     26 O          -2.9822    3.8432   24.0510 O.3     1  UNL1       -0.4345
     27 C          -1.5569    3.7290   21.7926 C.3     1  UNL1        0.1358
     28 N          -1.4905    2.5147   20.9145 N.am    1  UNL1       -0.2954
     29 H          -2.2986    2.1990   20.4492 H       1  UNL1        0.1502
     30 C          -0.1929    1.7815   20.7452 C.2     1  UNL1        0.2296
     31 S           1.1028    2.5371   20.7596 S.2     1  UNL1        0.0058
     32 C           1.1042   -0.4363   20.3601 C.3     1  UNL1        0.2545
     33 O          -0.1910    0.2929   20.5616 O.3     1  UNL1       -0.4543
@<TRIPOS>BOND
     1    32    33    1
     2    33    30    1
     3    30    31    2
     4    30    28    1
     5    28    27    1
     6    21    27    1
     7    21    22    1
     8    22    23    1
     9    23     1    1
    10     1     2   ar
    11     2     3   ar
    12     3     4   ar
    13     4     8    1
    14     8     9    1
    15     9    10    1
    16    10    11    1
    17    11    12    1
    18    12    13   am
    19    13    14    2
    20    13    18    1
    21    18    19    1
    22    18    20    1
    23    12    15    1
    24    15    16    1
    25     4     5   ar
    26     5     6    1
    27     5     7   ar
    28    23    24   am
    29    24    25    2
    30    24    26    1
    31    26    21    1
    32     7     1   ar
    33    16     8    1
    34    28    29    1
    35    11    17    1
@<TRIPOS>MOLECULE
*****
 33 35 0 0 0
SMALL
GASTEIGER

@<TRIPOS>ATOM
      1 C           1.4486    0.8915   26.9851 C.ar    1  UNL1        0.0594
      2 C           2.8074    0.2934   26.7697 C.ar    1  UNL1        0.0164
      3 C           3.3032    0.0408   25.3768 C.ar    1  UNL1        0.0181
      4 C           2.4406    0.3861   24.1993 C.ar    1  UNL1        0.0758
      5 C           1.0819    0.9841   24.4147 C.ar    1  UNL1        0.1546
      6 F           0.2192    1.3294   23.2372 F       1  UNL1       -0.2028
      7 C           0.5859    1.2368   25.8077 C.ar    1  UNL1        0.0459
      8 N           2.9366    0.1334   22.8064 N.pl3   1  UNL1       -0.3025
      9 C           3.1617    1.3542   21.9643 C.3     1  UNL1        0.1096
     10 C           3.6477    1.4364   20.5475 C.3     1  UNL1        0.1092
     11 N           4.0286    0.3183   19.6232 N.3     1  UNL1       -0.2248
     12 N           4.0177   -1.1583   19.8870 N.am    1  UNL1       -0.2182
     13 C           4.4598   -2.0266   18.7467 C.2     1  UNL1        0.3060
     14 O           4.8758   -1.4036   17.4471 O.2     1  UNL1       -0.2675
     15 C           3.6230   -1.8814   21.1406 C.3     1  UNL1        0.1328
     16 C           3.1419   -1.3065   22.4398 C.3     1  UNL1        0.1140
     17 H           4.9919    0.5232   19.3577 H       1  UNL1        0.1453
     18 C           4.4859   -3.5179   18.9057 C.3     1  UNL1        0.3942
     19 F           5.7488   -4.2044   19.3348 F       1  UNL1       -0.1880
     20 F           3.2492   -4.3227   18.6357 F       1  UNL1       -0.1880
     21 C           0.7489    2.0203   30.6322 C.3     1  UNL1        0.2101
     22 C           1.5663    2.0811   29.3760 C.3     1  UNL1        0.1468
     23 N           0.9527    1.1442   28.3780 N.am    1  UNL1       -0.2212
     24 C          -0.2438    0.5044   29.0175 C.2     1  UNL1        0.4088
     25 O          -1.1544   -0.5004   28.3764 O.2     1  UNL1       -0.2258
     26 O          -0.3697    1.0459   30.4107 O.3     1  UNL1       -0.4345
     27 C           1.0052    2.7975   31.8893 C.3     1  UNL1        0.1358
     28 N           1.3200    2.0760   33.1662 N.am    1  UNL1       -0.2954
     29 H           0.5941    1.8272   33.7829 H       1  UNL1        0.1502
     30 C           2.7409    1.7335   33.5034 C.2     1  UNL1        0.2296
     31 S           3.2711    2.0040   34.8803 S.2     1  UNL1        0.0058
     32 C           3.4429   -0.3131   32.0653 C.3     1  UNL1        0.2545
     33 O           3.6316    1.1206   32.4638 O.3     1  UNL1       -0.4543
@<TRIPOS>BOND
     1    32    33    1
     2    33    30    1
     3    30    31    2
     4    30    28    1
     5    28    27    1
     6    21    27    1
     7    21    22    1
     8    22    23    1
     9    23     1    1
    10     1     2   ar
    11     2     3   ar
    12     3     4   ar
    13     4     8    1
    14     8     9    1
    15     9    10    1
    16    10    11    1
    17    11    12    1
    18    12    13   am
    19    13    14    2
    20    13    18    1
    21    18    19    1
    22    18    20    1
    23    12    15    1
    24    15    16    1
    25     4     5   ar
    26     5     6    1
    27     5     7   ar
    28    23    24   am
    29    24    25    2
    30    24    26    1
    31    26    21    1
    32     7     1   ar
    33    16     8    1
    34    28    29    1
    35    11    17    1
@<TRIPOS>MOLECULE
*****
 33 35 0 0 0
SMALL
GASTEIGER

@<TRIPOS>ATOM
      1 C           3.9549   -1.0171   27.7793 C.ar    1  UNL1        0.0594
      2 C           5.1021   -1.8979   27.3814 C.ar    1  UNL1        0.0164
      3 C           5.4312   -2.0911   25.9307 C.ar    1  UNL1        0.0181
      4 C           4.6134   -1.4034   24.8780 C.ar    1  UNL1        0.0758
      5 C           3.4663   -0.5226   25.2759 C.ar    1  UNL1        0.1546
      6 F           2.6485    0.1651   24.2232 F       1  UNL1       -0.2028
      7 C           3.1371   -0.3294   26.7266 C.ar    1  UNL1        0.0459
      8 N           4.9427   -1.5966   23.4274 N.pl3   1  UNL1       -0.3025
      9 C           5.8543   -0.5691   22.8246 C.3     1  UNL1        0.1096
     10 C           6.3652   -0.4830   21.4168 C.3     1  UNL1        0.1092
     11 N           6.0907   -1.4029   20.2644 N.3     1  UNL1       -0.2248
     12 N           5.2375   -2.6363   20.2349 N.am    1  UNL1       -0.2182
     13 C           5.1640   -3.3455   18.9152 C.2     1  UNL1        0.3060
     14 O           5.9167   -2.8103   17.7333 O.2     1  UNL1       -0.2675
     15 C           4.4481   -3.2543   21.3506 C.3     1  UNL1        0.1328
     16 C           4.3169   -2.7915   22.7714 C.3     1  UNL1        0.1140
     17 H           7.0126   -1.7229   19.9677 H       1  UNL1        0.1453
     18 C           4.3378   -4.5899   18.7774 C.3     1  UNL1        0.3942
     19 F           2.8404   -4.5015   18.7932 F       1  UNL1       -0.1880
     20 F           5.0089   -5.9225   18.6238 F       1  UNL1       -0.1880
     21 C           3.8427   -0.6160   31.6382 C.3     1  UNL1        0.2101
     22 C           4.6030   -0.8549   30.3675 C.3     1  UNL1        0.1468
     23 N           3.6257   -0.8239   29.2298 N.am    1  UNL1       -0.2212
     24 C           2.2615   -0.5658   29.7976 C.2     1  UNL1        0.4088
     25 O           0.9871   -0.4556   29.0144 O.2     1  UNL1       -0.2258
     26 O           2.3957   -0.4373   31.2860 O.3     1  UNL1       -0.4345
     27 C           4.4269   -0.5647   33.0188 C.3     1  UNL1        0.1358
     28 N           5.3865   -1.6270   33.4671 N.am    1  UNL1       -0.2954
     29 H           5.0757   -2.3569   34.0501 H       1  UNL1        0.1502
     30 C           6.8196   -1.5772   33.0271 C.2     1  UNL1        0.2296
     31 S           7.5763   -0.2832   33.0813 S.2     1  UNL1        0.0058
     32 C           6.6922   -3.8967   31.8638 C.3     1  UNL1        0.2545
     33 O           7.4960   -2.8214   32.5328 O.3     1  UNL1       -0.4543
@<TRIPOS>BOND
     1    32    33    1
     2    33    30    1
     3    30    31    2
     4    30    28    1
     5    28    27    1
     6    21    27    1
     7    21    22    1
     8    22    23    1
     9    23     1    1
    10     1     2   ar
    11     2     3   ar
    12     3     4   ar
    13     4     8    1
    14     8     9    1
    15     9    10    1
    16    10    11    1
    17    11    12    1
    18    12    13   am
    19    13    14    2
    20    13    18    1
    21    18    19    1
    22    18    20    1
    23    12    15    1
    24    15    16    1
    25     4     5   ar
    26     5     6    1
    27     5     7   ar
    28    23    24   am
    29    24    25    2
    30    24    26    1
    31    26    21    1
    32     7     1   ar
    33    16     8    1
    34    28    29    1
    35    11    17    1
@<TRIPOS>MOLECULE
*****
 33 35 0 0 0
SMALL
GASTEIGER

@<TRIPOS>ATOM
      1 C           1.5123    1.0379   26.8799 C.ar    1  UNL1        0.0594
      2 C           2.8859    0.4736   26.6679 C.ar    1  UNL1        0.0164
      3 C           3.3648    0.1675   25.2797 C.ar    1  UNL1        0.0181
      4 C           2.4703    0.4257   24.1037 C.ar    1  UNL1        0.0758
      5 C           1.0968    0.9899   24.3157 C.ar    1  UNL1        0.1546
      6 F           0.2022    1.2481   23.1397 F       1  UNL1       -0.2028
      7 C           0.6177    1.2961   25.7039 C.ar    1  UNL1        0.0459
      8 N           2.9493    0.1195   22.7156 N.pl3   1  UNL1       -0.3025
      9 C           3.0942    1.3004   21.8020 C.3     1  UNL1        0.1096
     10 C           3.5458    1.3264   20.3717 C.3     1  UNL1        0.1092
     11 N           3.9638    0.1781   19.5020 N.3     1  UNL1       -0.2248
     12 N           4.0336   -1.2799   19.8475 N.am    1  UNL1       -0.2182
     13 C           4.4955   -2.1882   18.7469 C.2     1  UNL1        0.3060
     14 O           4.8520   -1.6198   17.4053 O.2     1  UNL1       -0.2675
     15 C           3.7026   -1.9497   21.1483 C.3     1  UNL1        0.1328
     16 C           3.2201   -1.3268   22.4246 C.3     1  UNL1        0.1140
     17 H           4.9096    0.4153   19.2027 H       1  UNL1        0.1453
     18 C           4.6010   -3.6651   18.9877 C.3     1  UNL1        0.3942
     19 F           3.4433   -4.5624   18.6638 F       1  UNL1       -0.1880
     20 F           5.8640   -4.2445   19.5525 F       1  UNL1       -0.1880
     21 C           0.7879    2.3797   30.4492 C.3     1  UNL1        0.2101
     22 C           1.5473    2.4375   29.1570 C.3     1  UNL1        0.1468
     23 N           1.0333    1.3440   28.2680 N.am    1  UNL1       -0.2212
     24 C          -0.0437    0.6104   29.0109 C.2     1  UNL1        0.4088
     25 O          -0.8308   -0.5580   28.4961 O.2     1  UNL1       -0.2258
     26 O          -0.1953    1.2506   30.3590 O.3     1  UNL1       -0.4345
     27 C           0.9784    3.2911   31.6253 C.3     1  UNL1        0.1358
     28 N          -0.1967    3.6742   32.4753 N.am    1  UNL1       -0.2954
     29 H          -0.9609    3.0600   32.5644 H       1  UNL1        0.1502
     30 C          -0.2074    4.9931   33.1897 C.2     1  UNL1        0.2296
     31 S           1.0481    5.5114   33.8262 S.2     1  UNL1        0.0058
     32 C          -1.6780    6.9644   32.3525 C.3     1  UNL1        0.2545
     33 O          -1.4734    5.7936   33.2676 O.3     1  UNL1       -0.4543
@<TRIPOS>BOND
     1    32    33    1
     2    33    30    1
     3    30    31    2
     4    30    28    1
     5    28    27    1
     6    21    27    1
     7    21    22    1
     8    22    23    1
     9    23     1    1
    10     1     2   ar
    11     2     3   ar
    12     3     4   ar
    13     4     8    1
    14     8     9    1
    15     9    10    1
    16    10    11    1
    17    11    12    1
    18    12    13   am
    19    13    14    2
    20    13    18    1
    21    18    19    1
    22    18    20    1
    23    12    15    1
    24    15    16    1
    25     4     5   ar
    26     5     6    1
    27     5     7   ar
    28    23    24   am
    29    24    25    2
    30    24    26    1
    31    26    21    1
    32     7     1   ar
    33    16     8    1
    34    28    29    1
    35    11    17    1
@<TRIPOS>MOLECULE
*****
 33 35 0 0 0
SMALL
GASTEIGER

@<TRIPOS>ATOM
      1 C           2.5242    0.2358   27.1182 C.ar    1  UNL1        0.0594
      2 C           2.0329    0.9609   25.9004 C.ar    1  UNL1        0.0164
      3 C           2.5790    0.6109   24.5479 C.ar    1  UNL1        0.0181
      4 C           3.6164   -0.4641   24.4131 C.ar    1  UNL1        0.0758
      5 C           4.1077   -1.1892   25.6308 C.ar    1  UNL1        0.1546
      6 F           5.1451   -2.2642   25.4961 F       1  UNL1       -0.2028
      7 C           3.5616   -0.8392   26.9834 C.ar    1  UNL1        0.0459
      8 N           4.1625   -0.8140   23.0606 N.pl3   1  UNL1       -0.3025
      9 C           5.1083    0.1849   22.4623 C.3     1  UNL1        0.1096
     10 C           5.8158    0.1279   21.1408 C.3     1  UNL1        0.1092
     11 N           5.7522   -0.9418   20.0913 N.3     1  UNL1       -0.2248
     12 N           4.9655   -2.2189   20.1040 N.am    1  UNL1       -0.2182
     13 C           5.1162   -3.0882   18.8910 C.2     1  UNL1        0.3060
     14 O           6.0106   -2.6579   17.7663 O.2     1  UNL1       -0.2675
     15 C           4.0481   -2.7417   21.1694 C.3     1  UNL1        0.1328
     16 C           3.6907   -2.1164   22.4852 C.3     1  UNL1        0.1140
     17 H           6.7204   -1.2393   19.9708 H       1  UNL1        0.1453
     18 C           4.3725   -4.3879   18.8025 C.3     1  UNL1        0.3942
     19 F           2.8731   -4.3925   18.7573 F       1  UNL1       -0.1880
     20 F           5.1282   -5.6830   18.7593 F       1  UNL1       -0.1880
     21 C           1.8286    1.2989   30.7857 C.3     1  UNL1        0.2101
     22 C           2.7751    1.0740   29.6439 C.3     1  UNL1        0.1468
     23 N           1.9781    0.5858   28.4706 N.am    1  UNL1       -0.2212
     24 C           0.5392    0.5090   28.8873 C.2     1  UNL1        0.4088
     25 O          -0.6062    0.0689   28.0247 O.2     1  UNL1       -0.2258
     26 O           0.4468    0.9498   30.3181 O.3     1  UNL1       -0.4345
     27 C           2.1990    1.7873   32.1548 C.3     1  UNL1        0.1358
     28 N           2.8229    0.8471   33.1432 N.am    1  UNL1       -0.2954
     29 H           2.2861    0.4853   33.8850 H       1  UNL1        0.1502
     30 C           4.2646    0.4579   33.0013 C.2     1  UNL1        0.2296
     31 S           5.3380    1.4982   33.1267 S.2     1  UNL1        0.0058
     32 C           4.4174   -2.0118   33.7929 C.3     1  UNL1        0.2545
     33 O           4.6328   -0.9713   32.7342 O.3     1  UNL1       -0.4543
@<TRIPOS>BOND
     1    32    33    1
     2    33    30    1
     3    30    31    2
     4    30    28    1
     5    28    27    1
     6    21    27    1
     7    21    22    1
     8    22    23    1
     9    23     1    1
    10     1     2   ar
    11     2     3   ar
    12     3     4   ar
    13     4     8    1
    14     8     9    1
    15     9    10    1
    16    10    11    1
    17    11    12    1
    18    12    13   am
    19    13    14    2
    20    13    18    1
    21    18    19    1
    22    18    20    1
    23    12    15    1
    24    15    16    1
    25     4     5   ar
    26     5     6    1
    27     5     7   ar
    28    23    24   am
    29    24    25    2
    30    24    26    1
    31    26    21    1
    32     7     1   ar
    33    16     8    1
    34    28    29    1
    35    11    17    1
@<TRIPOS>MOLECULE
*****
 33 35 0 0 0
SMALL
GASTEIGER

@<TRIPOS>ATOM
      1 C         -14.7681   -1.3125   18.6473 C.ar    1  UNL1        0.0594
      2 C         -15.2892   -2.0190   17.4310 C.ar    1  UNL1        0.0164
      3 C         -15.3829   -3.5160   17.4158 C.ar    1  UNL1        0.0181
      4 C         -14.9555   -4.3065   18.6169 C.ar    1  UNL1        0.0758
      5 C         -14.4344   -3.6000   19.8331 C.ar    1  UNL1        0.1546
      6 F         -14.0069   -4.3904   21.0341 F       1  UNL1       -0.2028
      7 C         -14.3407   -2.1029   19.8483 C.ar    1  UNL1        0.0459
      8 N         -15.0492   -5.8035   18.6016 N.pl3   1  UNL1       -0.3025
      9 C         -13.7447   -6.5382   18.6952 C.3     1  UNL1        0.1096
     10 C         -13.5038   -8.0187   18.7051 C.3     1  UNL1        0.1092
     11 N         -14.5078   -9.1301   18.6238 N.3     1  UNL1       -0.2248
     12 N         -16.0007   -9.0356   18.5126 N.am    1  UNL1       -0.2182
     13 C         -16.7328  -10.3433   18.4506 C.2     1  UNL1        0.3060
     14 O         -15.9692  -11.6334   18.5007 O.2     1  UNL1       -0.2675
     15 C         -16.8583   -7.8063   18.4552 C.3     1  UNL1        0.1328
     16 C         -16.4347   -6.3679   18.4948 C.3     1  UNL1        0.1140
     17 H         -14.3488   -9.6803   19.4679 H       1  UNL1        0.1453
     18 C         -18.2285  -10.3609   18.3386 C.3     1  UNL1        0.3942
     19 F         -18.8802  -10.8243   17.0694 F       1  UNL1       -0.1880
     20 F         -19.0726   -9.9152   19.4957 F       1  UNL1       -0.1880
     21 C         -15.1595    2.5234   19.0924 C.3     1  UNL1        0.2101
     22 C         -15.6375    1.1214   19.3292 C.3     1  UNL1        0.1468
     23 N         -14.6744    0.1845   18.6624 N.am    1  UNL1       -0.2212
     24 C         -13.6011    1.0073   18.0135 C.2     1  UNL1        0.4088
     25 O         -12.4332    0.4777   17.2356 O.2     1  UNL1       -0.2258
     26 O         -13.9010    2.4528   18.2793 O.3     1  UNL1       -0.4345
     27 C         -15.8234    3.7759   19.5826 C.3     1  UNL1        0.1358
     28 N         -15.7950    4.1177   21.0429 N.am    1  UNL1       -0.2954
     29 H         -16.3778    3.6352   21.6728 H       1  UNL1        0.1502
     30 C         -14.8785    5.1945   21.5435 C.2     1  UNL1        0.2296
     31 S         -15.1472    6.6290   21.1967 S.2     1  UNL1        0.0058
     32 C         -13.7357    5.0634   23.8729 C.3     1  UNL1        0.2545
     33 O         -13.6936    4.8370   22.3907 O.3     1  UNL1       -0.4543
@<TRIPOS>BOND
     1    32    33    1
     2    33    30    1
     3    30    31    2
     4    30    28    1
     5    28    27    1
     6    21    27    1
     7    21    22    1
     8    22    23    1
     9    23     1    1
    10     1     2   ar
    11     2     3   ar
    12     3     4   ar
    13     4     8    1
    14     8     9    1
    15     9    10    1
    16    10    11    1
    17    11    12    1
    18    12    13   am
    19    13    14    2
    20    13    18    1
    21    18    19    1
    22    18    20    1
    23    12    15    1
    24    15    16    1
    25     4     5   ar
    26     5     6    1
    27     5     7   ar
    28    23    24   am
    29    24    25    2
    30    24    26    1
    31    26    21    1
    32     7     1   ar
    33    16     8    1
    34    28    29    1
    35    11    17    1
@<TRIPOS>MOLECULE
*****
 33 35 0 0 0
SMALL
GASTEIGER

@<TRIPOS>ATOM
      1 C          -1.0727    3.2992   21.4606 C.ar    1  UNL1        0.0594
      2 C          -0.0283    2.6720   22.3357 C.ar    1  UNL1        0.0164
      3 C           1.1068    1.9090   21.7197 C.ar    1  UNL1        0.0181
      4 C           1.1975    1.7732   20.2286 C.ar    1  UNL1        0.0758
      5 C           0.1532    2.4004   19.3535 C.ar    1  UNL1        0.1546
      6 F           0.2439    2.2647   17.8624 F       1  UNL1       -0.2028
      7 C          -0.9820    3.1635   19.9695 C.ar    1  UNL1        0.0459
      8 N           2.3326    1.0102   19.6127 N.pl3   1  UNL1       -0.3025
      9 C           3.2625    1.8108   18.7498 C.3     1  UNL1        0.1096
     10 C           4.4772    1.3464   18.0021 C.3     1  UNL1        0.1092
     11 N           5.0620   -0.0330   17.9328 N.3     1  UNL1       -0.2248
     12 N           4.5767   -1.2890   18.5940 N.am    1  UNL1       -0.2182
     13 C           5.3888   -2.5212   18.3259 C.2     1  UNL1        0.3060
     14 O           6.6001   -2.4441   17.4446 O.2     1  UNL1       -0.2675
     15 C           3.3866   -1.4755   19.4878 C.3     1  UNL1        0.1328
     16 C           2.3879   -0.4522   19.9411 C.3     1  UNL1        0.1140
     17 H           6.0192    0.0782   18.2671 H       1  UNL1        0.1453
     18 C           4.9897   -3.8307   18.9392 C.3     1  UNL1        0.3942
     19 F           3.7818   -4.5601   18.4300 F       1  UNL1       -0.1880
     20 F           5.7982   -4.4106   20.0616 F       1  UNL1       -0.1880
     21 C          -3.4658    5.7146   23.3324 C.3     1  UNL1        0.2101
     22 C          -2.0842    5.2847   22.9370 C.3     1  UNL1        0.1468
     23 N          -2.2078    4.0622   22.0765 N.am    1  UNL1       -0.2212
     24 C          -3.6657    3.7366   21.9402 C.2     1  UNL1        0.4088
     25 O          -4.2444    2.5910   21.1641 O.2     1  UNL1       -0.2258
     26 O          -4.4431    4.7580   22.7164 O.3     1  UNL1       -0.4345
     27 C          -3.8096    6.8943   24.1928 C.3     1  UNL1        0.1358
     28 N          -4.1264    6.6961   25.6456 N.am    1  UNL1       -0.2954
     29 H          -3.7521    7.3089   26.3190 H       1  UNL1        0.1502
     30 C          -5.0134    5.5641   26.0722 C.2     1  UNL1        0.2296
     31 S          -4.4109    4.3061   26.6238 S.2     1  UNL1        0.0058
     32 C          -7.1959    5.1994   24.7108 C.3     1  UNL1        0.2545
     33 O          -6.5027    5.6903   25.9472 O.3     1  UNL1       -0.4543
@<TRIPOS>BOND
     1    32    33    1
     2    33    30    1
     3    30    31    2
     4    30    28    1
     5    28    27    1
     6    21    27    1
     7    21    22    1
     8    22    23    1
     9    23     1    1
    10     1     2   ar
    11     2     3   ar
    12     3     4   ar
    13     4     8    1
    14     8     9    1
    15     9    10    1
    16    10    11    1
    17    11    12    1
    18    12    13   am
    19    13    14    2
    20    13    18    1
    21    18    19    1
    22    18    20    1
    23    12    15    1
    24    15    16    1
    25     4     5   ar
    26     5     6    1
    27     5     7   ar
    28    23    24   am
    29    24    25    2
    30    24    26    1
    31    26    21    1
    32     7     1   ar
    33    16     8    1
    34    28    29    1
    35    11    17    1
