@<TRIPOS>MOLECULE
*****
 25 27 0 0 0
SMALL
GASTEIGER

@<TRIPOS>ATOM
      1 C          -9.0982  -19.5656   21.3959 C.ar    1  UNL1        0.1658
      2 C          -8.1472  -19.5740   22.5558 C.ar    1  UNL1        0.0393
      3 C          -6.6727  -19.4357   22.3177 C.ar    1  UNL1        0.0048
      4 C          -6.1493  -19.2890   20.9197 C.ar    1  UNL1        0.0218
      5 C          -7.1003  -19.2805   19.7598 C.ar    1  UNL1        0.0343
      6 C          -8.5747  -19.4188   19.9979 C.ar    1  UNL1        0.1739
      7 F          -9.5259  -19.4104   18.8379 F       1  UNL1       -0.2010
      8 C          -4.6747  -19.1506   20.6816 C.ar    1  UNL1        0.1012
      9 C          -3.6993  -19.7774   21.6333 C.ar    1  UNL1        0.0258
     10 C          -2.2247  -19.6391   21.3952 C.ar    1  UNL1        0.0638
     11 C          -1.7256  -18.8740   20.2054 C.ar    1  UNL1        0.2765
     12 O          -0.2512  -18.7357   19.9673 O.2     1  UNL1       -0.2655
     13 N          -2.7011  -18.2472   19.2537 N.ar    1  UNL1       -0.2146
     14 C          -2.2021  -17.4821   18.0640 C.3     1  UNL1        0.1571
     15 N          -4.1756  -18.3855   19.4918 N.ar    1  UNL1       -0.1668
     16 O         -10.5728  -19.7039   21.6340 O.3     1  UNL1       -0.4731
     17 C         -11.1285  -19.5332   23.0167 C.3     1  UNL1        0.2070
     18 C         -12.2220  -18.5376   23.2680 C.3     1  UNL1        0.0646
     19 C         -11.9010  -17.0743   23.3446 C.3     1  UNL1        0.0759
     20 C         -10.6618  -16.1589   20.4678 C.3     1  UNL1        0.0173
     21 C          -9.9296  -16.1795   21.7769 C.3     1  UNL1        0.0576
     22 C          -8.4993  -15.7828   21.9933 C.3     1  UNL1        0.0174
     23 C          -8.1849  -15.9585   23.4495 C.3     1  UNL1        0.0187
     24 C          -9.4209  -16.4637   24.1329 C.3     1  UNL1        0.0721
     25 N         -10.4992  -16.6002   23.0992 N.3     1  UNL1       -0.2738
@<TRIPOS>BOND
     1    21    20    1
     2    21    22    1
     3    22    23    1
     4    23    24    1
     5    24    25    1
     6    25    19    1
     7    19    18    1
     8    18    17    1
     9    17    16    1
    10    16     1    1
    11     1     2   ar
    12     2     3   ar
    13     3     4   ar
    14     4     8    1
    15     8     9   ar
    16     9    10   ar
    17    10    11   ar
    18    11    12    2
    19    11    13   ar
    20    13    14    1
    21    13    15   ar
    22     4     5   ar
    23     5     6   ar
    24     6     7    1
    25    25    21    1
    26     6     1   ar
    27    15     8   ar
@<TRIPOS>MOLECULE
*****
 25 27 0 0 0
SMALL
GASTEIGER

@<TRIPOS>ATOM
      1 C         -10.3392  -19.4767   21.0822 C.ar    1  UNL1        0.1658
      2 C          -9.6089  -19.2891   19.7856 C.ar    1  UNL1        0.0393
      3 C          -8.1091  -19.2888   19.7628 C.ar    1  UNL1        0.0048
      4 C          -7.3396  -19.4760   21.0367 C.ar    1  UNL1        0.0218
      5 C          -8.0699  -19.6637   22.3334 C.ar    1  UNL1        0.0343
      6 C          -9.5697  -19.6640   22.3561 C.ar    1  UNL1        0.1739
      7 F         -10.3001  -19.8517   23.6528 F       1  UNL1       -0.2010
      8 C          -5.8397  -19.4757   21.0139 C.ar    1  UNL1        0.1012
      9 C          -5.1031  -20.4237   20.1148 C.ar    1  UNL1        0.0258
     10 C          -3.6032  -20.4234   20.0920 C.ar    1  UNL1        0.0638
     11 C          -2.8400  -19.4749   20.9684 C.ar    1  UNL1        0.2765
     12 O          -1.3402  -19.4745   20.9456 O.2     1  UNL1       -0.2655
     13 N          -3.5768  -18.5268   21.8675 N.ar    1  UNL1       -0.2146
     14 C          -2.8136  -17.5784   22.7439 C.3     1  UNL1        0.1571
     15 N          -5.0766  -18.5272   21.8903 N.ar    1  UNL1       -0.1668
     16 O         -11.8391  -19.4771   21.1050 O.3     1  UNL1       -0.4731
     17 C         -12.5861  -18.1954   21.3265 C.3     1  UNL1        0.2070
     18 C         -12.7466  -17.6511   22.7151 C.3     1  UNL1        0.0646
     19 C         -12.0525  -16.3807   23.1076 C.3     1  UNL1        0.0759
     20 C         -10.3397  -15.5846   20.4464 C.3     1  UNL1        0.0173
     21 C          -9.7711  -15.9178   21.7939 C.3     1  UNL1        0.0576
     22 C          -8.3154  -15.9435   22.1547 C.3     1  UNL1        0.0174
     23 C          -8.2029  -16.3253   23.6010 C.3     1  UNL1        0.0187
     24 C          -9.5892  -16.5356   24.1339 C.3     1  UNL1        0.0721
     25 N         -10.5584  -16.2837   23.0171 N.3     1  UNL1       -0.2738
@<TRIPOS>BOND
     1    21    20    1
     2    21    22    1
     3    22    23    1
     4    23    24    1
     5    24    25    1
     6    25    19    1
     7    19    18    1
     8    18    17    1
     9    17    16    1
    10    16     1    1
    11     1     2   ar
    12     2     3   ar
    13     3     4   ar
    14     4     8    1
    15     8     9   ar
    16     9    10   ar
    17    10    11   ar
    18    11    12    2
    19    11    13   ar
    20    13    14    1
    21    13    15   ar
    22     4     5   ar
    23     5     6   ar
    24     6     7    1
    25    25    21    1
    26     6     1   ar
    27    15     8   ar
@<TRIPOS>MOLECULE
*****
 25 27 0 0 0
SMALL
GASTEIGER

@<TRIPOS>ATOM
      1 C          -9.0982  -19.7053   21.3915 C.ar    1  UNL1        0.1658
      2 C          -8.5949  -19.1699   20.0838 C.ar    1  UNL1        0.0393
      3 C          -7.1208  -19.0126   19.8553 C.ar    1  UNL1        0.0048
      4 C          -6.1500  -19.3907   20.9345 C.ar    1  UNL1        0.0218
      5 C          -6.6533  -19.9260   22.2421 C.ar    1  UNL1        0.0343
      6 C          -8.1274  -20.0834   22.4706 C.ar    1  UNL1        0.1739
      7 F          -8.6307  -20.6188   23.7783 F       1  UNL1       -0.2010
      8 C          -4.6758  -19.2333   20.7059 C.ar    1  UNL1        0.1012
      9 C          -3.6986  -19.8494   21.6627 C.ar    1  UNL1        0.0258
     10 C          -2.2244  -19.6920   21.4341 C.ar    1  UNL1        0.0638
     11 C          -1.7276  -18.9186   20.2488 C.ar    1  UNL1        0.2765
     12 O          -0.2535  -18.7612   20.0202 O.2     1  UNL1       -0.2655
     13 N          -2.7049  -18.3025   19.2920 N.ar    1  UNL1       -0.2146
     14 C          -2.2081  -17.5291   18.1067 C.3     1  UNL1        0.1571
     15 N          -4.1790  -18.4599   19.5206 N.ar    1  UNL1       -0.1668
     16 O         -10.5723  -19.8626   21.6200 O.3     1  UNL1       -0.4731
     17 C         -11.5287  -18.8433   21.0757 C.3     1  UNL1        0.2070
     18 C         -12.4451  -18.1034   22.0045 C.3     1  UNL1        0.0646
     19 C         -11.8923  -17.0616   22.9313 C.3     1  UNL1        0.0759
     20 C          -9.7161  -17.8550   25.2300 C.3     1  UNL1        0.0173
     21 C          -9.4275  -17.1031   23.9646 C.3     1  UNL1        0.0576
     22 C          -8.0878  -16.5838   23.5337 C.3     1  UNL1        0.0174
     23 C          -8.2601  -15.8981   22.2108 C.3     1  UNL1        0.0187
     24 C          -9.7062  -15.9936   21.8241 C.3     1  UNL1        0.0721
     25 N         -10.4277  -16.7383   22.9080 N.3     1  UNL1       -0.2738
@<TRIPOS>BOND
     1    21    20    1
     2    21    22    1
     3    22    23    1
     4    23    24    1
     5    24    25    1
     6    25    19    1
     7    19    18    1
     8    18    17    1
     9    17    16    1
    10    16     1    1
    11     1     2   ar
    12     2     3   ar
    13     3     4   ar
    14     4     8    1
    15     8     9   ar
    16     9    10   ar
    17    10    11   ar
    18    11    12    2
    19    11    13   ar
    20    13    14    1
    21    13    15   ar
    22     4     5   ar
    23     5     6   ar
    24     6     7    1
    25    25    21    1
    26     6     1   ar
    27    15     8   ar
@<TRIPOS>MOLECULE
*****
 25 27 0 0 0
SMALL
GASTEIGER

@<TRIPOS>ATOM
      1 C         -10.0630  -18.5238   24.0856 C.ar    1  UNL1        0.1658
      2 C          -9.4210  -17.2618   23.5906 C.ar    1  UNL1        0.0393
      3 C          -8.1453  -17.3278   22.8044 C.ar    1  UNL1        0.0048
      4 C          -7.5116  -18.6559   22.5131 C.ar    1  UNL1        0.0218
      5 C          -8.1537  -19.9179   23.0081 C.ar    1  UNL1        0.0343
      6 C          -9.4294  -19.8518   23.7944 C.ar    1  UNL1        0.1739
      7 F         -10.0715  -21.1139   24.2894 F       1  UNL1       -0.2010
      8 C          -6.2359  -18.7218   21.7269 C.ar    1  UNL1        0.1012
      9 C          -6.2578  -19.1804   20.2989 C.ar    1  UNL1        0.0258
     10 C          -4.9821  -19.2464   19.5126 C.ar    1  UNL1        0.0638
     11 C          -3.6844  -18.8538   20.1544 C.ar    1  UNL1        0.2765
     12 O          -2.4087  -18.9197   19.3682 O.2     1  UNL1       -0.2655
     13 N          -3.6625  -18.3952   21.5825 N.ar    1  UNL1       -0.2146
     14 C          -2.3648  -18.0026   22.2243 C.3     1  UNL1        0.1571
     15 N          -4.9382  -18.3292   22.3687 N.ar    1  UNL1       -0.1668
     16 O         -11.3388  -18.4578   24.8719 O.3     1  UNL1       -0.4731
     17 C         -12.6598  -18.4919   24.1622 C.3     1  UNL1        0.2070
     18 C         -12.9855  -17.4502   23.1332 C.3     1  UNL1        0.0646
     19 C         -13.1022  -17.8343   21.6879 C.3     1  UNL1        0.0759
     20 C         -11.1673  -15.9999   19.8063 C.3     1  UNL1        0.0173
     21 C         -11.0038  -17.4668   20.0735 C.3     1  UNL1        0.0576
     22 C          -9.9222  -18.3481   19.5226 C.3     1  UNL1        0.0174
     23 C         -10.1431  -19.7360   20.0471 C.3     1  UNL1        0.0187
     24 C         -11.3612  -19.7124   20.9220 C.3     1  UNL1        0.0721
     25 N         -11.8932  -18.3100   20.9383 N.3     1  UNL1       -0.2738
@<TRIPOS>BOND
     1    21    20    1
     2    21    22    1
     3    22    23    1
     4    23    24    1
     5    24    25    1
     6    25    19    1
     7    19    18    1
     8    18    17    1
     9    17    16    1
    10    16     1    1
    11     1     2   ar
    12     2     3   ar
    13     3     4   ar
    14     4     8    1
    15     8     9   ar
    16     9    10   ar
    17    10    11   ar
    18    11    12    2
    19    11    13   ar
    20    13    14    1
    21    13    15   ar
    22     4     5   ar
    23     5     6   ar
    24     6     7    1
    25    25    21    1
    26     6     1   ar
    27    15     8   ar
@<TRIPOS>MOLECULE
*****
 25 27 0 0 0
SMALL
GASTEIGER

@<TRIPOS>ATOM
      1 C         -10.5648  -17.8231   20.6291 C.ar    1  UNL1        0.1658
      2 C         -10.0485  -18.9961   19.8497 C.ar    1  UNL1        0.0393
      3 C          -8.6095  -19.4019   19.9705 C.ar    1  UNL1        0.0048
      4 C          -7.6869  -18.6347   20.8706 C.ar    1  UNL1        0.0218
      5 C          -8.2032  -17.4617   21.6500 C.ar    1  UNL1        0.0343
      6 C          -9.6422  -17.0559   21.5292 C.ar    1  UNL1        0.1739
      7 F         -10.1587  -15.8829   22.3086 F       1  UNL1       -0.2010
      8 C          -6.2478  -19.0405   20.9913 C.ar    1  UNL1        0.1012
      9 C          -5.7257  -20.1984   20.1935 C.ar    1  UNL1        0.0258
     10 C          -4.2866  -20.6042   20.3142 C.ar    1  UNL1        0.0638
     11 C          -3.3698  -19.8521   21.2328 C.ar    1  UNL1        0.2765
     12 O          -1.9308  -20.2578   21.3535 O.2     1  UNL1       -0.2655
     13 N          -3.8920  -18.6941   22.0306 N.ar    1  UNL1       -0.2146
     14 C          -2.9752  -17.9419   22.9491 C.3     1  UNL1        0.1571
     15 N          -5.3310  -18.2883   21.9098 N.ar    1  UNL1       -0.1668
     16 O         -12.0039  -17.4173   20.5084 O.3     1  UNL1       -0.4731
     17 C         -13.0009  -17.8764   21.5307 C.3     1  UNL1        0.2070
     18 C         -12.9624  -17.3145   22.9210 C.3     1  UNL1        0.0646
     19 C         -12.5210  -18.1766   24.0664 C.3     1  UNL1        0.0759
     20 C          -9.6780  -17.4859   25.5120 C.3     1  UNL1        0.0173
     21 C          -9.9519  -18.6620   24.6222 C.3     1  UNL1        0.0576
     22 C          -8.9671  -19.7272   24.2407 C.3     1  UNL1        0.0174
     23 C          -9.6653  -20.7030   23.3404 C.3     1  UNL1        0.0187
     24 C         -11.0815  -20.2409   23.1655 C.3     1  UNL1        0.0721
     25 N         -11.2587  -18.9795   23.9577 N.3     1  UNL1       -0.2738
@<TRIPOS>BOND
     1    21    20    1
     2    21    22    1
     3    22    23    1
     4    23    24    1
     5    24    25    1
     6    25    19    1
     7    19    18    1
     8    18    17    1
     9    17    16    1
    10    16     1    1
    11     1     2   ar
    12     2     3   ar
    13     3     4   ar
    14     4     8    1
    15     8     9   ar
    16     9    10   ar
    17    10    11   ar
    18    11    12    2
    19    11    13   ar
    20    13    14    1
    21    13    15   ar
    22     4     5   ar
    23     5     6   ar
    24     6     7    1
    25    25    21    1
    26     6     1   ar
    27    15     8   ar
@<TRIPOS>MOLECULE
*****
 25 27 0 0 0
SMALL
GASTEIGER

@<TRIPOS>ATOM
      1 C          -4.8447  -17.1241   23.1243 C.ar    1  UNL1        0.1658
      2 C          -5.4986  -18.2649   22.4026 C.ar    1  UNL1        0.0393
      3 C          -6.9896  -18.4226   22.4441 C.ar    1  UNL1        0.0048
      4 C          -7.8268  -17.4395   23.2074 C.ar    1  UNL1        0.0218
      5 C          -7.1730  -16.2987   23.9291 C.ar    1  UNL1        0.0343
      6 C          -5.6819  -16.1410   23.8876 C.ar    1  UNL1        0.1739
      7 F          -5.0279  -15.0001   24.6093 F       1  UNL1       -0.2010
      8 C          -9.3180  -17.5972   23.2489 C.ar    1  UNL1        0.1012
      9 C          -9.9602  -18.3637   24.3669 C.ar    1  UNL1        0.0258
     10 C         -11.4514  -18.5215   24.4085 C.ar    1  UNL1        0.0638
     11 C         -12.3002  -17.9127   23.3319 C.ar    1  UNL1        0.2765
     12 O         -13.7913  -18.0704   23.3734 O.2     1  UNL1       -0.2655
     13 N         -11.6579  -17.1462   22.2139 N.ar    1  UNL1       -0.2146
     14 C         -12.5067  -16.5374   21.1374 C.3     1  UNL1        0.1571
     15 N         -10.1668  -16.9885   22.1724 N.ar    1  UNL1       -0.1668
     16 O          -3.3535  -16.9663   23.0828 O.3     1  UNL1       -0.4731
     17 C          -2.7195  -16.1047   22.0314 C.3     1  UNL1        0.2070
     18 C          -1.3167  -16.3833   21.5790 C.3     1  UNL1        0.0646
     19 C          -0.9913  -17.6806   20.9001 C.3     1  UNL1        0.0759
     20 C          -3.0192  -17.3040   18.3713 C.3     1  UNL1        0.0173
     21 C          -3.0260  -18.4454   19.3445 C.3     1  UNL1        0.0576
     22 C          -3.9662  -19.6140   19.3262 C.3     1  UNL1        0.0174
     23 C          -3.6151  -20.5095   20.4773 C.3     1  UNL1        0.0187
     24 C          -2.4580  -19.8942   21.2070 C.3     1  UNL1        0.0721
     25 N          -2.0939  -18.6185   20.5069 N.3     1  UNL1       -0.2738
@<TRIPOS>BOND
     1    21    20    1
     2    21    22    1
     3    22    23    1
     4    23    24    1
     5    24    25    1
     6    25    19    1
     7    19    18    1
     8    18    17    1
     9    17    16    1
    10    16     1    1
    11     1     2   ar
    12     2     3   ar
    13     3     4   ar
    14     4     8    1
    15     8     9   ar
    16     9    10   ar
    17    10    11   ar
    18    11    12    2
    19    11    13   ar
    20    13    14    1
    21    13    15   ar
    22     4     5   ar
    23     5     6   ar
    24     6     7    1
    25    25    21    1
    26     6     1   ar
    27    15     8   ar
@<TRIPOS>MOLECULE
*****
 25 27 0 0 0
SMALL
GASTEIGER

@<TRIPOS>ATOM
      1 C         -10.0926  -16.2785   22.8410 C.ar    1  UNL1        0.1658
      2 C          -9.1201  -16.4468   23.9706 C.ar    1  UNL1        0.0393
      3 C          -7.8008  -17.1189   23.7305 C.ar    1  UNL1        0.0048
      4 C          -7.4540  -17.6227   22.3609 C.ar    1  UNL1        0.0218
      5 C          -8.4264  -17.4545   21.2313 C.ar    1  UNL1        0.0343
      6 C          -9.7457  -16.7824   21.4714 C.ar    1  UNL1        0.1739
      7 F         -10.7182  -16.6141   20.3417 F       1  UNL1       -0.2010
      8 C          -6.1346  -18.2949   22.1209 C.ar    1  UNL1        0.1012
      9 C          -6.0721  -19.5582   21.3147 C.ar    1  UNL1        0.0258
     10 C          -4.7527  -20.2303   21.0747 C.ar    1  UNL1        0.0638
     11 C          -3.4958  -19.6390   21.6410 C.ar    1  UNL1        0.2765
     12 O          -2.1765  -20.3111   21.4010 O.2     1  UNL1       -0.2655
     13 N          -3.5583  -18.3757   22.4473 N.ar    1  UNL1       -0.2146
     14 C          -2.3015  -17.7844   23.0136 C.3     1  UNL1        0.1571
     15 N          -4.8777  -17.7036   22.6872 N.ar    1  UNL1       -0.1668
     16 O         -11.4120  -15.6064   23.0810 O.3     1  UNL1       -0.4731
     17 C         -12.6276  -16.0476   22.3210 C.3     1  UNL1        0.2070
     18 C         -12.9992  -17.5002   22.2783 C.3     1  UNL1        0.0646
     19 C         -12.8976  -18.3372   23.5189 C.3     1  UNL1        0.0759
     20 C         -11.1379  -20.0384   21.3606 C.3     1  UNL1        0.0173
     21 C         -10.8276  -19.8767   22.8192 C.3     1  UNL1        0.0576
     22 C          -9.6539  -20.4686   23.5418 C.3     1  UNL1        0.0174
     23 C          -9.7374  -20.0524   24.9805 C.3     1  UNL1        0.0187
     24 C         -10.9626  -19.2033   25.1470 C.3     1  UNL1        0.0721
     25 N         -11.6364  -19.0947   23.8112 N.3     1  UNL1       -0.2738
@<TRIPOS>BOND
     1    21    20    1
     2    21    22    1
     3    22    23    1
     4    23    24    1
     5    24    25    1
     6    25    19    1
     7    19    18    1
     8    18    17    1
     9    17    16    1
    10    16     1    1
    11     1     2   ar
    12     2     3   ar
    13     3     4   ar
    14     4     8    1
    15     8     9   ar
    16     9    10   ar
    17    10    11   ar
    18    11    12    2
    19    11    13   ar
    20    13    14    1
    21    13    15   ar
    22     4     5   ar
    23     5     6   ar
    24     6     7    1
    25    25    21    1
    26     6     1   ar
    27    15     8   ar
@<TRIPOS>MOLECULE
*****
 25 27 0 0 0
SMALL
GASTEIGER

@<TRIPOS>ATOM
      1 C         -10.6798  -16.0539   22.8976 C.ar    1  UNL1        0.1658
      2 C         -10.0469  -16.5332   24.1703 C.ar    1  UNL1        0.0393
      3 C          -8.5842  -16.8641   24.2022 C.ar    1  UNL1        0.0048
      4 C          -7.7544  -16.7157   22.9614 C.ar    1  UNL1        0.0218
      5 C          -8.3873  -16.2365   21.6888 C.ar    1  UNL1        0.0343
      6 C          -9.8500  -15.9056   21.6569 C.ar    1  UNL1        0.1739
      7 F         -10.4830  -15.4263   20.3842 F       1  UNL1       -0.2010
      8 C          -6.2917  -17.0467   22.9934 C.ar    1  UNL1        0.1012
      9 C          -5.3575  -16.2352   23.8412 C.ar    1  UNL1        0.0258
     10 C          -3.8947  -16.5661   23.8731 C.ar    1  UNL1        0.0638
     11 C          -3.3663  -17.7086   23.0573 C.ar    1  UNL1        0.2765
     12 O          -1.9036  -18.0395   23.0892 O.2     1  UNL1       -0.2655
     13 N          -4.3006  -18.5201   22.2095 N.ar    1  UNL1       -0.2146
     14 C          -3.7721  -19.6625   21.3937 C.3     1  UNL1        0.1571
     15 N          -5.7632  -18.1891   22.1776 N.ar    1  UNL1       -0.1668
     16 O         -12.1425  -15.7230   22.8657 O.3     1  UNL1       -0.4731
     17 C         -13.1548  -16.8152   22.6858 C.3     1  UNL1        0.2070
     18 C         -12.9227  -17.8929   21.6685 C.3     1  UNL1        0.0646
     19 C         -12.0135  -19.0424   21.9879 C.3     1  UNL1        0.0759
     20 C          -9.1591  -20.0998   23.1641 C.3     1  UNL1        0.0173
     21 C          -9.4429  -19.7312   21.7381 C.3     1  UNL1        0.0576
     22 C          -8.4645  -19.7839   20.6024 C.3     1  UNL1        0.0174
     23 C          -9.1718  -19.3305   19.3597 C.3     1  UNL1        0.0187
     24 C         -10.5874  -18.9975   19.7275 C.3     1  UNL1        0.0721
     25 N         -10.7549  -19.2451   21.1974 N.3     1  UNL1       -0.2738
@<TRIPOS>BOND
     1    21    20    1
     2    21    22    1
     3    22    23    1
     4    23    24    1
     5    24    25    1
     6    25    19    1
     7    19    18    1
     8    18    17    1
     9    17    16    1
    10    16     1    1
    11     1     2   ar
    12     2     3   ar
    13     3     4   ar
    14     4     8    1
    15     8     9   ar
    16     9    10   ar
    17    10    11   ar
    18    11    12    2
    19    11    13   ar
    20    13    14    1
    21    13    15   ar
    22     4     5   ar
    23     5     6   ar
    24     6     7    1
    25    25    21    1
    26     6     1   ar
    27    15     8   ar
@<TRIPOS>MOLECULE
*****
 25 27 0 0 0
SMALL
GASTEIGER

@<TRIPOS>ATOM
      1 C         -11.5632   -5.3580   19.0442 C.ar    1  UNL1        0.1658
      2 C         -11.7151   -6.7420   18.4863 C.ar    1  UNL1        0.0393
      3 C         -13.0446   -7.4339   18.5483 C.ar    1  UNL1        0.0048
      4 C         -14.2221   -6.7417   19.1683 C.ar    1  UNL1        0.0218
      5 C         -14.0701   -5.3577   19.7263 C.ar    1  UNL1        0.0343
      6 C         -12.7407   -4.6658   19.6642 C.ar    1  UNL1        0.1739
      7 F         -12.5887   -3.2818   20.2222 F       1  UNL1       -0.2010
      8 C         -15.5516   -7.4336   19.2303 C.ar    1  UNL1        0.1012
      9 C         -16.7769   -6.6688   19.6349 C.ar    1  UNL1        0.0258
     10 C         -18.1064   -7.3607   19.6969 C.ar    1  UNL1        0.0638
     11 C         -18.2105   -8.8174   19.3543 C.ar    1  UNL1        0.2765
     12 O         -19.5399   -9.5093   19.4162 O.2     1  UNL1       -0.2655
     13 N         -16.9851   -9.5821   18.9497 N.ar    1  UNL1       -0.2146
     14 C         -17.0892  -11.0387   18.6071 C.3     1  UNL1        0.1571
     15 N         -15.6557   -8.8902   18.8877 N.ar    1  UNL1       -0.1668
     16 O         -10.2337   -4.6661   18.9822 O.3     1  UNL1       -0.4731
     17 C          -9.3250   -4.8912   17.8103 C.3     1  UNL1        0.2070
     18 C          -9.6437   -4.2680   16.4835 C.3     1  UNL1        0.0646
     19 C         -10.2994   -2.9202   16.4262 C.3     1  UNL1        0.0759
     20 C         -11.8409   -0.6160   18.1477 C.3     1  UNL1        0.0173
     21 C         -12.4920   -1.7408   17.3988 C.3     1  UNL1        0.0576
     22 C         -13.9661   -2.0038   17.3097 C.3     1  UNL1        0.0174
     23 C         -14.1686   -3.2256   16.4633 C.3     1  UNL1        0.0187
     24 C         -12.8197   -3.7176   16.0293 C.3     1  UNL1        0.0721
     25 N         -11.7835   -2.7999   16.6075 N.3     1  UNL1       -0.2738
@<TRIPOS>BOND
     1    21    20    1
     2    21    22    1
     3    22    23    1
     4    23    24    1
     5    24    25    1
     6    25    19    1
     7    19    18    1
     8    18    17    1
     9    17    16    1
    10    16     1    1
    11     1     2   ar
    12     2     3   ar
    13     3     4   ar
    14     4     8    1
    15     8     9   ar
    16     9    10   ar
    17    10    11   ar
    18    11    12    2
    19    11    13   ar
    20    13    14    1
    21    13    15   ar
    22     4     5   ar
    23     5     6   ar
    24     6     7    1
    25    25    21    1
    26     6     1   ar
    27    15     8   ar
