@<TRIPOS>MOLECULE
*****
 21 24 0 0 0
SMALL
GASTEIGER

@<TRIPOS>ATOM
      1 C          -7.6933  -17.2906   23.2609 C.3     1  UNL1        0.0489
      2 C          -7.5277  -16.0874   24.1411 C.3     1  UNL1        0.0236
      3 C          -7.0588  -14.9122   24.9468 C.3     1  UNL1        0.0690
      4 N          -5.5733  -14.7952   24.7747 N.3     1  UNL1       -0.2974
      5 C          -5.1241  -15.8981   23.8626 C.3     1  UNL1        0.0690
      6 C          -6.3320  -16.6967   23.4710 C.3     1  UNL1        0.0236
      7 H          -5.1118  -14.8851   25.6799 H       1  UNL1        0.1232
      8 CL        -13.6237  -18.0915   23.6958 Cl      1  UNL1       -0.0814
      9 C         -12.1411  -17.8913   23.5871 C.ar    1  UNL1        0.0682
     10 C         -11.2054  -18.7964   24.3322 C.ar    1  UNL1        0.0119
     11 C          -9.7228  -18.5962   24.2234 C.ar    1  UNL1       -0.0033
     12 C          -9.1759  -17.4908   23.3697 C.ar    1  UNL1       -0.0195
     13 C         -10.1115  -16.5857   22.6246 C.ar    1  UNL1        0.0080
     14 C         -11.5941  -16.7859   22.7333 C.ar    1  UNL1        0.0679
     15 CL        -12.5298  -15.8807   21.9882 Cl      1  UNL1       -0.0814
     16 C          -7.3439  -18.4244   22.3430 C.3     1  UNL1        0.1461
     17 O          -7.3143  -18.2062   20.8593 O.3     1  UNL1       -0.3534
     18 C          -8.0832  -19.1198   19.9513 C.3     1  UNL1        0.1421
     19 C          -9.5770  -19.2021   20.0601 C.3     1  UNL1        0.0297
     20 C         -10.8031  -19.8068   20.6772 C.3     1  UNL1        0.0026
     21 C         -10.9381  -18.7399   19.6315 C.3     1  UNL1        0.0026
@<TRIPOS>BOND
     1     8     9    1
     2     9    10   ar
     3    10    11   ar
     4    11    12   ar
     5    12     1    1
     6     1    16    1
     7    16    17    1
     8    17    18    1
     9    18    19    1
    10    19    20    1
    11    20    21    1
    12     1     2    1
    13     2     3    1
    14     3     4    1
    15     4     5    1
    16     6     5    1
    17    12    13   ar
    18    13    14   ar
    19    14    15    1
    20    14     9   ar
    21     6     1    1
    22    21    19    1
    23     6     2    1
    24     4     7    1
@<TRIPOS>MOLECULE
*****
 21 24 0 0 0
SMALL
GASTEIGER

@<TRIPOS>ATOM
      1 C          -9.5154  -17.7101   22.3339 C.3     1  UNL1        0.0489
      2 C         -10.0608  -16.5438   21.5644 C.3     1  UNL1        0.0236
      3 C         -10.7640  -15.5975   20.6370 C.3     1  UNL1        0.0690
      4 N         -11.6326  -16.4068   19.7202 N.3     1  UNL1       -0.2974
      5 C         -11.4663  -17.8533   20.0811 C.3     1  UNL1        0.0690
      6 C         -10.4948  -17.9379   21.2209 C.3     1  UNL1        0.0236
      7 H         -11.3485  -16.2566   18.7522 H       1  UNL1        0.1232
      8 CL         -5.9218  -14.8317   26.1811 Cl      1  UNL1       -0.0814
      9 C          -6.8202  -15.5513   25.2193 C.ar    1  UNL1        0.0682
     10 C          -8.2959  -15.6195   25.4791 C.ar    1  UNL1        0.0119
     11 C          -9.1943  -16.3391   24.5173 C.ar    1  UNL1       -0.0033
     12 C          -8.6170  -16.9905   23.2957 C.ar    1  UNL1       -0.0195
     13 C          -7.1413  -16.9224   23.0359 C.ar    1  UNL1        0.0080
     14 C          -6.2429  -16.2028   23.9977 C.ar    1  UNL1        0.0679
     15 CL         -4.7671  -16.1346   23.7379 Cl      1  UNL1       -0.0814
     16 C          -9.2820  -19.1265   22.7693 C.3     1  UNL1        0.1461
     17 O         -10.3940  -19.9096   23.4017 O.3     1  UNL1       -0.3534
     18 C         -11.1714  -19.3216   24.5419 C.3     1  UNL1        0.1421
     19 C         -12.4699  -18.6177   24.2802 C.3     1  UNL1        0.0297
     20 C         -13.3225  -17.7476   23.4050 C.3     1  UNL1        0.0026
     21 C         -13.8664  -18.2688   24.7022 C.3     1  UNL1        0.0026
@<TRIPOS>BOND
     1     8     9    1
     2     9    10   ar
     3    10    11   ar
     4    11    12   ar
     5    12     1    1
     6     1    16    1
     7    16    17    1
     8    17    18    1
     9    18    19    1
    10    19    20    1
    11    20    21    1
    12     1     2    1
    13     2     3    1
    14     3     4    1
    15     4     5    1
    16     6     5    1
    17    12    13   ar
    18    13    14   ar
    19    14    15    1
    20    14     9   ar
    21     6     1    1
    22    21    19    1
    23     6     2    1
    24     4     7    1
@<TRIPOS>MOLECULE
*****
 21 24 0 0 0
SMALL
GASTEIGER

@<TRIPOS>ATOM
      1 C          -7.8744  -17.2643   23.1962 C.3     1  UNL1        0.0489
      2 C          -7.7129  -16.0954   24.1222 C.3     1  UNL1        0.0236
      3 C          -7.2478  -14.9515   24.9738 C.3     1  UNL1        0.0690
      4 N          -5.7619  -14.8266   24.8111 N.3     1  UNL1       -0.2974
      5 C          -5.3087  -15.8935   23.8590 C.3     1  UNL1        0.0690
      6 C          -6.5145  -16.6776   23.4332 C.3     1  UNL1        0.0236
      7 H          -5.3033  -14.9506   25.7137 H       1  UNL1        0.1232
      8 CL        -13.8054  -18.0865   23.5809 Cl      1  UNL1       -0.0814
      9 C         -12.3226  -17.8809   23.4847 C.ar    1  UNL1        0.0682
     10 C         -11.4083  -18.5402   24.4743 C.ar    1  UNL1        0.0119
     11 C          -9.9256  -18.3346   24.3781 C.ar    1  UNL1       -0.0033
     12 C          -9.3572  -17.4698   23.2924 C.ar    1  UNL1       -0.0195
     13 C         -10.2715  -16.8106   22.3028 C.ar    1  UNL1        0.0080
     14 C         -11.7542  -17.0161   22.3990 C.ar    1  UNL1        0.0679
     15 CL        -12.6686  -16.3568   21.4093 Cl      1  UNL1       -0.0814
     16 C          -7.5210  -18.3618   22.2367 C.3     1  UNL1        0.1461
     17 O          -6.9617  -18.0259   20.8861 O.3     1  UNL1       -0.3534
     18 C          -6.4390  -19.1164   19.9984 C.3     1  UNL1        0.1421
     19 C          -4.9948  -19.5150   20.0710 C.3     1  UNL1        0.0297
     20 C          -3.9299  -20.5653   19.9583 C.3     1  UNL1        0.0026
     21 C          -3.5583  -19.1550   20.3095 C.3     1  UNL1        0.0026
@<TRIPOS>BOND
     1     8     9    1
     2     9    10   ar
     3    10    11   ar
     4    11    12   ar
     5    12     1    1
     6     1    16    1
     7    16    17    1
     8    17    18    1
     9    18    19    1
    10    19    20    1
    11    20    21    1
    12     1     2    1
    13     2     3    1
    14     3     4    1
    15     4     5    1
    16     6     5    1
    17    12    13   ar
    18    13    14   ar
    19    14    15    1
    20    14     9   ar
    21     6     1    1
    22    21    19    1
    23     6     2    1
    24     4     7    1
@<TRIPOS>MOLECULE
*****
 21 24 0 0 0
SMALL
GASTEIGER

@<TRIPOS>ATOM
      1 C         -10.1222  -18.9187   21.7101 C.3     1  UNL1        0.0489
      2 C         -10.5753  -17.8419   20.7691 C.3     1  UNL1        0.0236
      3 C         -11.3015  -16.7937   19.9793 C.3     1  UNL1        0.0690
      4 N         -12.7033  -16.7052   20.5055 N.3     1  UNL1       -0.2974
      5 C         -12.8435  -17.6987   21.6207 C.3     1  UNL1        0.0690
      6 C         -11.5282  -18.4012   21.7835 C.3     1  UNL1        0.0236
      7 H         -13.3666  -16.9235   19.7620 H       1  UNL1        0.1232
      8 CL         -4.4425  -19.5715   19.8896 Cl      1  UNL1       -0.0814
      9 C          -5.8624  -19.4083   20.3447 C.ar    1  UNL1        0.0682
     10 C          -6.9911  -19.7281   19.4100 C.ar    1  UNL1        0.0119
     11 C          -8.4110  -19.5649   19.8651 C.ar    1  UNL1       -0.0033
     12 C          -8.7023  -19.0819   21.2550 C.ar    1  UNL1       -0.0195
     13 C          -7.5736  -18.7620   22.1897 C.ar    1  UNL1        0.0080
     14 C          -6.1537  -18.9252   21.7346 C.ar    1  UNL1        0.0679
     15 CL         -5.0250  -18.6054   22.6694 Cl      1  UNL1       -0.0814
     16 C         -10.1624  -19.9387   22.8091 C.3     1  UNL1        0.1461
     17 O         -10.7830  -19.5936   24.1303 O.3     1  UNL1       -0.3534
     18 C          -9.9813  -18.8653   25.1682 C.3     1  UNL1        0.1421
     19 C          -9.5023  -17.4690   24.9023 C.3     1  UNL1        0.0297
     20 C          -9.5731  -16.2014   24.1035 C.3     1  UNL1        0.0026
     21 C          -8.6017  -16.3181   25.2406 C.3     1  UNL1        0.0026
@<TRIPOS>BOND
     1     8     9    1
     2     9    10   ar
     3    10    11   ar
     4    11    12   ar
     5    12     1    1
     6     1    16    1
     7    16    17    1
     8    17    18    1
     9    18    19    1
    10    19    20    1
    11    20    21    1
    12     1     2    1
    13     2     3    1
    14     3     4    1
    15     4     5    1
    16     6     5    1
    17    12    13   ar
    18    13    14   ar
    19    14    15    1
    20    14     9   ar
    21     6     1    1
    22    21    19    1
    23     6     2    1
    24     4     7    1
@<TRIPOS>MOLECULE
*****
 21 24 0 0 0
SMALL
GASTEIGER

@<TRIPOS>ATOM
      1 C          -7.5676  -16.1626   24.1744 C.3     1  UNL1        0.0489
      2 C          -8.0328  -15.7572   25.5416 C.3     1  UNL1        0.0236
      3 C          -8.1945  -15.2898   26.9578 C.3     1  UNL1        0.0690
      4 N          -6.8402  -14.9081   27.4774 N.3     1  UNL1       -0.2974
      5 C          -5.8414  -15.1396   26.3825 C.3     1  UNL1        0.0690
      6 C          -6.5785  -15.6644   25.1861 C.3     1  UNL1        0.0236
      7 H          -6.6056  -15.4824   28.2871 H       1  UNL1        0.1232
      8 CL        -12.8015  -17.7883   21.7325 Cl      1  UNL1       -0.0814
      9 C         -11.4930  -17.3818   22.3430 C.ar    1  UNL1        0.0682
     10 C         -10.5463  -16.5080   21.5749 C.ar    1  UNL1        0.0119
     11 C          -9.2378  -16.1016   22.1853 C.ar    1  UNL1       -0.0033
     12 C          -8.8761  -16.5690   23.5639 C.ar    1  UNL1       -0.0195
     13 C          -9.8228  -17.4428   24.3321 C.ar    1  UNL1        0.0080
     14 C         -11.1313  -17.8493   23.7216 C.ar    1  UNL1        0.0679
     15 CL        -12.0780  -18.7232   24.4898 Cl      1  UNL1       -0.0814
     16 C          -6.6479  -16.4267   23.0192 C.3     1  UNL1        0.1461
     17 O          -5.2619  -16.9439   23.2670 O.3     1  UNL1       -0.3534
     18 C          -4.8477  -18.2747   22.7125 C.3     1  UNL1        0.1421
     19 C          -5.8612  -19.1589   22.0484 C.3     1  UNL1        0.0297
     20 C          -6.5039  -20.5045   21.8868 C.3     1  UNL1        0.0026
     21 C          -6.9739  -19.3446   21.0598 C.3     1  UNL1        0.0026
@<TRIPOS>BOND
     1     8     9    1
     2     9    10   ar
     3    10    11   ar
     4    11    12   ar
     5    12     1    1
     6     1    16    1
     7    16    17    1
     8    17    18    1
     9    18    19    1
    10    19    20    1
    11    20    21    1
    12     1     2    1
    13     2     3    1
    14     3     4    1
    15     4     5    1
    16     6     5    1
    17    12    13   ar
    18    13    14   ar
    19    14    15    1
    20    14     9   ar
    21     6     1    1
    22    21    19    1
    23     6     2    1
    24     4     7    1
@<TRIPOS>MOLECULE
*****
 21 24 0 0 0
SMALL
GASTEIGER

@<TRIPOS>ATOM
      1 C          -9.3016  -17.3578   22.4671 C.3     1  UNL1        0.0489
      2 C         -10.5899  -16.5991   22.5879 C.3     1  UNL1        0.0236
      3 C         -11.9660  -16.0152   22.4636 C.3     1  UNL1        0.0690
      4 N         -12.6551  -16.6925   21.3163 N.3     1  UNL1       -0.2974
      5 C         -11.7048  -17.6951   20.7315 C.3     1  UNL1        0.0690
      6 C         -10.4284  -17.6373   21.5174 C.3     1  UNL1        0.0236
      7 H         -12.9090  -16.0028   20.6091 H       1  UNL1        0.1232
      8 CL         -6.2108  -14.8876   26.9777 Cl      1  UNL1       -0.0814
      9 C          -6.9835  -15.5051   25.8501 C.ar    1  UNL1        0.0682
     10 C          -6.5312  -15.3067   24.4338 C.ar    1  UNL1        0.0119
     11 C          -7.3039  -15.9242   23.3061 C.ar    1  UNL1       -0.0033
     12 C          -8.5289  -16.7402   23.5947 C.ar    1  UNL1       -0.0195
     13 C          -8.9812  -16.9387   25.0110 C.ar    1  UNL1        0.0080
     14 C          -8.2086  -16.3212   26.1387 C.ar    1  UNL1        0.0679
     15 CL         -8.6610  -16.5197   27.5550 Cl      1  UNL1       -0.0814
     16 C          -8.2816  -18.3309   21.9546 C.3     1  UNL1        0.1461
     17 O          -7.9143  -18.3360   20.5003 O.3     1  UNL1       -0.3534
     18 C          -7.1448  -19.4881   19.9251 C.3     1  UNL1        0.1421
     19 C          -5.6460  -19.4934   19.9850 C.3     1  UNL1        0.0297
     20 C          -4.3670  -20.1202   20.4553 C.3     1  UNL1        0.0026
     21 C          -4.3291  -18.8759   19.6185 C.3     1  UNL1        0.0026
@<TRIPOS>BOND
     1     8     9    1
     2     9    10   ar
     3    10    11   ar
     4    11    12   ar
     5    12     1    1
     6     1    16    1
     7    16    17    1
     8    17    18    1
     9    18    19    1
    10    19    20    1
    11    20    21    1
    12     1     2    1
    13     2     3    1
    14     3     4    1
    15     4     5    1
    16     6     5    1
    17    12    13   ar
    18    13    14   ar
    19    14    15    1
    20    14     9   ar
    21     6     1    1
    22    21    19    1
    23     6     2    1
    24     4     7    1
@<TRIPOS>MOLECULE
*****
 21 24 0 0 0
SMALL
GASTEIGER

@<TRIPOS>ATOM
      1 C          -7.6666  -16.3323   24.2399 C.3     1  UNL1        0.0489
      2 C          -8.1576  -15.7808   25.5456 C.3     1  UNL1        0.0236
      3 C          -8.3440  -15.1819   26.9082 C.3     1  UNL1        0.0690
      4 N          -6.9892  -14.8396   27.4533 N.3     1  UNL1       -0.2974
      5 C          -5.9654  -15.2270   26.4276 C.3     1  UNL1        0.0690
      6 C          -6.6876  -15.8087   25.2486 C.3     1  UNL1        0.0236
      7 H          -6.8242  -15.3540   28.3185 H       1  UNL1        0.1232
      8 CL        -12.8953  -17.8427   21.7143 Cl      1  UNL1       -0.0814
      9 C         -11.5881  -17.4651   22.3457 C.ar    1  UNL1        0.0682
     10 C         -11.1984  -18.0504   23.6706 C.ar    1  UNL1        0.0119
     11 C          -9.8912  -17.6727   24.3020 C.ar    1  UNL1       -0.0033
     12 C          -8.9737  -16.7099   23.6085 C.ar    1  UNL1       -0.0195
     13 C          -9.3635  -16.1246   22.2835 C.ar    1  UNL1        0.0080
     14 C         -10.6706  -16.5022   21.6521 C.ar    1  UNL1        0.0679
     15 CL        -11.0603  -15.9169   20.3271 Cl      1  UNL1       -0.0814
     16 C          -6.7215  -16.7525   23.1535 C.3     1  UNL1        0.1461
     17 O          -5.2743  -16.3653   23.2272 O.3     1  UNL1       -0.3534
     18 C          -4.2501  -17.3707   23.6635 C.3     1  UNL1        0.1421
     19 C          -3.5724  -18.2406   22.6467 C.3     1  UNL1        0.0297
     20 C          -3.5495  -19.4863   21.8113 C.3     1  UNL1        0.0026
     21 C          -2.4215  -18.5016   21.7207 C.3     1  UNL1        0.0026
@<TRIPOS>BOND
     1     8     9    1
     2     9    10   ar
     3    10    11   ar
     4    11    12   ar
     5    12     1    1
     6     1    16    1
     7    16    17    1
     8    17    18    1
     9    18    19    1
    10    19    20    1
    11    20    21    1
    12     1     2    1
    13     2     3    1
    14     3     4    1
    15     4     5    1
    16     6     5    1
    17    12    13   ar
    18    13    14   ar
    19    14    15    1
    20    14     9   ar
    21     6     1    1
    22    21    19    1
    23     6     2    1
    24     4     7    1
@<TRIPOS>MOLECULE
*****
 21 24 0 0 0
SMALL
GASTEIGER

@<TRIPOS>ATOM
      1 C         -14.4330   -6.2774   18.9253 C.3     1  UNL1        0.0489
      2 C         -14.3877   -7.7319   18.5616 C.3     1  UNL1        0.0236
      3 C         -14.6200   -9.1977   18.3433 C.3     1  UNL1        0.0690
      4 N         -15.9387   -9.5552   18.9622 N.3     1  UNL1       -0.2974
      5 C         -16.5214   -8.3104   19.5631 C.3     1  UNL1        0.0690
      6 C         -15.5628   -7.1836   19.3155 C.3     1  UNL1        0.0236
      7 H         -15.8010  -10.2584   19.6882 H       1  UNL1        0.1232
      8 CL         -9.2224   -4.4531   16.5756 Cl      1  UNL1       -0.0814
      9 C         -10.5251   -4.9091   17.1630 C.ar    1  UNL1        0.0682
     10 C         -11.7915   -4.7807   16.3695 C.ar    1  UNL1        0.0119
     11 C         -13.0941   -5.2368   16.9569 C.ar    1  UNL1       -0.0033
     12 C         -13.1304   -5.8213   18.3379 C.ar    1  UNL1       -0.0195
     13 C         -11.8640   -5.9497   19.1314 C.ar    1  UNL1        0.0080
     14 C         -10.5613   -5.4937   18.5439 C.ar    1  UNL1        0.0679
     15 CL         -9.2949   -5.6221   19.3375 Cl      1  UNL1       -0.0814
     16 C         -14.9308   -4.9812   19.4929 C.3     1  UNL1        0.1461
     17 O         -14.4375   -4.5086   20.8283 O.3     1  UNL1       -0.3534
     18 C         -13.8189   -3.1485   20.9608 C.3     1  UNL1        0.1421
     19 C         -13.1761   -2.4978   19.7720 C.3     1  UNL1        0.0297
     20 C         -13.2969   -1.7993   18.4501 C.3     1  UNL1        0.0026
     21 C         -11.9421   -2.0692   19.0347 C.3     1  UNL1        0.0026
@<TRIPOS>BOND
     1     8     9    1
     2     9    10   ar
     3    10    11   ar
     4    11    12   ar
     5    12     1    1
     6     1    16    1
     7    16    17    1
     8    17    18    1
     9    18    19    1
    10    19    20    1
    11    20    21    1
    12     1     2    1
    13     2     3    1
    14     3     4    1
    15     4     5    1
    16     6     5    1
    17    12    13   ar
    18    13    14   ar
    19    14    15    1
    20    14     9   ar
    21     6     1    1
    22    21    19    1
    23     6     2    1
    24     4     7    1
@<TRIPOS>MOLECULE
*****
 21 24 0 0 0
SMALL
GASTEIGER

@<TRIPOS>ATOM
      1 C          -7.3595  -17.1069   22.8722 C.3     1  UNL1        0.0489
      2 C          -7.4987  -16.0266   23.9034 C.3     1  UNL1        0.0236
      3 C          -7.3248  -14.9600   24.9438 C.3     1  UNL1        0.0690
      4 N          -5.8560  -14.8001   25.2026 N.3     1  UNL1       -0.2974
      5 C          -5.1221  -15.7678   24.3223 C.3     1  UNL1        0.0690
      6 C          -6.1374  -16.5259   23.5193 C.3     1  UNL1        0.0236
      7 H          -5.6533  -15.0007   26.1819 H       1  UNL1        0.1232
      8 CL        -13.1383  -18.0435   21.5576 Cl      1  UNL1       -0.0814
      9 C         -11.6936  -17.8094   21.8863 C.ar    1  UNL1        0.0682
     10 C         -11.1726  -16.4093   22.0217 C.ar    1  UNL1        0.0119
     11 C          -9.7279  -16.1752   22.3503 C.ar    1  UNL1       -0.0033
     12 C          -8.8042  -17.3411   22.5436 C.ar    1  UNL1       -0.0195
     13 C          -9.3252  -18.7411   22.4082 C.ar    1  UNL1        0.0080
     14 C         -10.7699  -18.9753   22.0795 C.ar    1  UNL1        0.0679
     15 CL        -11.2909  -20.3754   21.9441 Cl      1  UNL1       -0.0814
     16 C          -6.7185  -18.1060   21.9551 C.3     1  UNL1        0.1461
     17 O          -5.7764  -19.1344   22.5071 O.3     1  UNL1       -0.3534
     18 C          -4.4803  -19.4170   21.8068 C.3     1  UNL1        0.1421
     19 C          -3.3180  -18.4838   21.9748 C.3     1  UNL1        0.0297
     20 C          -2.3575  -17.7525   22.8650 C.3     1  UNL1        0.0026
     21 C          -2.2655  -17.5989   21.3757 C.3     1  UNL1        0.0026
@<TRIPOS>BOND
     1     8     9    1
     2     9    10   ar
     3    10    11   ar
     4    11    12   ar
     5    12     1    1
     6     1    16    1
     7    16    17    1
     8    17    18    1
     9    18    19    1
    10    19    20    1
    11    20    21    1
    12     1     2    1
    13     2     3    1
    14     3     4    1
    15     4     5    1
    16     6     5    1
    17    12    13   ar
    18    13    14   ar
    19    14    15    1
    20    14     9   ar
    21     6     1    1
    22    21    19    1
    23     6     2    1
    24     4     7    1
