@<TRIPOS>MOLECULE
*****
 30 34 0 0 0
SMALL
GASTEIGER

@<TRIPOS>ATOM
      1 C          -3.3742  -18.8742   21.5188 C.ar    1  UNL1        0.1783
      2 N          -3.5804  -20.0011   20.5506 N.ar    1  UNL1       -0.1291
      3 N          -5.0079  -20.4489   20.6577 N.ar    1  UNL1       -0.1126
      4 C          -5.6841  -19.5987   21.6921 C.ar    1  UNL1        0.2255
      5 N          -4.6743  -18.6255   22.2242 N.ar    1  UNL1       -0.2620
      6 N          -7.1181  -19.7033   22.1192 N.pl3   1  UNL1       -0.2777
      7 C          -7.6771  -20.6952   23.0958 C.3     1  UNL1        0.0939
      8 C          -9.1495  -20.4394   23.2250 C.3     1  UNL1        0.0256
      9 C         -10.5669  -19.9550   23.1466 C.3     1  UNL1        0.0079
     10 C          -9.5005  -19.2893   22.3282 C.3     1  UNL1        0.0397
     11 C          -8.2451  -18.8345   21.6449 C.3     1  UNL1        0.0976
     12 C         -10.4045  -18.2813   21.6828 C.ar    1  UNL1       -0.0104
     13 C         -10.9509  -17.1398   22.4880 C.ar    1  UNL1       -0.0011
     14 C         -11.8549  -16.1316   21.8425 C.ar    1  UNL1        0.0294
     15 C         -12.2125  -16.2651   20.3919 C.ar    1  UNL1        0.1410
     16 F         -13.1165  -15.2571   19.7464 F       1  UNL1       -0.2041
     17 C         -11.6660  -17.4067   19.5867 C.ar    1  UNL1        0.0407
     18 C         -10.7620  -18.4148   20.2321 C.ar    1  UNL1        0.0560
     19 CL        -10.2156  -19.5563   19.4269 Cl      1  UNL1       -0.0825
     20 C          -4.9214  -17.5860   23.2771 C.ar    1  UNL1        0.0871
     21 C          -4.1068  -17.5855   24.5366 C.ar    1  UNL1        0.0240
     22 C          -4.3540  -16.5460   25.5893 C.ar    1  UNL1        0.0592
     23 C          -5.4158  -15.5070   25.3827 C.ar    1  UNL1        0.2251
     24 N          -6.2305  -15.5074   24.1232 N.ar    1  UNL1       -0.2086
     25 C          -5.9833  -16.5469   23.0704 C.ar    1  UNL1        0.1196
     26 O          -5.6630  -14.4675   26.4355 O.3     1  UNL1       -0.4561
     27 C          -6.6448  -14.7351   27.5376 C.3     1  UNL1        0.2542
     28 C          -2.0928  -18.1271   21.7423 C.3     1  UNL1        0.2079
     29 C          -0.4831  -17.8334   19.7243 C.3     1  UNL1        0.1747
     30 O          -0.8517  -18.5283   21.0014 O.3     1  UNL1       -0.3430
@<TRIPOS>BOND
     1    29    30    1
     2    30    28    1
     3    28     1    1
     4     1     2   ar
     5     2     3   ar
     6     3     4   ar
     7     4     6    1
     8     6     7    1
     9     8     7    1
    10     8     9    1
    11     9    10    1
    12    10    12    1
    13    12    13   ar
    14    13    14   ar
    15    14    15   ar
    16    15    16    1
    17    15    17   ar
    18    17    18   ar
    19    18    19    1
    20    10    11    1
    21     4     5   ar
    22     5    20    1
    23    20    21   ar
    24    21    22   ar
    25    22    23   ar
    26    23    26    1
    27    26    27    1
    28    23    24   ar
    29    24    25   ar
    30     5     1   ar
    31    25    20   ar
    32    11     6    1
    33    10     8    1
    34    18    12   ar
@<TRIPOS>MOLECULE
*****
 30 34 0 0 0
SMALL
GASTEIGER

@<TRIPOS>ATOM
      1 C          -4.0643  -18.7325   22.1329 C.ar    1  UNL1        0.1783
      2 N          -3.6745  -19.6253   20.9922 N.ar    1  UNL1       -0.1291
      3 N          -4.9107  -19.9311   20.1998 N.ar    1  UNL1       -0.1126
      4 C          -6.0645  -19.2275   20.8506 C.ar    1  UNL1        0.2255
      5 N          -5.5413  -18.4867   22.0454 N.ar    1  UNL1       -0.2620
      6 N          -7.4910  -19.2591   20.3880 N.pl3   1  UNL1       -0.2777
      7 C          -7.9637  -19.6221   19.0114 C.3     1  UNL1        0.0939
      8 C          -9.4601  -19.5206   18.9933 C.3     1  UNL1        0.0256
      9 C         -10.9216  -19.3351   19.2753 C.3     1  UNL1        0.0079
     10 C          -9.9124  -19.0949   20.3587 C.3     1  UNL1        0.0397
     11 C          -8.6954  -18.9333   21.2206 C.3     1  UNL1        0.0976
     12 C         -10.9057  -18.7188   21.4178 C.ar    1  UNL1       -0.0104
     13 C         -11.0407  -19.5603   22.6522 C.ar    1  UNL1       -0.0011
     14 C         -12.0341  -19.1843   23.7114 C.ar    1  UNL1        0.0294
     15 C         -12.8925  -17.9667   23.5362 C.ar    1  UNL1        0.1410
     16 F         -13.8859  -17.5907   24.5953 F       1  UNL1       -0.2041
     17 C         -12.7575  -17.1252   22.3017 C.ar    1  UNL1        0.0407
     18 C         -11.7642  -17.5013   21.2426 C.ar    1  UNL1        0.0560
     19 CL        -11.6293  -16.6598   20.0082 Cl      1  UNL1       -0.0825
     20 C          -6.3528  -17.6475   22.9873 C.ar    1  UNL1        0.0871
     21 C          -7.7370  -18.0781   23.3729 C.ar    1  UNL1        0.0240
     22 C          -8.5484  -17.2388   24.3148 C.ar    1  UNL1        0.0592
     23 C          -7.9758  -15.9689   24.8710 C.ar    1  UNL1        0.2251
     24 N          -6.5916  -15.5383   24.4854 N.ar    1  UNL1       -0.2086
     25 C          -5.7802  -16.3776   23.5435 C.ar    1  UNL1        0.1196
     26 O          -8.7872  -15.1296   25.8129 O.3     1  UNL1       -0.4561
     27 C          -8.4683  -15.1258   27.2787 C.3     1  UNL1        0.2542
     28 C          -3.1392  -18.1823   23.1778 C.3     1  UNL1        0.2079
     29 C          -2.2064  -16.2074   21.7708 C.3     1  UNL1        0.1747
     30 O          -1.9944  -17.3000   22.7763 O.3     1  UNL1       -0.3430
@<TRIPOS>BOND
     1    29    30    1
     2    30    28    1
     3    28     1    1
     4     1     2   ar
     5     2     3   ar
     6     3     4   ar
     7     4     6    1
     8     6     7    1
     9     8     7    1
    10     8     9    1
    11     9    10    1
    12    10    12    1
    13    12    13   ar
    14    13    14   ar
    15    14    15   ar
    16    15    16    1
    17    15    17   ar
    18    17    18   ar
    19    18    19    1
    20    10    11    1
    21     4     5   ar
    22     5    20    1
    23    20    21   ar
    24    21    22   ar
    25    22    23   ar
    26    23    26    1
    27    26    27    1
    28    23    24   ar
    29    24    25   ar
    30     5     1   ar
    31    25    20   ar
    32    11     6    1
    33    10     8    1
    34    18    12   ar
@<TRIPOS>MOLECULE
*****
 30 34 0 0 0
SMALL
GASTEIGER

@<TRIPOS>ATOM
      1 C           4.1530   -3.3961   20.7161 C.ar    1  UNL1        0.1783
      2 N           4.9453   -4.0273   21.8224 N.ar    1  UNL1       -0.1291
      3 N           5.0237   -3.0463   22.9543 N.ar    1  UNL1       -0.1126
      4 C           4.2799   -1.8088   22.5477 C.ar    1  UNL1        0.2255
      5 N           3.7418   -2.0251   21.1643 N.ar    1  UNL1       -0.2620
      6 N           4.1050   -0.5722   23.3784 N.pl3   1  UNL1       -0.2777
      7 C           5.0276    0.6102   23.4047 C.3     1  UNL1        0.0939
      8 C           4.4695    1.6123   24.3713 C.3     1  UNL1        0.0256
      9 C           3.6842    2.4017   25.3763 C.3     1  UNL1        0.0079
     10 C           3.2020    1.0492   24.9425 C.3     1  UNL1        0.0397
     11 C           2.9767   -0.3008   24.3288 C.3     1  UNL1        0.0976
     12 C           1.9728    1.0378   25.8022 C.ar    1  UNL1       -0.0104
     13 C           2.0648    0.6086   27.2365 C.ar    1  UNL1       -0.0011
     14 C           0.8357    0.5972   28.0963 C.ar    1  UNL1        0.0294
     15 C          -0.4854    1.0150   27.5217 C.ar    1  UNL1        0.1410
     16 F          -1.7146    1.0036   28.3814 F       1  UNL1       -0.2041
     17 C          -0.5774    1.4442   26.0873 C.ar    1  UNL1        0.0407
     18 C           0.6517    1.4556   25.2276 C.ar    1  UNL1        0.0560
     19 CL          0.5598    1.8849   23.7932 Cl      1  UNL1       -0.0825
     20 C           2.9343   -1.0426   20.3689 C.ar    1  UNL1        0.0871
     21 C           1.5149   -0.7504   20.7563 C.ar    1  UNL1        0.0240
     22 C           0.7075    0.2321   19.9608 C.ar    1  UNL1        0.0592
     23 C           1.3193    0.9223   18.7780 C.ar    1  UNL1        0.2251
     24 N           2.7386    0.6301   18.3905 N.ar    1  UNL1       -0.2086
     25 C           3.5461   -0.3524   19.1860 C.ar    1  UNL1        0.1196
     26 O           0.5118    1.9048   17.9825 O.3     1  UNL1       -0.4561
     27 C           0.3881    3.3253   18.4483 C.3     1  UNL1        0.2542
     28 C           3.8289   -4.0256   19.3936 C.3     1  UNL1        0.2079
     29 C           5.9156   -2.9096   18.3213 C.3     1  UNL1        0.1747
     30 O           4.7839   -3.8911   18.2448 O.3     1  UNL1       -0.3430
@<TRIPOS>BOND
     1    29    30    1
     2    30    28    1
     3    28     1    1
     4     1     2   ar
     5     2     3   ar
     6     3     4   ar
     7     4     6    1
     8     6     7    1
     9     8     7    1
    10     8     9    1
    11     9    10    1
    12    10    12    1
    13    12    13   ar
    14    13    14   ar
    15    14    15   ar
    16    15    16    1
    17    15    17   ar
    18    17    18   ar
    19    18    19    1
    20    10    11    1
    21     4     5   ar
    22     5    20    1
    23    20    21   ar
    24    21    22   ar
    25    22    23   ar
    26    23    26    1
    27    26    27    1
    28    23    24   ar
    29    24    25   ar
    30     5     1   ar
    31    25    20   ar
    32    11     6    1
    33    10     8    1
    34    18    12   ar
@<TRIPOS>MOLECULE
*****
 30 34 0 0 0
SMALL
GASTEIGER

@<TRIPOS>ATOM
      1 C         -14.2725   -1.2911   18.8343 C.ar    1  UNL1        0.1783
      2 N         -15.2970   -0.2807   19.2578 N.ar    1  UNL1       -0.1291
      3 N         -16.5888   -1.0036   19.4991 N.ar    1  UNL1       -0.1126
      4 C         -16.3628   -2.4608   19.2247 C.ar    1  UNL1        0.2255
      5 N         -14.9312   -2.6385   18.8138 N.ar    1  UNL1       -0.2620
      6 N         -17.3884   -3.5493   19.3408 N.pl3   1  UNL1       -0.2777
      7 C         -18.8342   -3.3643   19.6949 C.3     1  UNL1        0.0939
      8 C         -19.4876   -4.7145   19.6961 C.3     1  UNL1        0.0256
      9 C         -19.8547   -6.1669   19.6200 C.3     1  UNL1        0.0079
     10 C         -18.4456   -5.7340   19.3428 C.3     1  UNL1        0.0397
     11 C         -17.1482   -5.0138   19.1232 C.3     1  UNL1        0.0976
     12 C         -17.9108   -7.1081   19.0673 C.ar    1  UNL1       -0.0104
     13 C         -17.2015   -7.8676   20.1489 C.ar    1  UNL1       -0.0011
     14 C         -16.6667   -9.2417   19.8734 C.ar    1  UNL1        0.0294
     15 C         -16.8412   -9.8563   18.5162 C.ar    1  UNL1        0.1410
     16 F         -16.3064  -11.2303   18.2407 F       1  UNL1       -0.2041
     17 C         -17.5505   -9.0966   17.4345 C.ar    1  UNL1        0.0407
     18 C         -18.0853   -7.7226   17.7101 C.ar    1  UNL1        0.0560
     19 CL        -18.7946   -6.9631   16.6284 Cl      1  UNL1       -0.0825
     20 C         -14.2738   -3.9359   18.4469 C.ar    1  UNL1        0.0871
     21 C         -13.6925   -4.8113   19.5172 C.ar    1  UNL1        0.0240
     22 C         -13.0351   -6.1087   19.1502 C.ar    1  UNL1        0.0592
     23 C         -12.9591   -6.5307   17.7128 C.ar    1  UNL1        0.2251
     24 N         -13.5405   -5.6553   16.6424 N.ar    1  UNL1       -0.2086
     25 C         -14.1978   -4.3579   17.0095 C.ar    1  UNL1        0.1196
     26 O         -12.3018   -7.8280   17.3458 O.3     1  UNL1       -0.4561
     27 C         -11.7026   -8.0058   15.9821 C.3     1  UNL1        0.2542
     28 C         -12.8405   -1.0044   18.4914 C.3     1  UNL1        0.2079
     29 C         -10.8317   -2.6471   18.3643 C.3     1  UNL1        0.1747
     30 O         -11.7401   -1.7658   19.1692 O.3     1  UNL1       -0.3430
@<TRIPOS>BOND
     1    29    30    1
     2    30    28    1
     3    28     1    1
     4     1     2   ar
     5     2     3   ar
     6     3     4   ar
     7     4     6    1
     8     6     7    1
     9     8     7    1
    10     8     9    1
    11     9    10    1
    12    10    12    1
    13    12    13   ar
    14    13    14   ar
    15    14    15   ar
    16    15    16    1
    17    15    17   ar
    18    17    18   ar
    19    18    19    1
    20    10    11    1
    21     4     5   ar
    22     5    20    1
    23    20    21   ar
    24    21    22   ar
    25    22    23   ar
    26    23    26    1
    27    26    27    1
    28    23    24   ar
    29    24    25   ar
    30     5     1   ar
    31    25    20   ar
    32    11     6    1
    33    10     8    1
    34    18    12   ar
@<TRIPOS>MOLECULE
*****
 30 34 0 0 0
SMALL
GASTEIGER

@<TRIPOS>ATOM
      1 C         -18.6722   -2.4097   19.8703 C.ar    1  UNL1        0.1783
      2 N         -19.7875   -3.3503   20.2186 N.ar    1  UNL1       -0.1291
      3 N         -19.2716   -4.7520   20.0819 N.ar    1  UNL1       -0.1126
      4 C         -17.8373   -4.6779   19.6490 C.ar    1  UNL1        0.2255
      5 N         -17.4669   -3.2302   19.5183 N.ar    1  UNL1       -0.2620
      6 N         -16.9324   -5.8462   19.3920 N.pl3   1  UNL1       -0.2777
      7 C         -17.3040   -7.2939   19.5185 C.3     1  UNL1        0.0939
      8 C         -16.0982   -8.1144   19.1681 C.3     1  UNL1        0.0256
      9 C         -14.7561   -8.6559   18.7741 C.3     1  UNL1        0.0079
     10 C         -14.9813   -7.1738   18.8251 C.3     1  UNL1        0.0397
     11 C         -15.4968   -5.7720   18.9635 C.3     1  UNL1        0.0976
     12 C         -13.5928   -6.7897   18.4071 C.ar    1  UNL1       -0.0104
     13 C         -12.6445   -6.1995   19.4083 C.ar    1  UNL1       -0.0011
     14 C         -11.2560   -5.8154   18.9904 C.ar    1  UNL1        0.0294
     15 C         -10.8159   -6.0216   17.5713 C.ar    1  UNL1        0.1410
     16 F          -9.4274   -5.6375   17.1534 F       1  UNL1       -0.2041
     17 C         -11.7642   -6.6119   16.5701 C.ar    1  UNL1        0.0407
     18 C         -13.1527   -6.9959   16.9881 C.ar    1  UNL1        0.0560
     19 CL        -14.1010   -7.5862   15.9869 Cl      1  UNL1       -0.0825
     20 C         -16.1264   -2.6968   19.1076 C.ar    1  UNL1        0.0871
     21 C         -15.0122   -2.6168   20.1086 C.ar    1  UNL1        0.0240
     22 C         -13.6718   -2.0834   19.6978 C.ar    1  UNL1        0.0592
     23 C         -13.4456   -1.6299   18.2860 C.ar    1  UNL1        0.2251
     24 N         -14.5598   -1.7099   17.2850 N.ar    1  UNL1       -0.2086
     25 C         -15.9002   -2.2433   17.6958 C.ar    1  UNL1        0.1196
     26 O         -12.1051   -1.0965   17.8753 O.3     1  UNL1       -0.4561
     27 C         -12.0051   -0.0970   16.7612 C.3     1  UNL1        0.2542
     28 C         -18.7487   -0.9116   19.8735 C.3     1  UNL1        0.2079
     29 C         -17.0047    0.9465   20.3785 C.3     1  UNL1        0.1747
     30 O         -17.9412   -0.1215   20.8602 O.3     1  UNL1       -0.3430
@<TRIPOS>BOND
     1    29    30    1
     2    30    28    1
     3    28     1    1
     4     1     2   ar
     5     2     3   ar
     6     3     4   ar
     7     4     6    1
     8     6     7    1
     9     8     7    1
    10     8     9    1
    11     9    10    1
    12    10    12    1
    13    12    13   ar
    14    13    14   ar
    15    14    15   ar
    16    15    16    1
    17    15    17   ar
    18    17    18   ar
    19    18    19    1
    20    10    11    1
    21     4     5   ar
    22     5    20    1
    23    20    21   ar
    24    21    22   ar
    25    22    23   ar
    26    23    26    1
    27    26    27    1
    28    23    24   ar
    29    24    25   ar
    30     5     1   ar
    31    25    20   ar
    32    11     6    1
    33    10     8    1
    34    18    12   ar
@<TRIPOS>MOLECULE
*****
 30 34 0 0 0
SMALL
GASTEIGER

@<TRIPOS>ATOM
      1 C           0.7238    1.5009   29.7594 C.ar    1  UNL1        0.1783
      2 N           0.3176    1.7745   31.1772 N.ar    1  UNL1       -0.1291
      3 N           1.4603    1.3896   32.0693 N.ar    1  UNL1       -0.1126
      4 C           2.5728    0.8780   31.2028 C.ar    1  UNL1        0.2255
      5 N           2.1175    0.9469   29.7753 N.ar    1  UNL1       -0.2620
      6 N           3.9064    0.3843   31.6802 N.pl3   1  UNL1       -0.2777
      7 C           4.8272    1.1028   32.6213 C.3     1  UNL1        0.0939
      8 C           6.0432    0.2480   32.8230 C.3     1  UNL1        0.0256
      9 C           7.1135   -0.8029   32.8281 C.3     1  UNL1        0.0079
     10 C           5.8739   -0.9988   32.0065 C.3     1  UNL1        0.0397
     11 C           4.5533   -0.9145   31.3002 C.3     1  UNL1        0.0976
     12 C           6.2617   -2.3386   31.4547 C.ar    1  UNL1       -0.0104
     13 C           6.3152   -3.5348   32.3581 C.ar    1  UNL1       -0.0011
     14 C           6.7029   -4.8747   31.8063 C.ar    1  UNL1        0.0294
     15 C           7.0372   -5.0184   30.3511 C.ar    1  UNL1        0.1410
     16 F           7.4249   -6.3582   29.7993 F       1  UNL1       -0.2041
     17 C           6.9837   -3.8221   29.4477 C.ar    1  UNL1        0.0407
     18 C           6.5959   -2.4822   29.9994 C.ar    1  UNL1        0.0560
     19 CL          6.5425   -1.2860   29.0960 Cl      1  UNL1       -0.0825
     20 C           2.9160    0.5341   28.5744 C.ar    1  UNL1        0.0871
     21 C           2.8169   -0.8693   28.0540 C.ar    1  UNL1        0.0240
     22 C           3.6154   -1.2820   26.8531 C.ar    1  UNL1        0.0592
     23 C           4.5130   -0.2914   26.1726 C.ar    1  UNL1        0.2251
     24 N           4.6121    1.1120   26.6930 N.ar    1  UNL1       -0.2086
     25 C           3.8136    1.5247   27.8939 C.ar    1  UNL1        0.1196
     26 O           5.3115   -0.7041   24.9718 O.3     1  UNL1       -0.4561
     27 C           5.5573   -2.1584   24.6982 C.3     1  UNL1        0.2542
     28 C          -0.1164    1.7395   28.5399 C.3     1  UNL1        0.2079
     29 C          -1.3101   -0.5482   28.8416 C.3     1  UNL1        0.1747
     30 O          -0.9640    0.6333   27.9849 O.3     1  UNL1       -0.3430
@<TRIPOS>BOND
     1    29    30    1
     2    30    28    1
     3    28     1    1
     4     1     2   ar
     5     2     3   ar
     6     3     4   ar
     7     4     6    1
     8     6     7    1
     9     8     7    1
    10     8     9    1
    11     9    10    1
    12    10    12    1
    13    12    13   ar
    14    13    14   ar
    15    14    15   ar
    16    15    16    1
    17    15    17   ar
    18    17    18   ar
    19    18    19    1
    20    10    11    1
    21     4     5   ar
    22     5    20    1
    23    20    21   ar
    24    21    22   ar
    25    22    23   ar
    26    23    26    1
    27    26    27    1
    28    23    24   ar
    29    24    25   ar
    30     5     1   ar
    31    25    20   ar
    32    11     6    1
    33    10     8    1
    34    18    12   ar
@<TRIPOS>MOLECULE
*****
 30 34 0 0 0
SMALL
GASTEIGER

@<TRIPOS>ATOM
      1 C         -10.7646   -4.6471   18.7537 C.ar    1  UNL1        0.1783
      2 N         -10.0133   -3.3521   18.6616 N.ar    1  UNL1       -0.1291
      3 N         -10.9964   -2.2684   18.3313 N.ar    1  UNL1       -0.1126
      4 C         -12.3553   -2.8937   18.2193 C.ar    1  UNL1        0.2255
      5 N         -12.2119   -4.3638   18.4804 N.ar    1  UNL1       -0.2620
      6 N         -13.6331   -2.1750   17.9019 N.pl3   1  UNL1       -0.2777
      7 C         -14.5101   -2.4206   16.7100 C.3     1  UNL1        0.0939
      8 C         -15.6773   -1.4819   16.7921 C.3     1  UNL1        0.0256
      9 C         -16.7060   -0.4467   17.1386 C.3     1  UNL1        0.0079
     10 C         -15.5216   -0.6563   18.0347 C.3     1  UNL1        0.0397
     11 C         -14.2582   -1.0846   18.7205 C.3     1  UNL1        0.0976
     12 C         -15.8990    0.3903   19.0408 C.ar    1  UNL1       -0.0104
     13 C         -16.8029    0.0391   20.1852 C.ar    1  UNL1       -0.0011
     14 C         -17.1804    1.0858   21.1913 C.ar    1  UNL1        0.0294
     15 C         -16.6540    2.4835   21.0529 C.ar    1  UNL1        0.1410
     16 F         -17.0314    3.5301   22.0590 F       1  UNL1       -0.2041
     17 C         -15.7500    2.8347   19.9085 C.ar    1  UNL1        0.0407
     18 C         -15.3726    1.7881   18.9024 C.ar    1  UNL1        0.0560
     19 CL        -14.4687    2.1393   17.7580 Cl      1  UNL1       -0.0825
     20 C         -13.3213   -5.3734   18.4699 C.ar    1  UNL1        0.0871
     21 C         -14.1681   -5.5700   19.6923 C.ar    1  UNL1        0.0240
     22 C         -15.2775   -6.5796   19.6818 C.ar    1  UNL1        0.0592
     23 C         -15.5401   -7.3925   18.4488 C.ar    1  UNL1        0.2251
     24 N         -14.6933   -7.1958   17.2264 N.ar    1  UNL1       -0.2086
     25 C         -13.5839   -6.1863   17.2370 C.ar    1  UNL1        0.1196
     26 O         -16.6495   -8.4020   18.4383 O.3     1  UNL1       -0.4561
     27 C         -16.9463   -9.2029   19.6714 C.3     1  UNL1        0.2542
     28 C         -10.1724   -5.9898   19.0647 C.3     1  UNL1        0.2079
     29 C         -10.4635   -8.0748   17.5423 C.3     1  UNL1        0.1747
     30 O          -9.6759   -6.8661   17.9531 O.3     1  UNL1       -0.3430
@<TRIPOS>BOND
     1    29    30    1
     2    30    28    1
     3    28     1    1
     4     1     2   ar
     5     2     3   ar
     6     3     4   ar
     7     4     6    1
     8     6     7    1
     9     8     7    1
    10     8     9    1
    11     9    10    1
    12    10    12    1
    13    12    13   ar
    14    13    14   ar
    15    14    15   ar
    16    15    16    1
    17    15    17   ar
    18    17    18   ar
    19    18    19    1
    20    10    11    1
    21     4     5   ar
    22     5    20    1
    23    20    21   ar
    24    21    22   ar
    25    22    23   ar
    26    23    26    1
    27    26    27    1
    28    23    24   ar
    29    24    25   ar
    30     5     1   ar
    31    25    20   ar
    32    11     6    1
    33    10     8    1
    34    18    12   ar
@<TRIPOS>MOLECULE
*****
 30 34 0 0 0
SMALL
GASTEIGER

@<TRIPOS>ATOM
      1 C           8.6621   -6.5994   25.1395 C.ar    1  UNL1        0.1783
      2 N           8.9467   -7.6640   24.1217 N.ar    1  UNL1       -0.1291
      3 N           8.7861   -7.0575   22.7593 N.ar    1  UNL1       -0.1126
      4 C           8.4023   -5.6182   22.9350 C.ar    1  UNL1        0.2255
      5 N           8.3257   -5.3351   24.4060 N.ar    1  UNL1       -0.2620
      6 N           8.1409   -4.6346   21.8330 N.pl3   1  UNL1       -0.2777
      7 C           9.1523   -4.1205   20.8518 C.3     1  UNL1        0.0939
      8 C           8.4588   -3.1606   19.9312 C.3     1  UNL1        0.0256
      9 C           7.5125   -2.2692   19.1830 C.3     1  UNL1        0.0079
     10 C           7.0188   -3.0813   20.3434 C.3     1  UNL1        0.0397
     11 C           6.8223   -3.9923   21.5189 C.3     1  UNL1        0.0976
     12 C           5.5969   -2.6088   20.2719 C.ar    1  UNL1       -0.0104
     13 C           5.1701   -1.3955   21.0438 C.ar    1  UNL1       -0.0011
     14 C           3.7482   -0.9230   20.9722 C.ar    1  UNL1        0.0294
     15 C           2.7532   -1.6638   20.1288 C.ar    1  UNL1        0.1410
     16 F           1.3314   -1.1913   20.0573 F       1  UNL1       -0.2041
     17 C           3.1801   -2.8771   19.3570 C.ar    1  UNL1        0.0407
     18 C           4.6020   -3.3496   19.4285 C.ar    1  UNL1        0.0560
     19 CL          5.0288   -4.5628   18.6566 Cl      1  UNL1       -0.0825
     20 C           7.9742   -4.0186   25.0333 C.ar    1  UNL1        0.0871
     21 C           6.5362   -3.6188   25.1823 C.ar    1  UNL1        0.0240
     22 C           6.1849   -2.3024   25.8096 C.ar    1  UNL1        0.0592
     23 C           7.2716   -1.3858   26.2880 C.ar    1  UNL1        0.2251
     24 N           8.7096   -1.7856   26.1391 N.ar    1  UNL1       -0.2086
     25 C           9.0609   -3.1020   25.5118 C.ar    1  UNL1        0.1196
     26 O           6.9202   -0.0693   26.9154 O.3     1  UNL1       -0.4561
     27 C           5.4826    0.2915   27.1463 C.3     1  UNL1        0.2542
     28 C           8.7063   -6.7695   26.6292 C.3     1  UNL1        0.2079
     29 C           7.6471   -6.1643   28.9230 C.3     1  UNL1        0.1747
     30 O           7.4982   -6.4454   27.4572 O.3     1  UNL1       -0.3430
@<TRIPOS>BOND
     1    29    30    1
     2    30    28    1
     3    28     1    1
     4     1     2   ar
     5     2     3   ar
     6     3     4   ar
     7     4     6    1
     8     6     7    1
     9     8     7    1
    10     8     9    1
    11     9    10    1
    12    10    12    1
    13    12    13   ar
    14    13    14   ar
    15    14    15   ar
    16    15    16    1
    17    15    17   ar
    18    17    18   ar
    19    18    19    1
    20    10    11    1
    21     4     5   ar
    22     5    20    1
    23    20    21   ar
    24    21    22   ar
    25    22    23   ar
    26    23    26    1
    27    26    27    1
    28    23    24   ar
    29    24    25   ar
    30     5     1   ar
    31    25    20   ar
    32    11     6    1
    33    10     8    1
    34    18    12   ar
@<TRIPOS>MOLECULE
*****
 30 34 0 0 0
SMALL
GASTEIGER

@<TRIPOS>ATOM
      1 C           5.4740   -2.5397   19.0418 C.ar    1  UNL1        0.1783
      2 N           5.6416   -2.4681   17.5529 N.ar    1  UNL1       -0.1291
      3 N           5.2231   -1.0993   17.1047 N.ar    1  UNL1       -0.1126
      4 C           4.7968   -0.3248   18.3165 C.ar    1  UNL1        0.2255
      5 N           4.9520   -1.2152   19.5137 N.ar    1  UNL1       -0.2620
      6 N           4.3023    1.0913   18.3290 N.pl3   1  UNL1       -0.2777
      7 C           5.1026    2.3078   17.9690 C.3     1  UNL1        0.0939
      8 C           4.2156    3.5079   18.1212 C.3     1  UNL1        0.0256
      9 C           3.1131    4.4968   18.3591 C.3     1  UNL1        0.0079
     10 C           2.8672    3.0330   18.5753 C.3     1  UNL1        0.0397
     11 C           2.9208    1.5395   18.7037 C.3     1  UNL1        0.0976
     12 C           1.4342    3.1751   18.9952 C.ar    1  UNL1       -0.0104
     13 C           0.3780    3.4672   17.9710 C.ar    1  UNL1       -0.0011
     14 C          -1.0551    3.6094   18.3909 C.ar    1  UNL1        0.0294
     15 C          -1.4319    3.4595   19.8350 C.ar    1  UNL1        0.1410
     16 F          -2.8648    3.6016   20.2549 F       1  UNL1       -0.2041
     17 C          -0.3756    3.1674   20.8593 C.ar    1  UNL1        0.0407
     18 C           1.0574    3.0252   20.4394 C.ar    1  UNL1        0.0560
     19 CL          2.1136    2.7331   21.4637 Cl      1  UNL1       -0.0825
     20 C           4.6398   -0.8457   20.9336 C.ar    1  UNL1        0.0871
     21 C           3.2842   -1.1396   21.5045 C.ar    1  UNL1        0.0240
     22 C           2.9721   -0.7701   22.9243 C.ar    1  UNL1        0.0592
     23 C           4.0156   -0.1066   23.7734 C.ar    1  UNL1        0.2251
     24 N           5.3712    0.1874   23.2025 N.ar    1  UNL1       -0.2086
     25 C           5.6833   -0.1822   21.7826 C.ar    1  UNL1        0.1196
     26 O           3.7035    0.2630   25.1932 O.3     1  UNL1       -0.4561
     27 C           4.5735    1.2445   25.9213 C.3     1  UNL1        0.2542
     28 C           5.7756   -3.7276   19.9068 C.3     1  UNL1        0.2079
     29 C           3.4777   -4.8645   19.4865 C.3     1  UNL1        0.1747
     30 O           4.6620   -4.6178   20.3732 O.3     1  UNL1       -0.3430
@<TRIPOS>BOND
     1    29    30    1
     2    30    28    1
     3    28     1    1
     4     1     2   ar
     5     2     3   ar
     6     3     4   ar
     7     4     6    1
     8     6     7    1
     9     8     7    1
    10     8     9    1
    11     9    10    1
    12    10    12    1
    13    12    13   ar
    14    13    14   ar
    15    14    15   ar
    16    15    16    1
    17    15    17   ar
    18    17    18   ar
    19    18    19    1
    20    10    11    1
    21     4     5   ar
    22     5    20    1
    23    20    21   ar
    24    21    22   ar
    25    22    23   ar
    26    23    26    1
    27    26    27    1
    28    23    24   ar
    29    24    25   ar
    30     5     1   ar
    31    25    20   ar
    32    11     6    1
    33    10     8    1
    34    18    12   ar
