@<TRIPOS>MOLECULE
*****
 29 32 0 0 0
SMALL
GASTEIGER

@<TRIPOS>ATOM
      1 C         -15.1081    0.6972   18.9879 C.ar    1  UNL1       -0.0024
      2 C         -13.7589    0.6874   18.3324 C.ar    1  UNL1       -0.0013
      3 C         -12.9385   -0.5684   18.3235 C.ar    1  UNL1        0.0185
      4 C         -13.4674   -1.8143   18.9701 C.ar    1  UNL1        0.1103
      5 C         -14.8166   -1.8045   19.6256 C.ar    1  UNL1        0.0185
      6 C         -15.6369   -0.5487   19.6345 C.ar    1  UNL1       -0.0013
      7 S         -12.6471   -3.0701   18.9612 S.O2    1  UNL1        0.0274
      8 O         -13.9003   -3.8894   19.0512 O.2     1  UNL1       -0.1642
      9 O         -11.3938   -2.2508   18.8712 O.2     1  UNL1       -0.1642
     10 C         -11.8267   -4.3259   18.9523 C.ar    1  UNL1        0.1103
     11 C         -12.5042   -5.6642   18.9406 C.ar    1  UNL1        0.0187
     12 C         -11.6838   -6.9199   18.9317 C.ar    1  UNL1        0.0013
     13 C         -10.1861   -6.8375   18.9345 C.ar    1  UNL1        0.0001
     14 C          -9.5087   -5.4992   18.9462 C.ar    1  UNL1        0.0013
     15 C         -10.3290   -4.2434   18.9551 C.ar    1  UNL1        0.0187
     16 C         -15.9285    1.9530   18.9968 C.3     1  UNL1        0.1177
     17 O         -14.8823    4.0037   20.9203 O.2     1  UNL1       -0.2526
     18 C         -16.2049    3.3432   21.1741 C.2     1  UNL1        0.3047
     19 N         -16.7280    2.3179   20.2124 N.am    1  UNL1       -0.2847
     20 N         -17.0045    3.7081   22.3897 N.am    1  UNL1       -0.2560
     21 C         -16.6123    4.7100   23.4349 C.3     1  UNL1        0.1218
     22 C         -17.7020    4.7563   24.4647 C.ar    1  UNL1       -0.0016
     23 C         -17.8616    5.5589   25.7217 C.ar    1  UNL1        0.0178
     24 C         -19.0868    5.3883   26.5700 C.ar    1  UNL1        0.0986
     25 N         -20.1525    4.4150   26.1613 N.ar    1  UNL1       -0.2426
     26 C         -19.9929    3.6123   24.9042 C.ar    1  UNL1        0.0960
     27 C         -18.7677    3.7830   24.0559 C.ar    1  UNL1        0.0146
     28 C         -18.3365    3.1352   22.7735 C.3     1  UNL1        0.1233
     29 H         -17.5961    1.8844   20.3789 H       1  UNL1        0.1513
@<TRIPOS>BOND
     1    17    18    2
     2    18    19   am
     3    19    16    1
     4    16     1    1
     5     1     2   ar
     6     2     3   ar
     7     3     4   ar
     8     4     7    1
     9     7     8    2
    10     7     9    2
    11     7    10    1
    12    10    11   ar
    13    11    12   ar
    14    12    13   ar
    15    13    14   ar
    16    14    15   ar
    17     4     5   ar
    18     5     6   ar
    19    18    20   am
    20    20    21    1
    21    21    22    1
    22    22    23   ar
    23    23    24   ar
    24    24    25   ar
    25    25    26   ar
    26    26    27   ar
    27    27    28    1
    28     6     1   ar
    29    28    20    1
    30    15    10   ar
    31    27    22   ar
    32    19    29    1
@<TRIPOS>MOLECULE
*****
 29 32 0 0 0
SMALL
GASTEIGER

@<TRIPOS>ATOM
      1 C           5.3237   -2.1545   32.0712 C.ar    1  UNL1       -0.0024
      2 C           4.8175   -1.9213   33.4638 C.ar    1  UNL1       -0.0013
      3 C           3.9808   -0.7133   33.7652 C.ar    1  UNL1        0.0185
      4 C           3.6503    0.2614   32.6741 C.ar    1  UNL1        0.1103
      5 C           4.1565    0.0282   31.2814 C.ar    1  UNL1        0.0185
      6 C           4.9932   -1.1797   30.9800 C.ar    1  UNL1       -0.0013
      7 S           2.8136    1.4693   32.9755 S.O2    1  UNL1        0.0274
      8 O           3.7625    1.8529   34.0720 O.2     1  UNL1       -0.1642
      9 O           1.8648    1.0858   31.8789 O.2     1  UNL1       -0.1642
     10 C           1.9770    2.6773   33.2769 C.ar    1  UNL1        0.1103
     11 C           2.1890    3.4371   34.5527 C.ar    1  UNL1        0.0187
     12 C           1.3523    4.6450   34.8541 C.ar    1  UNL1        0.0013
     13 C           0.3036    5.0932   33.8797 C.ar    1  UNL1        0.0001
     14 C           0.0916    4.3334   32.6039 C.ar    1  UNL1        0.0013
     15 C           0.9283    3.1254   32.3025 C.ar    1  UNL1        0.0187
     16 C           6.1604   -3.3624   31.7697 C.3     1  UNL1        0.1177
     17 O           7.0794   -6.1427   31.1178 O.2     1  UNL1       -0.2526
     18 C           6.8977   -5.1363   30.0205 C.2     1  UNL1        0.3047
     19 N           6.4382   -3.7461   30.3465 N.am    1  UNL1       -0.2847
     20 N           7.1755   -5.5200   28.5973 N.am    1  UNL1       -0.2560
     21 C           7.6383   -6.8649   28.1210 C.3     1  UNL1        0.1218
     22 C           7.7881   -6.8023   26.6298 C.ar    1  UNL1       -0.0016
     23 C           8.2138   -7.8264   25.6199 C.ar    1  UNL1        0.0178
     24 C           8.2693   -7.4669   24.1647 C.ar    1  UNL1        0.0986
     25 N           7.8991   -6.0832   23.7194 N.ar    1  UNL1       -0.2426
     26 C           7.4734   -5.0590   24.7293 C.ar    1  UNL1        0.0960
     27 C           7.4179   -5.4186   26.1845 C.ar    1  UNL1        0.0146
     28 C           7.0393   -4.6261   27.4004 C.3     1  UNL1        0.1233
     29 H           6.3189   -3.0855   29.6263 H       1  UNL1        0.1513
@<TRIPOS>BOND
     1    17    18    2
     2    18    19   am
     3    19    16    1
     4    16     1    1
     5     1     2   ar
     6     2     3   ar
     7     3     4   ar
     8     4     7    1
     9     7     8    2
    10     7     9    2
    11     7    10    1
    12    10    11   ar
    13    11    12   ar
    14    12    13   ar
    15    13    14   ar
    16    14    15   ar
    17     4     5   ar
    18     5     6   ar
    19    18    20   am
    20    20    21    1
    21    21    22    1
    22    22    23   ar
    23    23    24   ar
    24    24    25   ar
    25    25    26   ar
    26    26    27   ar
    27    27    28    1
    28     6     1   ar
    29    28    20    1
    30    15    10   ar
    31    27    22   ar
    32    19    29    1
@<TRIPOS>MOLECULE
*****
 29 32 0 0 0
SMALL
GASTEIGER

@<TRIPOS>ATOM
      1 C          -0.0700    2.2673   25.4452 C.ar    1  UNL1       -0.0024
      2 C          -0.8470    2.3569   26.7251 C.ar    1  UNL1       -0.0013
      3 C          -2.1982    3.0083   26.7383 C.ar    1  UNL1        0.0185
      4 C          -2.7722    3.5701   25.4715 C.ar    1  UNL1        0.1103
      5 C          -1.9952    3.4806   24.1915 C.ar    1  UNL1        0.0185
      6 C          -0.6441    2.8292   24.1784 C.ar    1  UNL1       -0.0013
      7 S          -4.1233    4.2215   25.4846 S.O2    1  UNL1        0.0274
      8 O          -4.2392    3.9516   26.9555 O.2     1  UNL1       -0.1642
      9 O          -4.0075    4.4915   24.0137 O.2     1  UNL1       -0.1642
     10 C          -5.4744    4.8729   25.4977 C.ar    1  UNL1        0.1103
     11 C          -6.4132    4.6761   24.3444 C.ar    1  UNL1        0.0187
     12 C          -7.7642    5.3275   24.3575 C.ar    1  UNL1        0.0013
     13 C          -8.1767    6.1757   25.5239 C.ar    1  UNL1        0.0001
     14 C          -7.2380    6.3725   26.6772 C.ar    1  UNL1        0.0013
     15 C          -5.8868    5.7211   26.6641 C.ar    1  UNL1        0.0187
     16 C           1.2812    1.6159   25.4320 C.3     1  UNL1        0.1177
     17 O           3.3438   -0.5442   25.7133 O.2     1  UNL1       -0.2526
     18 C           2.7626   -0.2330   24.3659 C.2     1  UNL1        0.3047
     19 N           1.7314    0.8471   24.2253 N.am    1  UNL1       -0.2847
     20 N           3.2128   -1.0018   23.1592 N.am    1  UNL1       -0.2560
     21 C           4.2306   -2.1036   23.1449 C.3     1  UNL1        0.1218
     22 C           4.3711   -2.5866   21.7317 C.ar    1  UNL1       -0.0016
     23 C           5.2264   -3.6541   21.1162 C.ar    1  UNL1        0.0178
     24 C           5.1508   -3.9183   19.6416 C.ar    1  UNL1        0.0986
     25 N           4.2199   -3.1150   18.7825 N.ar    1  UNL1       -0.2426
     26 C           3.3645   -2.0475   19.3980 C.ar    1  UNL1        0.0960
     27 C           3.4401   -1.7833   20.8726 C.ar    1  UNL1        0.0146
     28 C           2.7243   -0.8039   21.7548 C.3     1  UNL1        0.1233
     29 H           1.3499    1.0514   23.3410 H       1  UNL1        0.1513
@<TRIPOS>BOND
     1    17    18    2
     2    18    19   am
     3    19    16    1
     4    16     1    1
     5     1     2   ar
     6     2     3   ar
     7     3     4   ar
     8     4     7    1
     9     7     8    2
    10     7     9    2
    11     7    10    1
    12    10    11   ar
    13    11    12   ar
    14    12    13   ar
    15    13    14   ar
    16    14    15   ar
    17     4     5   ar
    18     5     6   ar
    19    18    20   am
    20    20    21    1
    21    21    22    1
    22    22    23   ar
    23    23    24   ar
    24    24    25   ar
    25    25    26   ar
    26    26    27   ar
    27    27    28    1
    28     6     1   ar
    29    28    20    1
    30    15    10   ar
    31    27    22   ar
    32    19    29    1
@<TRIPOS>MOLECULE
*****
 29 32 0 0 0
SMALL
GASTEIGER

@<TRIPOS>ATOM
      1 C         -16.1778    1.6640   19.7271 C.ar    1  UNL1       -0.0024
      2 C         -17.0572    1.0276   20.7622 C.ar    1  UNL1       -0.0013
      3 C         -17.4097    1.7790   22.0117 C.ar    1  UNL1        0.0185
      4 C         -16.8827    3.1670   22.2260 C.ar    1  UNL1        0.1103
      5 C         -16.0032    3.8034   21.1908 C.ar    1  UNL1        0.0185
      6 C         -15.6508    3.0520   19.9414 C.ar    1  UNL1       -0.0013
      7 S         -17.2351    3.9185   23.4754 S.O2    1  UNL1        0.0274
      8 O         -18.1732    2.8176   23.8729 O.2     1  UNL1       -0.1642
      9 O         -16.2971    5.0193   23.0778 O.2     1  UNL1       -0.1642
     10 C         -17.5876    4.6699   24.7248 C.ar    1  UNL1        0.1103
     11 C         -16.5283    5.4296   25.4671 C.ar    1  UNL1        0.0187
     12 C         -16.8807    6.1810   26.7165 C.ar    1  UNL1        0.0013
     13 C         -18.2924    6.1730   27.2236 C.ar    1  UNL1        0.0001
     14 C         -19.3516    5.4134   26.4813 C.ar    1  UNL1        0.0013
     15 C         -18.9992    4.6619   25.2318 C.ar    1  UNL1        0.0187
     16 C         -15.8253    0.9125   18.4777 C.3     1  UNL1        0.1177
     17 O         -12.8258    0.8591   18.4786 O.2     1  UNL1       -0.2526
     18 C         -13.5988   -0.4231   18.5700 C.2     1  UNL1        0.3047
     19 N         -15.0985   -0.3964   18.5696 N.am    1  UNL1       -0.2847
     20 N         -12.8720   -1.7321   18.6619 N.am    1  UNL1       -0.2560
     21 C         -11.3832   -1.9150   18.6735 C.3     1  UNL1        0.1218
     22 C         -11.0975   -3.3839   18.7771 C.ar    1  UNL1       -0.0016
     23 C          -9.8120   -4.1550   18.8304 C.ar    1  UNL1        0.0178
     24 C          -9.8387   -5.6510   18.9363 C.ar    1  UNL1        0.0986
     25 N         -11.1509   -6.3759   18.9888 N.ar    1  UNL1       -0.2426
     26 C         -12.4363   -5.6048   18.9355 C.ar    1  UNL1        0.0960
     27 C         -12.4096   -4.1088   18.8296 C.ar    1  UNL1        0.0146
     28 C         -13.5063   -3.0879   18.7584 C.3     1  UNL1        0.1233
     29 H         -15.6058   -1.2380   18.6296 H       1  UNL1        0.1513
@<TRIPOS>BOND
     1    17    18    2
     2    18    19   am
     3    19    16    1
     4    16     1    1
     5     1     2   ar
     6     2     3   ar
     7     3     4   ar
     8     4     7    1
     9     7     8    2
    10     7     9    2
    11     7    10    1
    12    10    11   ar
    13    11    12   ar
    14    12    13   ar
    15    13    14   ar
    16    14    15   ar
    17     4     5   ar
    18     5     6   ar
    19    18    20   am
    20    20    21    1
    21    21    22    1
    22    22    23   ar
    23    23    24   ar
    24    24    25   ar
    25    25    26   ar
    26    26    27   ar
    27    27    28    1
    28     6     1   ar
    29    28    20    1
    30    15    10   ar
    31    27    22   ar
    32    19    29    1
@<TRIPOS>MOLECULE
*****
 29 32 0 0 0
SMALL
GASTEIGER

@<TRIPOS>ATOM
      1 C           0.5264    1.6356   24.0678 C.ar    1  UNL1       -0.0024
      2 C           0.2070    1.6848   22.6031 C.ar    1  UNL1       -0.0013
      3 C           1.0219    0.8849   21.6304 C.ar    1  UNL1        0.0185
      4 C           2.1564    0.0358   22.1225 C.ar    1  UNL1        0.1103
      5 C           2.4758   -0.0133   23.5873 C.ar    1  UNL1        0.0185
      6 C           1.6609    0.7866   24.5600 C.ar    1  UNL1       -0.0013
      7 S           2.9713   -0.7640   21.1499 S.O2    1  UNL1        0.0274
      8 O           4.1826   -0.5830   22.0159 O.2     1  UNL1       -0.1642
      9 O           1.7600   -0.9451   20.2839 O.2     1  UNL1       -0.1642
     10 C           3.7862   -1.5639   20.1773 C.ar    1  UNL1        0.1103
     11 C           3.3231   -2.9260   19.7527 C.ar    1  UNL1        0.0187
     12 C           4.1380   -3.7259   18.7801 C.ar    1  UNL1        0.0013
     13 C           5.4161   -3.1638   18.2320 C.ar    1  UNL1        0.0001
     14 C           5.8793   -1.8017   18.6566 C.ar    1  UNL1        0.0013
     15 C           5.0643   -1.0017   19.6292 C.ar    1  UNL1        0.0187
     16 C          -0.2885    2.4355   25.0405 C.3     1  UNL1        0.1177
     17 O          -1.8674    4.1565   26.9234 O.2     1  UNL1       -0.2526
     18 C          -2.4778    3.7041   25.6301 C.2     1  UNL1        0.3047
     19 N          -1.6884    2.8436   24.6887 N.am    1  UNL1       -0.2847
     20 N          -3.8777    4.1122   25.2782 N.am    1  UNL1       -0.2560
     21 C          -4.7842    4.9653   26.1152 C.3     1  UNL1        0.1218
     22 C          -6.0836    5.1192   25.3818 C.ar    1  UNL1       -0.0016
     23 C          -7.3476    5.8516   25.7222 C.ar    1  UNL1        0.0178
     24 C          -8.5082    5.8260   24.7724 C.ar    1  UNL1        0.0986
     25 N          -8.4048    5.0680   23.4821 N.ar    1  UNL1       -0.2426
     26 C          -7.1408    4.3356   23.1417 C.ar    1  UNL1        0.0960
     27 C          -5.9802    4.3612   24.0916 C.ar    1  UNL1        0.0146
     28 C          -4.6169    3.7389   24.0275 C.3     1  UNL1        0.1233
     29 H          -2.0890    2.5467   23.8398 H       1  UNL1        0.1513
@<TRIPOS>BOND
     1    17    18    2
     2    18    19   am
     3    19    16    1
     4    16     1    1
     5     1     2   ar
     6     2     3   ar
     7     3     4   ar
     8     4     7    1
     9     7     8    2
    10     7     9    2
    11     7    10    1
    12    10    11   ar
    13    11    12   ar
    14    12    13   ar
    15    13    14   ar
    16    14    15   ar
    17     4     5   ar
    18     5     6   ar
    19    18    20   am
    20    20    21    1
    21    21    22    1
    22    22    23   ar
    23    23    24   ar
    24    24    25   ar
    25    25    26   ar
    26    26    27   ar
    27    27    28    1
    28     6     1   ar
    29    28    20    1
    30    15    10   ar
    31    27    22   ar
    32    19    29    1
@<TRIPOS>MOLECULE
*****
 29 32 0 0 0
SMALL
GASTEIGER

@<TRIPOS>ATOM
      1 C          -0.3214    2.7420   19.4245 C.ar    1  UNL1       -0.0024
      2 C          -0.2444    1.9594   20.7018 C.ar    1  UNL1       -0.0013
      3 C           0.7106    0.8086   20.8199 C.ar    1  UNL1        0.0185
      4 C           1.5885    0.4405   19.6607 C.ar    1  UNL1        0.1103
      5 C           1.5115    1.2232   18.3834 C.ar    1  UNL1        0.0185
      6 C           0.5566    2.3739   18.2653 C.ar    1  UNL1       -0.0013
      7 S           2.5434   -0.7102   19.7788 S.O2    1  UNL1        0.0274
      8 O           2.9697   -0.5024   18.3558 O.2     1  UNL1       -0.1642
      9 O           2.1172   -0.9179   21.2019 O.2     1  UNL1       -0.1642
     10 C           3.4983   -1.8609   19.8969 C.ar    1  UNL1        0.1103
     11 C           3.9607   -2.3161   21.2494 C.ar    1  UNL1        0.0187
     12 C           4.9156   -3.4668   21.3674 C.ar    1  UNL1        0.0013
     13 C           5.4082   -4.1623   20.1331 C.ar    1  UNL1        0.0001
     14 C           4.9460   -3.7071   18.7807 C.ar    1  UNL1        0.0013
     15 C           3.9910   -2.5564   18.6626 C.ar    1  UNL1        0.0187
     16 C          -1.2763    3.8927   19.3064 C.3     1  UNL1        0.1177
     17 O          -4.2461    3.5311   19.0845 O.2     1  UNL1       -0.2526
     18 C          -3.6489    4.0714   20.3499 C.2     1  UNL1        0.3047
     19 N          -2.1640    4.2522   20.4609 N.am    1  UNL1       -0.2847
     20 N          -4.5366    4.4309   21.5044 N.am    1  UNL1       -0.2560
     21 C          -6.0309    4.3054   21.5401 C.3     1  UNL1        0.1218
     22 C          -6.5036    4.7760   22.8836 C.ar    1  UNL1       -0.0016
     23 C          -7.8734    4.8791   23.4860 C.ar    1  UNL1        0.0178
     24 C          -8.0411    5.3986   24.8832 C.ar    1  UNL1        0.0986
     25 N          -6.8389    5.8149   25.6778 N.ar    1  UNL1       -0.2426
     26 C          -5.4691    5.7118   25.0754 C.ar    1  UNL1        0.0960
     27 C          -5.3015    5.1923   23.6783 C.ar    1  UNL1        0.0146
     28 C          -4.0858    4.9791   22.8259 C.3     1  UNL1        0.1233
     29 H          -1.7720    4.6069   21.2914 H       1  UNL1        0.1513
@<TRIPOS>BOND
     1    17    18    2
     2    18    19   am
     3    19    16    1
     4    16     1    1
     5     1     2   ar
     6     2     3   ar
     7     3     4   ar
     8     4     7    1
     9     7     8    2
    10     7     9    2
    11     7    10    1
    12    10    11   ar
    13    11    12   ar
    14    12    13   ar
    15    13    14   ar
    16    14    15   ar
    17     4     5   ar
    18     5     6   ar
    19    18    20   am
    20    20    21    1
    21    21    22    1
    22    22    23   ar
    23    23    24   ar
    24    24    25   ar
    25    25    26   ar
    26    26    27   ar
    27    27    28    1
    28     6     1   ar
    29    28    20    1
    30    15    10   ar
    31    27    22   ar
    32    19    29    1
@<TRIPOS>MOLECULE
*****
 29 32 0 0 0
SMALL
GASTEIGER

@<TRIPOS>ATOM
      1 C           6.1697   -3.2402   31.5052 C.ar    1  UNL1       -0.0024
      2 C           6.1178   -2.5769   30.1609 C.ar    1  UNL1       -0.0013
      3 C           6.6002   -3.3093   28.9440 C.ar    1  UNL1        0.0185
      4 C           7.1346   -4.7051   29.0714 C.ar    1  UNL1        0.1103
      5 C           7.1864   -5.3684   30.4158 C.ar    1  UNL1        0.0185
      6 C           6.7040   -4.6360   31.6327 C.ar    1  UNL1       -0.0013
      7 S           7.6170   -5.4375   27.8546 S.O2    1  UNL1        0.0274
      8 O           8.6099   -6.1824   28.6966 O.2     1  UNL1       -0.1642
      9 O           6.6241   -4.6925   27.0125 O.2     1  UNL1       -0.1642
     10 C           8.0994   -6.1699   26.6377 C.ar    1  UNL1        0.1103
     11 C           7.6298   -5.7523   25.2756 C.ar    1  UNL1        0.0187
     12 C           8.1122   -6.4847   24.0588 C.ar    1  UNL1        0.0013
     13 C           9.0643   -7.6347   24.2039 C.ar    1  UNL1        0.0001
     14 C           9.5340   -8.0523   25.5659 C.ar    1  UNL1        0.0013
     15 C           9.0515   -7.3199   26.7828 C.ar    1  UNL1        0.0187
     16 C           5.6872   -2.5078   32.7222 C.3     1  UNL1        0.1177
     17 O           5.3699   -0.5116   34.9389 O.2     1  UNL1       -0.2526
     18 C           4.5531   -0.3792   33.6879 C.2     1  UNL1        0.3047
     19 N           4.7117   -1.3773   32.5795 N.am    1  UNL1       -0.2847
     20 N           3.5777    0.7514   33.5452 N.am    1  UNL1       -0.2560
     21 C           3.3117    1.8203   34.5634 C.3     1  UNL1        0.1218
     22 C           2.2666    2.7410   34.0067 C.ar    1  UNL1       -0.0016
     23 C           1.6118    3.9700   34.5643 C.ar    1  UNL1        0.0178
     24 C           0.5771    4.6992   33.7596 C.ar    1  UNL1        0.0986
     25 N           0.1971    4.1993   32.3973 N.ar    1  UNL1       -0.2426
     26 C           0.8518    2.9704   31.8397 C.ar    1  UNL1        0.0960
     27 C           1.8866    2.2412   32.6444 C.ar    1  UNL1        0.0146
     28 C           2.6969    1.0116   32.3592 C.3     1  UNL1        0.1233
     29 H           4.1756   -1.2904   31.7583 H       1  UNL1        0.1513
@<TRIPOS>BOND
     1    17    18    2
     2    18    19   am
     3    19    16    1
     4    16     1    1
     5     1     2   ar
     6     2     3   ar
     7     3     4   ar
     8     4     7    1
     9     7     8    2
    10     7     9    2
    11     7    10    1
    12    10    11   ar
    13    11    12   ar
    14    12    13   ar
    15    13    14   ar
    16    14    15   ar
    17     4     5   ar
    18     5     6   ar
    19    18    20   am
    20    20    21    1
    21    21    22    1
    22    22    23   ar
    23    23    24   ar
    24    24    25   ar
    25    25    26   ar
    26    26    27   ar
    27    27    28    1
    28     6     1   ar
    29    28    20    1
    30    15    10   ar
    31    27    22   ar
    32    19    29    1
@<TRIPOS>MOLECULE
*****
 29 32 0 0 0
SMALL
GASTEIGER

@<TRIPOS>ATOM
      1 C           6.7699   -4.4336   27.8359 C.ar    1  UNL1       -0.0024
      2 C           6.3359   -2.9980   27.8616 C.ar    1  UNL1       -0.0013
      3 C           6.1774   -2.2857   29.1721 C.ar    1  UNL1        0.0185
      4 C           6.4529   -3.0090   30.4570 C.ar    1  UNL1        0.1103
      5 C           6.8869   -4.4447   30.4313 C.ar    1  UNL1        0.0185
      6 C           7.0454   -5.1569   29.1208 C.ar    1  UNL1       -0.0013
      7 S           6.2944   -2.2968   31.7675 S.O2    1  UNL1        0.0274
      8 O           6.3792   -0.9767   31.0604 O.2     1  UNL1       -0.1642
      9 O           6.2097   -3.6169   32.4747 O.2     1  UNL1       -0.1642
     10 C           6.1360   -1.5846   33.0781 C.ar    1  UNL1        0.1103
     11 C           7.2940   -0.8374   33.6705 C.ar    1  UNL1        0.0187
     12 C           7.1355   -0.1252   34.9810 C.ar    1  UNL1        0.0013
     13 C           5.8191   -0.1600   35.6992 C.ar    1  UNL1        0.0001
     14 C           4.6611   -0.9071   35.1068 C.ar    1  UNL1        0.0013
     15 C           4.8195   -1.6194   33.7962 C.ar    1  UNL1        0.0187
     16 C           6.9284   -5.1459   26.5253 C.3     1  UNL1        0.1177
     17 O           8.4588   -5.0944   23.9456 O.2     1  UNL1       -0.2526
     18 C           7.0573   -4.5623   23.9969 C.2     1  UNL1        0.3047
     19 N           6.2921   -4.5881   25.2868 N.am    1  UNL1       -0.2847
     20 N           6.4209   -4.0045   22.7584 N.am    1  UNL1       -0.2560
     21 C           7.0590   -3.9131   21.4039 C.3     1  UNL1        0.1218
     22 C           6.0672   -3.2923   20.4653 C.ar    1  UNL1       -0.0016
     23 C           6.1417   -2.9554   19.0056 C.ar    1  UNL1        0.0178
     24 C           4.9651   -2.3262   18.3202 C.ar    1  UNL1        0.0986
     25 N           3.7141   -2.0339   19.0945 N.ar    1  UNL1       -0.2426
     26 C           3.6397   -2.3708   20.5543 C.ar    1  UNL1        0.0960
     27 C           4.8162   -3.0000   21.2396 C.ar    1  UNL1        0.0146
     28 C           5.0349   -3.4402   22.6568 C.3     1  UNL1        0.1233
     29 H           5.3722   -4.2389   25.3205 H       1  UNL1        0.1513
@<TRIPOS>BOND
     1    17    18    2
     2    18    19   am
     3    19    16    1
     4    16     1    1
     5     1     2   ar
     6     2     3   ar
     7     3     4   ar
     8     4     7    1
     9     7     8    2
    10     7     9    2
    11     7    10    1
    12    10    11   ar
    13    11    12   ar
    14    12    13   ar
    15    13    14   ar
    16    14    15   ar
    17     4     5   ar
    18     5     6   ar
    19    18    20   am
    20    20    21    1
    21    21    22    1
    22    22    23   ar
    23    23    24   ar
    24    24    25   ar
    25    25    26   ar
    26    26    27   ar
    27    27    28    1
    28     6     1   ar
    29    28    20    1
    30    15    10   ar
    31    27    22   ar
    32    19    29    1
@<TRIPOS>MOLECULE
*****
 29 32 0 0 0
SMALL
GASTEIGER

@<TRIPOS>ATOM
      1 C           4.1650   -2.4955   22.0009 C.ar    1  UNL1       -0.0024
      2 C           3.7418   -2.5314   20.5623 C.ar    1  UNL1       -0.0013
      3 C           2.8226   -1.4751   20.0243 C.ar    1  UNL1        0.0185
      4 C           2.3267   -0.3829   20.9250 C.ar    1  UNL1        0.1103
      5 C           2.7499   -0.3470   22.3636 C.ar    1  UNL1        0.0185
      6 C           3.6690   -1.4033   22.9016 C.ar    1  UNL1       -0.0013
      7 S           1.4075    0.6734   20.3871 S.O2    1  UNL1        0.0274
      8 O           2.5708    1.6081   20.2348 O.2     1  UNL1       -0.1642
      9 O           0.2443   -0.2612   20.5393 O.2     1  UNL1       -0.1642
     10 C           0.4884    1.7297   19.8491 C.ar    1  UNL1        0.1103
     11 C           0.6177    2.1819   18.4247 C.ar    1  UNL1        0.0187
     12 C          -0.3014    3.2382   17.8868 C.ar    1  UNL1        0.0013
     13 C          -1.3499    3.8423   18.7732 C.ar    1  UNL1        0.0001
     14 C          -1.4792    3.3902   20.1975 C.ar    1  UNL1        0.0013
     15 C          -0.5601    2.3338   20.7355 C.ar    1  UNL1        0.0187
     16 C           5.0841   -3.5518   22.5389 C.3     1  UNL1        0.1177
     17 O           7.3066   -5.3256   23.4951 O.2     1  UNL1       -0.2526
     18 C           6.6151   -4.4052   24.4567 C.2     1  UNL1        0.3047
     19 N           5.5039   -3.5183   23.9786 N.am    1  UNL1       -0.2847
     20 N           7.0348   -4.3717   25.8964 N.am    1  UNL1       -0.2560
     21 C           8.1236   -5.1962   26.5168 C.3     1  UNL1        0.1218
     22 C           8.2011   -4.8419   27.9723 C.ar    1  UNL1       -0.0016
     23 C           9.0850   -5.3346   29.0795 C.ar    1  UNL1        0.0178
     24 C           8.9281   -4.7839   30.4658 C.ar    1  UNL1        0.0986
     25 N           7.8873   -3.7404   30.7450 N.ar    1  UNL1       -0.2426
     26 C           7.0034   -3.2477   29.6378 C.ar    1  UNL1        0.0960
     27 C           7.1603   -3.7984   28.2515 C.ar    1  UNL1        0.0146
     28 C           6.4395   -3.5079   26.9685 C.3     1  UNL1        0.1233
     29 H           5.0500   -2.9142   24.6098 H       1  UNL1        0.1513
@<TRIPOS>BOND
     1    17    18    2
     2    18    19   am
     3    19    16    1
     4    16     1    1
     5     1     2   ar
     6     2     3   ar
     7     3     4   ar
     8     4     7    1
     9     7     8    2
    10     7     9    2
    11     7    10    1
    12    10    11   ar
    13    11    12   ar
    14    12    13   ar
    15    13    14   ar
    16    14    15   ar
    17     4     5   ar
    18     5     6   ar
    19    18    20   am
    20    20    21    1
    21    21    22    1
    22    22    23   ar
    23    23    24   ar
    24    24    25   ar
    25    25    26   ar
    26    26    27   ar
    27    27    28    1
    28     6     1   ar
    29    28    20    1
    30    15    10   ar
    31    27    22   ar
    32    19    29    1
