@<TRIPOS>MOLECULE
*****
 39 41 0 0 0
SMALL
GASTEIGER

@<TRIPOS>ATOM
      1 C          -9.2437  -18.7419   21.5646 C.3     1  UNL1        0.1621
      2 C          -9.4478  -19.4605   22.8653 C.ar    1  UNL1        0.1812
      3 N          -8.7341  -20.7037   23.3073 N.ar    1  UNL1       -0.1109
      4 N          -9.2466  -21.0736   24.6675 N.ar    1  UNL1       -0.0229
      5 N         -10.2771  -20.0591   25.0663 N.ar    1  UNL1       -0.0430
      6 N         -10.4014  -19.0622   23.9524 N.ar    1  UNL1       -0.2125
      7 C         -11.3183  -17.8754   23.9297 C.3     1  UNL1        0.1668
      8 C         -12.7900  -18.0687   23.7134 C.3     1  UNL1        0.1336
      9 C         -13.6809  -18.4035   24.8727 C.1     1  UNL1        0.0753
     10 N         -14.5719  -18.7385   26.0321 N.1     1  UNL1       -0.1958
     11 C         -10.7637  -16.4951   24.1234 C.3     1  UNL1        0.2309
     12 O          -9.3586  -16.1851   23.6998 O.3     1  UNL1       -0.4703
     13 C          -8.3013  -15.9353   24.7341 C.ar    1  UNL1        0.1720
     14 C          -8.5846  -16.2179   26.1797 C.ar    1  UNL1        0.0400
     15 C          -7.5273  -15.9680   27.2140 C.ar    1  UNL1        0.0033
     16 C          -6.1867  -15.4356   26.8025 C.ar    1  UNL1        0.0033
     17 C          -5.9034  -15.1530   25.3569 C.ar    1  UNL1        0.0398
     18 C          -6.9607  -15.4029   24.3226 C.ar    1  UNL1        0.1677
     19 O          -6.6774  -15.1203   22.8770 O.3     1  UNL1       -0.5029
     20 H          -5.8399  -14.7877   22.6200 H       1  UNL1        0.2923
     21 C         -10.4619  -16.6691   20.5801 C.2     1  UNL1        0.2351
     22 O          -9.3337  -15.7907   21.0336 O.2     1  UNL1       -0.2737
     23 N         -10.4168  -18.1447   20.8455 N.am    1  UNL1       -0.2965
     24 H         -11.1573  -18.7213   20.5478 H       1  UNL1        0.1499
     25 C         -12.5598  -16.9813   20.6145 C.3     1  UNL1        0.0249
     26 C         -11.6350  -16.0719   19.8610 C.3     1  UNL1        0.1086
     27 C         -10.7103  -15.1625   19.1076 C.3     1  UNL1        0.0249
     28 N         -12.8082  -15.4747   19.1420 N.3     1  UNL1       -0.3164
     29 H         -12.8373  -14.4698   19.3147 H       1  UNL1        0.1192
     30 H         -13.6693  -15.9031   19.4818 H       1  UNL1        0.1192
     31 C          -7.8664  -18.6206   20.9829 C.3     1  UNL1        0.1699
     32 O          -6.7350  -18.1212   21.8318 O.3     1  UNL1       -0.3468
     33 C          -5.5997  -19.0366   22.1824 C.3     1  UNL1        0.1687
     34 C          -4.2753  -18.8865   21.4942 C.ar    1  UNL1        0.0073
     35 C          -4.1720  -19.0956   20.0125 C.ar    1  UNL1       -0.0019
     36 C          -2.8477  -18.9455   19.3244 C.ar    1  UNL1       -0.0002
     37 C          -1.6266  -18.5864   20.1180 C.ar    1  UNL1       -0.0000
     38 C          -1.7298  -18.3773   21.5997 C.ar    1  UNL1       -0.0002
     39 C          -3.0541  -18.5274   22.2878 C.ar    1  UNL1       -0.0019
@<TRIPOS>BOND
     1    25    26    1
     2    26    27    1
     3    26    28    1
     4    26    21    1
     5    21    22    2
     6    21    23   am
     7    23     1    1
     8     1    31    1
     9    31    32    1
    10    32    33    1
    11    33    34    1
    12    34    35   ar
    13    35    36   ar
    14    36    37   ar
    15    37    38   ar
    16    38    39   ar
    17     1     2    1
    18     2     3   ar
    19     3     4   ar
    20     4     5   ar
    21     5     6   ar
    22     6     7    1
    23     7     8    1
    24     8     9    1
    25     9    10    3
    26     7    11    1
    27    11    12    1
    28    12    13    1
    29    13    14   ar
    30    14    15   ar
    31    15    16   ar
    32    16    17   ar
    33    17    18   ar
    34    18    19    1
    35    39    34   ar
    36     6     2   ar
    37    18    13   ar
    38    28    29    1
    39    28    30    1
    40    23    24    1
    41    19    20    1
@<TRIPOS>MOLECULE
*****
 39 41 0 0 0
SMALL
GASTEIGER

@<TRIPOS>ATOM
      1 C          -9.8910  -17.5903   21.7691 C.3     1  UNL1        0.1621
      2 C          -9.7747  -18.5460   20.6188 C.ar    1  UNL1        0.1812
      3 N         -10.8770  -18.9301   19.6768 N.ar    1  UNL1       -0.1109
      4 N         -10.3193  -19.9069   18.6844 N.ar    1  UNL1       -0.0229
      5 N          -8.8723  -20.1265   19.0132 N.ar    1  UNL1       -0.0430
      6 N          -8.5358  -19.2854   20.2087 N.ar    1  UNL1       -0.2125
      7 C          -7.1956  -19.1990   20.8768 C.3     1  UNL1        0.1668
      8 C          -7.0873  -19.3592   22.3642 C.3     1  UNL1        0.1336
      9 C          -8.1310  -20.1338   23.1130 C.1     1  UNL1        0.0753
     10 N          -9.1747  -20.9084   23.8619 N.1     1  UNL1       -0.1958
     11 C          -5.9635  -18.9522   20.0574 C.3     1  UNL1        0.2309
     12 O          -4.6410  -19.4972   20.5088 O.3     1  UNL1       -0.4703
     13 C          -3.4159  -18.6333   20.4546 C.ar    1  UNL1        0.1720
     14 C          -2.4672  -18.7488   19.2985 C.ar    1  UNL1        0.0400
     15 C          -1.2422  -17.8849   19.2443 C.ar    1  UNL1        0.0033
     16 C          -0.9659  -16.9055   20.3463 C.ar    1  UNL1        0.0033
     17 C          -1.9145  -16.7900   21.5024 C.ar    1  UNL1        0.0398
     18 C          -3.1396  -17.6539   21.5566 C.ar    1  UNL1        0.1677
     19 O          -4.0883  -17.5383   22.7127 O.3     1  UNL1       -0.5029
     20 H          -3.9157  -16.9265   23.4011 H       1  UNL1        0.2923
     21 C         -12.0843  -17.9867   23.1040 C.2     1  UNL1        0.2351
     22 O         -12.8868  -17.5360   21.9195 O.2     1  UNL1       -0.2737
     23 N         -10.5865  -18.0139   23.0288 N.am    1  UNL1       -0.2965
     24 H         -10.0599  -18.3097   23.8062 H       1  UNL1        0.1499
     25 C         -11.4772  -18.9094   24.9151 C.3     1  UNL1        0.0249
     26 C         -12.7798  -18.4103   24.3637 C.3     1  UNL1        0.1086
     27 C         -14.0825  -17.9111   23.8124 C.3     1  UNL1        0.0249
     28 N         -13.4753  -18.8339   25.6234 N.3     1  UNL1       -0.3164
     29 H         -13.9273  -18.0254   26.0506 H       1  UNL1        0.1192
     30 H         -12.7933  -19.2249   26.2733 H       1  UNL1        0.1192
     31 C          -9.3118  -16.2110   21.6596 C.3     1  UNL1        0.1699
     32 O          -7.8588  -15.9822   21.9539 O.3     1  UNL1       -0.3468
     33 C          -7.4482  -14.8998   22.9077 C.3     1  UNL1        0.1687
     34 C          -7.2648  -15.2125   24.3633 C.ar    1  UNL1        0.0073
     35 C          -8.4611  -15.4588   25.2340 C.ar    1  UNL1       -0.0019
     36 C          -8.2777  -15.7716   26.6895 C.ar    1  UNL1       -0.0002
     37 C          -6.8980  -15.8379   27.2743 C.ar    1  UNL1       -0.0000
     38 C          -5.7017  -15.5916   26.4036 C.ar    1  UNL1       -0.0002
     39 C          -5.8851  -15.2789   24.9481 C.ar    1  UNL1       -0.0019
@<TRIPOS>BOND
     1    25    26    1
     2    26    27    1
     3    26    28    1
     4    26    21    1
     5    21    22    2
     6    21    23   am
     7    23     1    1
     8     1    31    1
     9    31    32    1
    10    32    33    1
    11    33    34    1
    12    34    35   ar
    13    35    36   ar
    14    36    37   ar
    15    37    38   ar
    16    38    39   ar
    17     1     2    1
    18     2     3   ar
    19     3     4   ar
    20     4     5   ar
    21     5     6   ar
    22     6     7    1
    23     7     8    1
    24     8     9    1
    25     9    10    3
    26     7    11    1
    27    11    12    1
    28    12    13    1
    29    13    14   ar
    30    14    15   ar
    31    15    16   ar
    32    16    17   ar
    33    17    18   ar
    34    18    19    1
    35    39    34   ar
    36     6     2   ar
    37    18    13   ar
    38    28    29    1
    39    28    30    1
    40    23    24    1
    41    19    20    1
@<TRIPOS>MOLECULE
*****
 39 41 0 0 0
SMALL
GASTEIGER

@<TRIPOS>ATOM
      1 C          -8.4231  -19.0896   21.6024 C.3     1  UNL1        0.1621
      2 C          -9.1042  -19.4298   22.8948 C.ar    1  UNL1        0.1812
      3 N          -8.7965  -20.6086   23.7699 N.ar    1  UNL1       -0.1109
      4 N          -9.7148  -20.5584   24.9549 N.ar    1  UNL1       -0.0229
      5 N         -10.5901  -19.3485   24.8121 N.ar    1  UNL1       -0.0430
      6 N         -10.2127  -18.6511   23.5388 N.ar    1  UNL1       -0.2125
      7 C         -10.8346  -17.3954   23.0037 C.3     1  UNL1        0.1668
      8 C         -12.0781  -17.4714   22.1683 C.3     1  UNL1        0.1336
      9 C         -12.1563  -16.7241   20.8701 C.1     1  UNL1        0.0753
     10 N         -12.2346  -15.9766   19.5719 N.1     1  UNL1       -0.1958
     11 C         -10.2130  -16.0636   23.3039 C.3     1  UNL1        0.2309
     12 O          -8.7204  -15.9152   23.3032 O.3     1  UNL1       -0.4703
     13 C          -7.9780  -15.7950   24.6011 C.ar    1  UNL1        0.1720
     14 C          -8.6381  -16.2067   25.8836 C.ar    1  UNL1        0.0400
     15 C          -7.8957  -16.0864   27.1814 C.ar    1  UNL1        0.0033
     16 C          -6.4934  -15.5545   27.1967 C.ar    1  UNL1        0.0033
     17 C          -5.8333  -15.1428   25.9142 C.ar    1  UNL1        0.0398
     18 C          -6.5757  -15.2630   24.6164 C.ar    1  UNL1        0.1677
     19 O          -5.9156  -14.8513   23.3339 O.3     1  UNL1       -0.5029
     20 H          -5.0395  -14.5190   23.3435 H       1  UNL1        0.2923
     21 C          -8.2046  -20.5087   19.4372 C.2     1  UNL1        0.2351
     22 O          -6.8416  -20.9607   19.8709 O.2     1  UNL1       -0.2737
     23 N          -8.9953  -19.5732   20.3029 N.am    1  UNL1       -0.2965
     24 H          -9.8899  -19.2766   20.0183 H       1  UNL1        0.1499
     25 C          -7.7576  -22.0921   18.0982 C.3     1  UNL1        0.0249
     26 C          -8.7769  -20.9924   18.1377 C.3     1  UNL1        0.1086
     27 C          -9.7962  -19.8926   18.1773 C.3     1  UNL1        0.0249
     28 N          -9.3492  -21.4760   16.8382 N.3     1  UNL1       -0.3164
     29 H         -10.3348  -21.7058   16.9653 H       1  UNL1        0.1192
     30 H          -8.8430  -22.3069   16.5321 H       1  UNL1        0.1192
     31 C          -7.1696  -18.2657   21.6095 C.3     1  UNL1        0.1699
     32 O          -6.1074  -18.5250   22.6365 O.3     1  UNL1       -0.3468
     33 C          -4.8931  -19.3271   22.2734 C.3     1  UNL1        0.1687
     34 C          -3.8047  -18.7080   21.4474 C.ar    1  UNL1        0.0073
     35 C          -2.9300  -17.6417   22.0370 C.ar    1  UNL1       -0.0019
     36 C          -1.8417  -17.0227   21.2110 C.ar    1  UNL1       -0.0002
     37 C          -1.6282  -17.4699   19.7952 C.ar    1  UNL1       -0.0000
     38 C          -2.5030  -18.5362   19.2055 C.ar    1  UNL1       -0.0002
     39 C          -3.5912  -19.1553   20.0316 C.ar    1  UNL1       -0.0019
@<TRIPOS>BOND
     1    25    26    1
     2    26    27    1
     3    26    28    1
     4    26    21    1
     5    21    22    2
     6    21    23   am
     7    23     1    1
     8     1    31    1
     9    31    32    1
    10    32    33    1
    11    33    34    1
    12    34    35   ar
    13    35    36   ar
    14    36    37   ar
    15    37    38   ar
    16    38    39   ar
    17     1     2    1
    18     2     3   ar
    19     3     4   ar
    20     4     5   ar
    21     5     6   ar
    22     6     7    1
    23     7     8    1
    24     8     9    1
    25     9    10    3
    26     7    11    1
    27    11    12    1
    28    12    13    1
    29    13    14   ar
    30    14    15   ar
    31    15    16   ar
    32    16    17   ar
    33    17    18   ar
    34    18    19    1
    35    39    34   ar
    36     6     2   ar
    37    18    13   ar
    38    28    29    1
    39    28    30    1
    40    23    24    1
    41    19    20    1
@<TRIPOS>MOLECULE
*****
 39 41 0 0 0
SMALL
GASTEIGER

@<TRIPOS>ATOM
      1 C          -4.5925  -18.3393   21.8327 C.3     1  UNL1        0.1621
      2 C          -5.6913  -19.1846   21.2599 C.ar    1  UNL1        0.1812
      3 N          -5.5130  -20.3703   20.3587 N.ar    1  UNL1       -0.1109
      4 N          -6.8729  -20.9111   20.0296 N.ar    1  UNL1       -0.0229
      5 N          -7.8917  -20.0595   20.7276 N.ar    1  UNL1       -0.0430
      6 N          -7.1614  -18.9925   21.4879 N.ar    1  UNL1       -0.2125
      7 C          -7.7907  -17.9215   22.3286 C.3     1  UNL1        0.1668
      8 C          -8.3926  -18.2684   23.6581 C.3     1  UNL1        0.1336
      9 C          -9.5278  -19.2458   23.7354 C.1     1  UNL1        0.0753
     10 N         -10.6630  -20.2232   23.8127 N.1     1  UNL1       -0.1958
     11 C          -7.8183  -16.5035   21.8400 C.3     1  UNL1        0.2309
     12 O          -9.0654  -15.9485   21.2182 O.3     1  UNL1       -0.4703
     13 C         -10.3918  -16.5918   21.4953 C.ar    1  UNL1        0.1720
     14 C         -11.2551  -16.0805   22.6103 C.ar    1  UNL1        0.0400
     15 C         -12.5816  -16.7237   22.8873 C.ar    1  UNL1        0.0033
     16 C         -13.0447  -17.8784   22.0493 C.ar    1  UNL1        0.0033
     17 C         -12.1814  -18.3897   20.9342 C.ar    1  UNL1        0.0398
     18 C         -10.8549  -17.7464   20.6572 C.ar    1  UNL1        0.1677
     19 O          -9.9917  -18.2578   19.5422 O.3     1  UNL1       -0.5029
     20 H         -10.2810  -18.9790   19.0187 H       1  UNL1        0.2923
     21 C          -2.3006  -18.6991   20.6631 C.2     1  UNL1        0.2351
     22 O          -2.2060  -20.0678   21.2696 O.2     1  UNL1       -0.2737
     23 N          -3.4938  -17.8349   20.9446 N.am    1  UNL1       -0.2965
     24 H          -3.5559  -16.9366   20.5466 H       1  UNL1        0.1499
     25 C          -2.1380  -18.2190   18.6032 C.3     1  UNL1        0.0249
     26 C          -1.2020  -18.1947   19.7751 C.3     1  UNL1        0.1086
     27 C          -0.2660  -18.1704   20.9469 C.3     1  UNL1        0.0249
     28 N          -0.1034  -17.6903   18.8871 N.3     1  UNL1       -0.3164
     29 H           0.2376  -16.7969   19.2421 H       1  UNL1        0.1192
     30 H          -0.4617  -17.5655   17.9403 H       1  UNL1        0.1192
     31 C          -4.5923  -17.9985   23.2934 C.3     1  UNL1        0.1699
     32 O          -4.1039  -16.6557   23.7502 O.3     1  UNL1       -0.3468
     33 C          -5.0666  -15.5133   23.8841 C.3     1  UNL1        0.1687
     34 C          -6.0809  -15.5128   24.9892 C.ar    1  UNL1        0.0073
     35 C          -7.5092  -15.1606   24.6961 C.ar    1  UNL1       -0.0019
     36 C          -8.5235  -15.1601   25.8012 C.ar    1  UNL1       -0.0002
     37 C          -8.1095  -15.5120   27.1993 C.ar    1  UNL1       -0.0000
     38 C          -6.6812  -15.8642   27.4924 C.ar    1  UNL1       -0.0002
     39 C          -5.6669  -15.8647   26.3874 C.ar    1  UNL1       -0.0019
@<TRIPOS>BOND
     1    25    26    1
     2    26    27    1
     3    26    28    1
     4    26    21    1
     5    21    22    2
     6    21    23   am
     7    23     1    1
     8     1    31    1
     9    31    32    1
    10    32    33    1
    11    33    34    1
    12    34    35   ar
    13    35    36   ar
    14    36    37   ar
    15    37    38   ar
    16    38    39   ar
    17     1     2    1
    18     2     3   ar
    19     3     4   ar
    20     4     5   ar
    21     5     6   ar
    22     6     7    1
    23     7     8    1
    24     8     9    1
    25     9    10    3
    26     7    11    1
    27    11    12    1
    28    12    13    1
    29    13    14   ar
    30    14    15   ar
    31    15    16   ar
    32    16    17   ar
    33    17    18   ar
    34    18    19    1
    35    39    34   ar
    36     6     2   ar
    37    18    13   ar
    38    28    29    1
    39    28    30    1
    40    23    24    1
    41    19    20    1
@<TRIPOS>MOLECULE
*****
 39 41 0 0 0
SMALL
GASTEIGER

@<TRIPOS>ATOM
      1 C          -7.1090  -19.4698   21.2800 C.3     1  UNL1        0.1621
      2 C          -5.6912  -19.8977   21.0420 C.ar    1  UNL1        0.1812
      3 N          -5.2492  -21.0475   20.1859 N.ar    1  UNL1       -0.1109
      4 N          -3.7513  -21.1114   20.2331 N.ar    1  UNL1       -0.0229
      5 N          -3.2676  -20.0012   21.1182 N.ar    1  UNL1       -0.0430
      6 N          -4.4665  -19.2511   21.6182 N.ar    1  UNL1       -0.2125
      7 C          -4.4446  -18.0631   22.5335 C.3     1  UNL1        0.1668
      8 C          -3.1362  -17.5224   23.0293 C.3     1  UNL1        0.1336
      9 C          -2.1970  -16.8420   22.0780 C.1     1  UNL1        0.0753
     10 N          -1.2579  -16.1617   21.1265 N.1     1  UNL1       -0.1958
     11 C          -5.7309  -17.4156   22.9532 C.3     1  UNL1        0.2309
     12 O          -5.7170  -16.0449   23.5622 O.3     1  UNL1       -0.4703
     13 C          -6.5079  -15.7689   24.8065 C.ar    1  UNL1        0.1720
     14 C          -5.8675  -15.9298   26.1533 C.ar    1  UNL1        0.0400
     15 C          -6.6583  -15.6538   27.3977 C.ar    1  UNL1        0.0033
     16 C          -8.0896  -15.2170   27.2951 C.ar    1  UNL1        0.0033
     17 C          -8.7301  -15.0562   25.9483 C.ar    1  UNL1        0.0398
     18 C          -7.9392  -15.3321   24.7039 C.ar    1  UNL1        0.1677
     19 O          -8.5796  -15.1713   23.3571 O.3     1  UNL1       -0.5029
     20 H          -9.4737  -14.8984   23.2931 H       1  UNL1        0.2923
     21 C          -8.8625  -19.0843   23.1579 C.2     1  UNL1        0.2351
     22 O          -9.1366  -17.7110   22.6200 O.2     1  UNL1       -0.2737
     23 N          -7.8487  -19.9636   22.4879 N.am    1  UNL1       -0.2965
     24 H          -7.6688  -20.8648   22.8409 H       1  UNL1        0.1499
     25 C          -9.1713  -20.9810   24.0561 C.3     1  UNL1        0.0249
     26 C          -9.6023  -19.5781   24.3658 C.3     1  UNL1        0.1086
     27 C         -10.0333  -18.1751   24.6754 C.3     1  UNL1        0.0249
     28 N         -10.3420  -20.0719   25.5736 N.3     1  UNL1       -0.3164
     29 H          -9.9824  -19.6058   26.4066 H       1  UNL1        0.1192
     30 H         -10.2108  -21.0793   25.6644 H       1  UNL1        0.1192
     31 C          -7.7870  -18.5480   20.3102 C.3     1  UNL1        0.1699
     32 O          -8.5837  -19.1119   19.1712 O.3     1  UNL1       -0.3468
     33 C         -10.0251  -19.4753   19.3716 C.3     1  UNL1        0.1687
     34 C         -10.9432  -18.5325   20.0916 C.ar    1  UNL1        0.0073
     35 C         -11.7360  -19.0120   21.2712 C.ar    1  UNL1       -0.0019
     36 C         -12.6541  -18.0691   21.9910 C.ar    1  UNL1       -0.0002
     37 C         -12.7793  -16.6468   21.5313 C.ar    1  UNL1       -0.0000
     38 C         -11.9864  -16.1673   20.3517 C.ar    1  UNL1       -0.0002
     39 C         -11.0684  -17.1102   19.6318 C.ar    1  UNL1       -0.0019
@<TRIPOS>BOND
     1    25    26    1
     2    26    27    1
     3    26    28    1
     4    26    21    1
     5    21    22    2
     6    21    23   am
     7    23     1    1
     8     1    31    1
     9    31    32    1
    10    32    33    1
    11    33    34    1
    12    34    35   ar
    13    35    36   ar
    14    36    37   ar
    15    37    38   ar
    16    38    39   ar
    17     1     2    1
    18     2     3   ar
    19     3     4   ar
    20     4     5   ar
    21     5     6   ar
    22     6     7    1
    23     7     8    1
    24     8     9    1
    25     9    10    3
    26     7    11    1
    27    11    12    1
    28    12    13    1
    29    13    14   ar
    30    14    15   ar
    31    15    16   ar
    32    16    17   ar
    33    17    18   ar
    34    18    19    1
    35    39    34   ar
    36     6     2   ar
    37    18    13   ar
    38    28    29    1
    39    28    30    1
    40    23    24    1
    41    19    20    1
@<TRIPOS>MOLECULE
*****
 39 41 0 0 0
SMALL
GASTEIGER

@<TRIPOS>ATOM
      1 C          -8.0744  -17.5164   22.5417 C.3     1  UNL1        0.1621
      2 C          -9.0398  -16.9766   21.5284 C.ar    1  UNL1        0.1812
      3 N          -9.5381  -15.5640   21.4505 N.ar    1  UNL1       -0.1109
      4 N         -10.4827  -15.4691   20.2891 N.ar    1  UNL1       -0.0229
      5 N         -10.5680  -16.8231   19.6492 N.ar    1  UNL1       -0.0430
      6 N          -9.6763  -17.7548   20.4152 N.ar    1  UNL1       -0.2125
      7 C          -9.4592  -19.2093   20.1198 C.3     1  UNL1        0.1668
      8 C          -8.4824  -19.6214   19.0587 C.3     1  UNL1        0.1336
      9 C          -8.8054  -20.7672   18.1462 C.1     1  UNL1        0.0753
     10 N          -9.1285  -21.9130   17.2335 N.1     1  UNL1       -0.1958
     11 C         -10.2189  -20.2518   20.8854 C.3     1  UNL1        0.2309
     12 O         -10.3313  -20.1530   22.3780 O.3     1  UNL1       -0.4703
     13 C         -11.4526  -19.3712   22.9956 C.ar    1  UNL1        0.1720
     14 C         -12.3992  -18.6009   22.1235 C.ar    1  UNL1        0.0400
     15 C         -13.5204  -17.8190   22.7411 C.ar    1  UNL1        0.0033
     16 C         -13.6951  -17.8076   24.2309 C.ar    1  UNL1        0.0033
     17 C         -12.7485  -18.5779   25.1030 C.ar    1  UNL1        0.0398
     18 C         -11.6272  -19.3597   24.4853 C.ar    1  UNL1        0.1677
     19 O         -10.6806  -20.1300   25.3574 O.3     1  UNL1       -0.5029
     20 H         -10.7897  -20.1228   26.2880 H       1  UNL1        0.2923
     21 C          -6.9316  -15.9666   24.2858 C.2     1  UNL1        0.2351
     22 O          -5.8872  -15.5980   23.2740 O.2     1  UNL1       -0.2737
     23 N          -8.0251  -16.9257   23.9196 N.am    1  UNL1       -0.2965
     24 H          -8.7105  -17.1676   24.5837 H       1  UNL1        0.1499
     25 C          -8.3765  -15.4693   25.7572 C.3     1  UNL1        0.0249
     26 C          -6.8823  -15.3759   25.6637 C.3     1  UNL1        0.1086
     27 C          -5.3881  -15.2825   25.5702 C.3     1  UNL1        0.0249
     28 N          -6.8330  -14.7853   27.0417 N.3     1  UNL1       -0.3164
     29 H          -6.2523  -15.3708   27.6420 H       1  UNL1        0.1192
     30 H          -7.7771  -14.7366   27.4247 H       1  UNL1        0.1192
     31 C          -7.1584  -18.6467   22.1770 C.3     1  UNL1        0.1699
     32 O          -6.0283  -18.4167   21.2177 O.3     1  UNL1       -0.3468
     33 C          -4.7055  -19.0871   21.4425 C.3     1  UNL1        0.1687
     34 C          -3.4382  -18.4080   21.0145 C.ar    1  UNL1        0.0073
     35 C          -2.8165  -18.7450   19.6917 C.ar    1  UNL1       -0.0019
     36 C          -1.5494  -18.0660   19.2639 C.ar    1  UNL1       -0.0002
     37 C          -0.9039  -17.0499   20.1588 C.ar    1  UNL1       -0.0000
     38 C          -1.5256  -16.7129   21.4816 C.ar    1  UNL1       -0.0002
     39 C          -2.7927  -17.3919   21.9095 C.ar    1  UNL1       -0.0019
@<TRIPOS>BOND
     1    25    26    1
     2    26    27    1
     3    26    28    1
     4    26    21    1
     5    21    22    2
     6    21    23   am
     7    23     1    1
     8     1    31    1
     9    31    32    1
    10    32    33    1
    11    33    34    1
    12    34    35   ar
    13    35    36   ar
    14    36    37   ar
    15    37    38   ar
    16    38    39   ar
    17     1     2    1
    18     2     3   ar
    19     3     4   ar
    20     4     5   ar
    21     5     6   ar
    22     6     7    1
    23     7     8    1
    24     8     9    1
    25     9    10    3
    26     7    11    1
    27    11    12    1
    28    12    13    1
    29    13    14   ar
    30    14    15   ar
    31    15    16   ar
    32    16    17   ar
    33    17    18   ar
    34    18    19    1
    35    39    34   ar
    36     6     2   ar
    37    18    13   ar
    38    28    29    1
    39    28    30    1
    40    23    24    1
    41    19    20    1
@<TRIPOS>MOLECULE
*****
 39 41 0 0 0
SMALL
GASTEIGER

@<TRIPOS>ATOM
      1 C          -8.6155  -17.0828   22.0974 C.3     1  UNL1        0.1621
      2 C          -8.7424  -18.3934   22.8159 C.ar    1  UNL1        0.1812
      3 N          -9.6320  -18.6721   23.9910 N.ar    1  UNL1       -0.1109
      4 N          -9.4415  -20.1063   24.3869 N.ar    1  UNL1       -0.0229
      5 N          -8.4341  -20.7140   23.4563 N.ar    1  UNL1       -0.0430
      6 N          -8.0020  -19.6553   22.4854 N.ar    1  UNL1       -0.2125
      7 C          -7.0047  -19.8284   21.3785 C.3     1  UNL1        0.1668
      8 C          -7.4753  -19.9873   19.9631 C.3     1  UNL1        0.1336
      9 C          -8.9039  -19.6961   19.6106 C.1     1  UNL1        0.0753
     10 N         -10.3326  -19.4049   19.2581 N.1     1  UNL1       -0.1958
     11 C          -5.5368  -19.8425   21.6868 C.3     1  UNL1        0.2309
     12 O          -4.5552  -20.2855   20.6426 O.3     1  UNL1       -0.4703
     13 C          -3.4968  -19.3392   20.1587 C.ar    1  UNL1        0.1720
     14 C          -3.8167  -18.3414   19.0853 C.ar    1  UNL1        0.0400
     15 C          -2.7582  -17.3951   18.6014 C.ar    1  UNL1        0.0033
     16 C          -1.3799  -17.4467   19.1909 C.ar    1  UNL1        0.0033
     17 C          -1.0600  -18.4445   20.2642 C.ar    1  UNL1        0.0398
     18 C          -2.1184  -19.3908   20.7482 C.ar    1  UNL1        0.1677
     19 O          -1.7986  -20.3886   21.8215 O.3     1  UNL1       -0.5029
     20 H          -0.9375  -20.4208   22.1897 H       1  UNL1        0.2923
     21 C         -10.9207  -16.2161   21.2702 C.2     1  UNL1        0.2351
     22 O         -11.3551  -16.0145   22.6918 O.2     1  UNL1       -0.2737
     23 N          -9.5510  -16.7502   20.9730 N.am    1  UNL1       -0.2965
     24 H          -9.2659  -16.8825   20.0400 H       1  UNL1        0.1499
     25 C         -10.7192  -15.2752   19.3796 C.3     1  UNL1        0.0249
     26 C         -11.8563  -15.8834   20.1458 C.3     1  UNL1        0.1086
     27 C         -12.9934  -16.4917   20.9120 C.3     1  UNL1        0.0249
     28 N         -12.7918  -15.5508   19.0215 N.3     1  UNL1       -0.3164
     29 H         -13.2302  -16.4060   18.6797 H       1  UNL1        0.1192
     30 H         -12.2698  -15.1102   18.2640 H       1  UNL1        0.1192
     31 C          -7.5530  -16.1049   22.5032 C.3     1  UNL1        0.1699
     32 O          -6.2219  -16.6007   22.9854 O.3     1  UNL1       -0.3468
     33 C          -5.6052  -16.0135   24.2202 C.3     1  UNL1        0.1687
     34 C          -6.4675  -15.6705   25.3988 C.ar    1  UNL1        0.0073
     35 C          -7.9535  -15.8596   25.3212 C.ar    1  UNL1       -0.0019
     36 C          -8.8157  -15.5166   26.4997 C.ar    1  UNL1       -0.0002
     37 C          -8.1919  -14.9844   27.7558 C.ar    1  UNL1       -0.0000
     38 C          -6.7059  -14.7952   27.8333 C.ar    1  UNL1       -0.0002
     39 C          -5.8437  -15.1383   26.6548 C.ar    1  UNL1       -0.0019
@<TRIPOS>BOND
     1    25    26    1
     2    26    27    1
     3    26    28    1
     4    26    21    1
     5    21    22    2
     6    21    23   am
     7    23     1    1
     8     1    31    1
     9    31    32    1
    10    32    33    1
    11    33    34    1
    12    34    35   ar
    13    35    36   ar
    14    36    37   ar
    15    37    38   ar
    16    38    39   ar
    17     1     2    1
    18     2     3   ar
    19     3     4   ar
    20     4     5   ar
    21     5     6   ar
    22     6     7    1
    23     7     8    1
    24     8     9    1
    25     9    10    3
    26     7    11    1
    27    11    12    1
    28    12    13    1
    29    13    14   ar
    30    14    15   ar
    31    15    16   ar
    32    16    17   ar
    33    17    18   ar
    34    18    19    1
    35    39    34   ar
    36     6     2   ar
    37    18    13   ar
    38    28    29    1
    39    28    30    1
    40    23    24    1
    41    19    20    1
@<TRIPOS>MOLECULE
*****
 39 41 0 0 0
SMALL
GASTEIGER

@<TRIPOS>ATOM
      1 C          -8.6917  -16.8713   22.4475 C.3     1  UNL1        0.1621
      2 C          -8.8258  -18.2272   23.0747 C.ar    1  UNL1        0.1812
      3 N          -9.6968  -18.5750   24.2453 N.ar    1  UNL1       -0.1109
      4 N          -9.5218  -20.0362   24.5355 N.ar    1  UNL1       -0.0229
      5 N          -8.5425  -20.5915   23.5441 N.ar    1  UNL1       -0.0430
      6 N          -8.1124  -19.4735   22.6413 N.ar    1  UNL1       -0.2125
      7 C          -7.1397  -19.5827   21.5047 C.3     1  UNL1        0.1668
      8 C          -7.6411  -19.7804   20.1049 C.3     1  UNL1        0.1336
      9 C          -9.0770  -19.4981   19.7757 C.1     1  UNL1        0.0753
     10 N         -10.5130  -19.2158   19.4464 N.1     1  UNL1       -0.1958
     11 C          -5.6656  -19.4942   21.7678 C.3     1  UNL1        0.2309
     12 O          -4.6939  -20.1167   20.8096 O.3     1  UNL1       -0.4703
     13 C          -3.6210  -19.2791   20.1794 C.ar    1  UNL1        0.1720
     14 C          -3.9794  -18.2596   19.1390 C.ar    1  UNL1        0.0400
     15 C          -2.9065  -17.4220   18.5088 C.ar    1  UNL1        0.0033
     16 C          -1.4752  -17.6038   18.9190 C.ar    1  UNL1        0.0033
     17 C          -1.1168  -18.6232   19.9594 C.ar    1  UNL1        0.0398
     18 C          -2.1897  -19.4609   20.5896 C.ar    1  UNL1        0.1677
     19 O          -1.8313  -20.4803   21.6299 O.3     1  UNL1       -0.5029
     20 H          -0.9372  -20.5938   21.8861 H       1  UNL1        0.2923
     21 C         -10.9592  -16.2088   21.3662 C.2     1  UNL1        0.2351
     22 O         -11.6124  -16.2406   22.7162 O.2     1  UNL1       -0.2737
     23 N          -9.4990  -16.5241   21.2318 N.am    1  UNL1       -0.2965
     24 H          -9.0703  -16.5031   20.3458 H       1  UNL1        0.1499
     25 C         -12.9765  -16.4917   20.7740 C.3     1  UNL1        0.0249
     26 C         -11.7665  -15.8615   20.1505 C.3     1  UNL1        0.1086
     27 C         -10.5565  -15.2313   19.5270 C.3     1  UNL1        0.0249
     28 N         -12.5737  -15.5143   18.9349 N.3     1  UNL1       -0.3164
     29 H         -12.5497  -14.5053   18.7876 H       1  UNL1        0.1192
     30 H         -13.5389  -15.8152   19.0703 H       1  UNL1        0.1192
     31 C          -7.7504  -15.8626   23.0359 C.3     1  UNL1        0.1699
     32 O          -7.5273  -15.8205   24.5187 O.3     1  UNL1       -0.3468
     33 C          -6.1411  -15.6441   25.0639 C.3     1  UNL1        0.1687
     34 C          -4.9546  -16.0571   24.2442 C.ar    1  UNL1        0.0073
     35 C          -4.4357  -15.1518   23.1667 C.ar    1  UNL1       -0.0019
     36 C          -3.2493  -15.5647   22.3471 C.ar    1  UNL1       -0.0002
     37 C          -2.5818  -16.8830   22.6050 C.ar    1  UNL1       -0.0000
     38 C          -3.1007  -17.7884   23.6825 C.ar    1  UNL1       -0.0002
     39 C          -4.2871  -17.3754   24.5021 C.ar    1  UNL1       -0.0019
@<TRIPOS>BOND
     1    25    26    1
     2    26    27    1
     3    26    28    1
     4    26    21    1
     5    21    22    2
     6    21    23   am
     7    23     1    1
     8     1    31    1
     9    31    32    1
    10    32    33    1
    11    33    34    1
    12    34    35   ar
    13    35    36   ar
    14    36    37   ar
    15    37    38   ar
    16    38    39   ar
    17     1     2    1
    18     2     3   ar
    19     3     4   ar
    20     4     5   ar
    21     5     6   ar
    22     6     7    1
    23     7     8    1
    24     8     9    1
    25     9    10    3
    26     7    11    1
    27    11    12    1
    28    12    13    1
    29    13    14   ar
    30    14    15   ar
    31    15    16   ar
    32    16    17   ar
    33    17    18   ar
    34    18    19    1
    35    39    34   ar
    36     6     2   ar
    37    18    13   ar
    38    28    29    1
    39    28    30    1
    40    23    24    1
    41    19    20    1
@<TRIPOS>MOLECULE
*****
 39 41 0 0 0
SMALL
GASTEIGER

@<TRIPOS>ATOM
      1 C          -6.2360  -16.6760   23.3231 C.3     1  UNL1        0.1621
      2 C          -7.4244  -16.4367   22.4397 C.ar    1  UNL1        0.1812
      3 N          -8.0144  -15.1005   22.0983 N.ar    1  UNL1       -0.1109
      4 N          -9.1862  -15.3295   21.1903 N.ar    1  UNL1       -0.0229
      5 N          -9.3204  -16.8073   20.9705 N.ar    1  UNL1       -0.0430
      6 N          -8.2316  -17.4915   21.7427 N.ar    1  UNL1       -0.2125
      7 C          -7.9920  -18.9709   21.8067 C.3     1  UNL1        0.1668
      8 C          -7.3045  -19.6691   20.6710 C.3     1  UNL1        0.1336
      9 C          -8.0954  -20.1201   19.4789 C.1     1  UNL1        0.0753
     10 N          -8.8864  -20.5711   18.2868 N.1     1  UNL1       -0.1958
     11 C          -8.4399  -19.7521   23.0064 C.3     1  UNL1        0.2309
     12 O          -9.8102  -20.3617   23.0357 O.3     1  UNL1       -0.4703
     13 C         -11.0217  -19.4803   23.1097 C.ar    1  UNL1        0.1720
     14 C         -11.5952  -19.1041   24.4436 C.ar    1  UNL1        0.0400
     15 C         -12.8067  -18.2228   24.5176 C.ar    1  UNL1        0.0033
     16 C         -13.4446  -17.7176   23.2575 C.ar    1  UNL1        0.0033
     17 C         -12.8711  -18.0938   21.9235 C.ar    1  UNL1        0.0398
     18 C         -11.6596  -18.9752   21.8496 C.ar    1  UNL1        0.1677
     19 O         -11.0861  -19.3514   20.5156 O.3     1  UNL1       -0.5029
     20 H         -11.4846  -19.0358   19.7285 H       1  UNL1        0.2923
     21 C          -7.1838  -15.8545   25.5983 C.2     1  UNL1        0.2351
     22 O          -8.4570  -16.6039   25.3386 O.2     1  UNL1       -0.2737
     23 N          -6.0734  -15.8906   24.5906 N.am    1  UNL1       -0.2965
     24 H          -5.2377  -15.3987   24.7611 H       1  UNL1        0.1499
     25 C          -5.5867  -14.8031   26.5170 C.3     1  UNL1        0.0249
     26 C          -7.0211  -15.0690   26.8658 C.3     1  UNL1        0.1086
     27 C          -8.4555  -15.3349   27.2147 C.3     1  UNL1        0.0249
     28 N          -6.8584  -14.2835   28.1333 N.3     1  UNL1       -0.3164
     29 H          -7.5264  -13.5128   28.1438 H       1  UNL1        0.1192
     30 H          -5.9098  -13.9121   28.1838 H       1  UNL1        0.1192
     31 C          -5.2103  -17.7008   22.9389 C.3     1  UNL1        0.1699
     32 O          -3.9967  -17.9054   23.7965 O.3     1  UNL1       -0.3468
     33 C          -2.6641  -18.1679   23.1600 C.3     1  UNL1        0.1687
     34 C          -2.5460  -18.2309   21.6659 C.ar    1  UNL1        0.0073
     35 C          -1.7947  -17.1633   20.9273 C.ar    1  UNL1       -0.0019
     36 C          -1.6766  -17.2263   19.4333 C.ar    1  UNL1       -0.0002
     37 C          -2.3097  -18.3571   18.6780 C.ar    1  UNL1       -0.0000
     38 C          -3.0610  -19.4247   19.4166 C.ar    1  UNL1       -0.0002
     39 C          -3.1791  -19.3617   20.9106 C.ar    1  UNL1       -0.0019
@<TRIPOS>BOND
     1    25    26    1
     2    26    27    1
     3    26    28    1
     4    26    21    1
     5    21    22    2
     6    21    23   am
     7    23     1    1
     8     1    31    1
     9    31    32    1
    10    32    33    1
    11    33    34    1
    12    34    35   ar
    13    35    36   ar
    14    36    37   ar
    15    37    38   ar
    16    38    39   ar
    17     1     2    1
    18     2     3   ar
    19     3     4   ar
    20     4     5   ar
    21     5     6   ar
    22     6     7    1
    23     7     8    1
    24     8     9    1
    25     9    10    3
    26     7    11    1
    27    11    12    1
    28    12    13    1
    29    13    14   ar
    30    14    15   ar
    31    15    16   ar
    32    16    17   ar
    33    17    18   ar
    34    18    19    1
    35    39    34   ar
    36     6     2   ar
    37    18    13   ar
    38    28    29    1
    39    28    30    1
    40    23    24    1
    41    19    20    1
