@<TRIPOS>MOLECULE
*****
 29 30 0 0 0
SMALL
GASTEIGER

@<TRIPOS>ATOM
      1 C          -9.8743  -19.0512   21.3992 C.ar    1  UNL1        0.1415
      2 C         -11.1700  -19.2393   22.1312 C.ar    1  UNL1        0.0401
      3 C         -11.1825  -19.9069   23.4744 C.ar    1  UNL1        0.0397
      4 C          -9.8994  -20.3863   24.0856 C.ar    1  UNL1        0.1340
      5 O          -9.9119  -21.0539   25.4288 O.3     1  UNL1       -0.5055
      6 C          -8.6037  -20.1982   23.3536 C.ar    1  UNL1        0.0425
      7 C          -8.5912  -19.5307   22.0104 C.ar    1  UNL1        0.0716
      8 H         -10.7213  -21.1714   25.8860 H       1  UNL1        0.2922
      9 C          -7.2954  -19.3426   21.2784 C.2     1  UNL1        0.1764
     10 O          -7.0240  -18.0588   20.5518 O.2     1  UNL1       -0.2912
     11 C          -6.2711  -20.4384   21.2732 C.3     1  UNL1        0.0739
     12 C          -5.1719  -20.4326   20.2526 C.3     1  UNL1        0.0345
     13 C          -3.9711  -19.5553   20.4486 C.ar    1  UNL1       -0.0217
     14 C          -3.5326  -18.6286   19.3537 C.ar    1  UNL1       -0.0043
     15 C          -2.3318  -17.7513   19.5497 C.ar    1  UNL1       -0.0003
     16 C          -1.5694  -17.8008   20.8406 C.ar    1  UNL1       -0.0000
     17 C          -2.0079  -18.7276   21.9355 C.ar    1  UNL1       -0.0003
     18 C          -3.2087  -19.6048   21.7395 C.ar    1  UNL1       -0.0043
     19 O          -9.8618  -18.3836   20.0560 O.3     1  UNL1       -0.4727
     20 C         -11.1004  -17.7132   19.5401 C.3     1  UNL1        0.2358
     21 C         -11.3641  -16.2726   19.8647 C.3     1  UNL1        0.1697
     22 O         -12.2446  -15.4513   18.9702 O.3     1  UNL1       -0.3793
     23 H         -12.3101  -14.5493   19.3208 H       1  UNL1        0.2106
     24 C         -10.7472  -15.6535   21.0838 C.3     1  UNL1        0.1021
     25 N          -9.2606  -15.6998   21.2779 N.3     1  UNL1       -0.2953
     26 H          -8.9136  -16.4737   20.7111 H       1  UNL1        0.1233
     27 C          -8.6890  -15.8799   22.6529 C.3     1  UNL1        0.0686
     28 C          -8.9894  -16.8512   25.0438 C.3     1  UNL1        0.0015
     29 C          -9.5820  -16.2794   23.7900 C.3     1  UNL1        0.0171
@<TRIPOS>BOND
     1    28    29    1
     2    29    27    1
     3    27    25    1
     4    25    24    1
     5    24    21    1
     6    21    22    1
     7    21    20    1
     8    20    19    1
     9    19     1    1
    10     1     2   ar
    11     2     3   ar
    12     3     4   ar
    13     4     5    1
    14     4     6   ar
    15     6     7   ar
    16     7     9    1
    17     9    10    2
    18     9    11    1
    19    11    12    1
    20    12    13    1
    21    13    14   ar
    22    14    15   ar
    23    15    16   ar
    24    16    17   ar
    25    17    18   ar
    26     7     1   ar
    27    18    13   ar
    28    25    26    1
    29    22    23    1
    30     5     8    1
@<TRIPOS>MOLECULE
*****
 29 30 0 0 0
SMALL
GASTEIGER

@<TRIPOS>ATOM
      1 C          -9.3925  -17.4687   22.8273 C.ar    1  UNL1        0.1415
      2 C          -9.8878  -17.3679   24.2395 C.ar    1  UNL1        0.0401
      3 C         -10.0665  -18.6095   25.0621 C.ar    1  UNL1        0.0397
      4 C          -9.7499  -19.9518   24.4724 C.ar    1  UNL1        0.1340
      5 O          -9.9285  -21.1934   25.2949 O.3     1  UNL1       -0.5055
      6 C          -9.2546  -20.0526   23.0601 C.ar    1  UNL1        0.0425
      7 C          -9.0759  -18.8111   22.2376 C.ar    1  UNL1        0.0716
      8 H         -10.2379  -21.1304   26.1771 H       1  UNL1        0.2922
      9 C          -8.5807  -18.9119   20.8252 C.2     1  UNL1        0.1764
     10 O          -9.5459  -18.8023   19.6823 O.2     1  UNL1       -0.2912
     11 C          -7.1201  -19.1223   20.5559 C.3     1  UNL1        0.0739
     12 C          -6.2251  -19.6447   21.6403 C.3     1  UNL1        0.0345
     13 C          -4.7711  -19.2764   21.6552 C.ar    1  UNL1       -0.0217
     14 C          -4.2085  -18.4895   22.8015 C.ar    1  UNL1       -0.0043
     15 C          -2.7545  -18.1212   22.8164 C.ar    1  UNL1       -0.0003
     16 C          -1.8631  -18.5398   21.6849 C.ar    1  UNL1       -0.0000
     17 C          -2.4258  -19.3268   20.5385 C.ar    1  UNL1       -0.0003
     18 C          -3.8798  -19.6951   20.5237 C.ar    1  UNL1       -0.0043
     19 O          -9.2139  -16.2271   22.0047 O.3     1  UNL1       -0.4727
     20 C          -7.9099  -15.4866   22.0381 C.3     1  UNL1        0.2358
     21 C          -7.3247  -15.0569   23.3507 C.3     1  UNL1        0.1697
     22 O          -8.0475  -14.0558   24.2023 O.3     1  UNL1       -0.3793
     23 H          -7.5369  -13.8900   25.0102 H       1  UNL1        0.2106
     24 C          -6.0166  -15.6284   23.8117 C.3     1  UNL1        0.1021
     25 N          -5.3430  -15.0717   25.0308 N.3     1  UNL1       -0.2953
     26 H          -4.3397  -15.0932   24.8485 H       1  UNL1        0.1233
     27 C          -5.5543  -15.7204   26.3666 C.3     1  UNL1        0.0686
     28 C          -8.0045  -16.0127   27.1800 C.3     1  UNL1        0.0015
     29 C          -6.6939  -15.2855   27.2397 C.3     1  UNL1        0.0171
@<TRIPOS>BOND
     1    28    29    1
     2    29    27    1
     3    27    25    1
     4    25    24    1
     5    24    21    1
     6    21    22    1
     7    21    20    1
     8    20    19    1
     9    19     1    1
    10     1     2   ar
    11     2     3   ar
    12     3     4   ar
    13     4     5    1
    14     4     6   ar
    15     6     7   ar
    16     7     9    1
    17     9    10    2
    18     9    11    1
    19    11    12    1
    20    12    13    1
    21    13    14   ar
    22    14    15   ar
    23    15    16   ar
    24    16    17   ar
    25    17    18   ar
    26     7     1   ar
    27    18    13   ar
    28    25    26    1
    29    22    23    1
    30     5     8    1
@<TRIPOS>MOLECULE
*****
 29 30 0 0 0
SMALL
GASTEIGER

@<TRIPOS>ATOM
      1 C          -5.6234  -16.0660   24.0926 C.ar    1  UNL1        0.1415
      2 C          -5.1599  -15.5078   25.4054 C.ar    1  UNL1        0.0401
      3 C          -6.1531  -15.2279   26.4940 C.ar    1  UNL1        0.0397
      4 C          -7.6099  -15.5062   26.2698 C.ar    1  UNL1        0.1340
      5 O          -8.6032  -15.2262   27.3584 O.3     1  UNL1       -0.5055
      6 C          -8.0734  -16.0644   24.9570 C.ar    1  UNL1        0.0425
      7 C          -7.0801  -16.3443   23.8684 C.ar    1  UNL1        0.0716
      8 H          -8.3136  -14.8776   28.1785 H       1  UNL1        0.2922
      9 C          -7.5437  -16.9025   22.5555 C.2     1  UNL1        0.1764
     10 O          -8.1053  -15.9876   21.5079 O.2     1  UNL1       -0.2912
     11 C          -7.4456  -18.3756   22.2904 C.3     1  UNL1        0.0739
     12 C          -8.6609  -19.1430   21.8615 C.3     1  UNL1        0.0345
     13 C         -10.0069  -18.7908   22.4222 C.ar    1  UNL1       -0.0217
     14 C         -11.0629  -18.2101   21.5291 C.ar    1  UNL1       -0.0043
     15 C         -12.4088  -17.8580   22.0899 C.ar    1  UNL1       -0.0003
     16 C         -12.6988  -18.0865   23.5437 C.ar    1  UNL1       -0.0000
     17 C         -11.6428  -18.6673   24.4369 C.ar    1  UNL1       -0.0003
     18 C         -10.2968  -19.0194   23.8761 C.ar    1  UNL1       -0.0043
     19 O          -4.6301  -16.3459   23.0040 O.3     1  UNL1       -0.4727
     20 C          -3.7025  -17.5190   23.1186 C.3     1  UNL1        0.2358
     21 C          -2.4679  -17.5847   22.2693 C.3     1  UNL1        0.1697
     22 O          -1.3679  -18.5431   22.6178 O.3     1  UNL1       -0.3793
     23 H          -0.6488  -18.4586   21.9723 H       1  UNL1        0.2106
     24 C          -2.3332  -16.6920   21.0714 C.3     1  UNL1        0.1021
     25 N          -2.4431  -17.2679   19.6907 N.3     1  UNL1       -0.2953
     26 H          -2.5050  -16.4792   19.0468 H       1  UNL1        0.1233
     27 C          -3.5739  -18.1933   19.3519 C.3     1  UNL1        0.0686
     28 C          -4.6476  -20.3741   20.2691 C.3     1  UNL1        0.0015
     29 C          -3.4717  -19.6536   19.6789 C.3     1  UNL1        0.0171
@<TRIPOS>BOND
     1    28    29    1
     2    29    27    1
     3    27    25    1
     4    25    24    1
     5    24    21    1
     6    21    22    1
     7    21    20    1
     8    20    19    1
     9    19     1    1
    10     1     2   ar
    11     2     3   ar
    12     3     4   ar
    13     4     5    1
    14     4     6   ar
    15     6     7   ar
    16     7     9    1
    17     9    10    2
    18     9    11    1
    19    11    12    1
    20    12    13    1
    21    13    14   ar
    22    14    15   ar
    23    15    16   ar
    24    16    17   ar
    25    17    18   ar
    26     7     1   ar
    27    18    13   ar
    28    25    26    1
    29    22    23    1
    30     5     8    1
@<TRIPOS>MOLECULE
*****
 29 30 0 0 0
SMALL
GASTEIGER

@<TRIPOS>ATOM
      1 C         -10.3600  -17.1184   22.2395 C.ar    1  UNL1        0.1415
      2 C         -11.5246  -16.1899   22.0622 C.ar    1  UNL1        0.0401
      3 C         -12.8340  -16.4934   22.7280 C.ar    1  UNL1        0.0397
      4 C         -12.9789  -17.7255   23.5712 C.ar    1  UNL1        0.1340
      5 O         -14.2883  -18.0290   24.2370 O.3     1  UNL1       -0.5055
      6 C         -11.8143  -18.6540   23.7486 C.ar    1  UNL1        0.0425
      7 C         -10.5049  -18.3505   23.0827 C.ar    1  UNL1        0.0716
      8 H         -15.0158  -17.4489   24.1262 H       1  UNL1        0.2922
      9 C          -9.3403  -19.2791   23.2601 C.2     1  UNL1        0.1764
     10 O          -9.2578  -20.1551   24.4749 O.2     1  UNL1       -0.2912
     11 C          -8.2581  -19.3317   22.2227 C.3     1  UNL1        0.0739
     12 C          -7.1696  -20.3585   22.3257 C.3     1  UNL1        0.0345
     13 C          -5.8233  -20.0874   21.7224 C.ar    1  UNL1       -0.0217
     14 C          -4.8562  -19.1800   22.4233 C.ar    1  UNL1       -0.0043
     15 C          -3.5100  -18.9090   21.8200 C.ar    1  UNL1       -0.0003
     16 C          -3.1307  -19.5453   20.5157 C.ar    1  UNL1       -0.0000
     17 C          -4.0978  -20.4528   19.8147 C.ar    1  UNL1       -0.0003
     18 C          -5.4441  -20.7238   20.4180 C.ar    1  UNL1       -0.0043
     19 O          -9.0506  -16.8149   21.5737 O.3     1  UNL1       -0.4727
     20 C          -8.2704  -15.5977   21.9732 C.3     1  UNL1        0.2358
     21 C          -7.9467  -15.3551   23.4176 C.3     1  UNL1        0.1697
     22 O          -9.0434  -15.0286   24.3875 O.3     1  UNL1       -0.3793
     23 H          -8.6658  -14.9023   25.2720 H       1  UNL1        0.2106
     24 C          -6.5262  -15.4390   23.8922 C.3     1  UNL1        0.1021
     25 N          -6.1057  -14.7088   25.1332 N.3     1  UNL1       -0.2953
     26 H          -5.2418  -14.2162   24.9066 H       1  UNL1        0.1233
     27 C          -5.8507  -15.4693   26.4007 C.3     1  UNL1        0.0686
     28 C          -8.1453  -16.3015   27.2908 C.3     1  UNL1        0.0015
     29 C          -6.8921  -15.4991   27.4799 C.3     1  UNL1        0.0171
@<TRIPOS>BOND
     1    28    29    1
     2    29    27    1
     3    27    25    1
     4    25    24    1
     5    24    21    1
     6    21    22    1
     7    21    20    1
     8    20    19    1
     9    19     1    1
    10     1     2   ar
    11     2     3   ar
    12     3     4   ar
    13     4     5    1
    14     4     6   ar
    15     6     7   ar
    16     7     9    1
    17     9    10    2
    18     9    11    1
    19    11    12    1
    20    12    13    1
    21    13    14   ar
    22    14    15   ar
    23    15    16   ar
    24    16    17   ar
    25    17    18   ar
    26     7     1   ar
    27    18    13   ar
    28    25    26    1
    29    22    23    1
    30     5     8    1
@<TRIPOS>MOLECULE
*****
 29 30 0 0 0
SMALL
GASTEIGER

@<TRIPOS>ATOM
      1 C         -11.0111  -18.9657   21.4705 C.ar    1  UNL1        0.1415
      2 C         -12.1724  -18.1733   21.9935 C.ar    1  UNL1        0.0401
      3 C         -12.6854  -16.9950   21.2201 C.ar    1  UNL1        0.0397
      4 C         -12.0372  -16.6090   19.9236 C.ar    1  UNL1        0.1340
      5 O         -12.5503  -15.4306   19.1502 O.3     1  UNL1       -0.5055
      6 C         -10.8760  -17.4014   19.4006 C.ar    1  UNL1        0.0425
      7 C         -10.3629  -18.5797   20.1741 C.ar    1  UNL1        0.0716
      8 H         -13.2757  -14.9356   19.4769 H       1  UNL1        0.2922
      9 C          -9.2016  -19.3721   19.6510 C.2     1  UNL1        0.1764
     10 O          -9.4320  -20.4783   18.6645 O.2     1  UNL1       -0.2912
     11 C          -7.8100  -19.0583   20.1145 C.3     1  UNL1        0.0739
     12 C          -6.8253  -20.1678   20.3367 C.3     1  UNL1        0.0345
     13 C          -5.4613  -19.8623   20.8808 C.ar    1  UNL1       -0.0217
     14 C          -4.2389  -20.3047   20.1324 C.ar    1  UNL1       -0.0043
     15 C          -2.8749  -19.9991   20.6764 C.ar    1  UNL1       -0.0003
     16 C          -2.7331  -19.2512   21.9689 C.ar    1  UNL1       -0.0000
     17 C          -3.9555  -18.8088   22.7173 C.ar    1  UNL1       -0.0003
     18 C          -5.3196  -19.1143   22.1733 C.ar    1  UNL1       -0.0043
     19 O         -10.4981  -20.1441   22.2439 O.3     1  UNL1       -0.4727
     20 C          -9.4190  -19.9564   23.2687 C.3     1  UNL1        0.2358
     21 C          -9.7169  -19.2311   24.5474 C.3     1  UNL1        0.1697
     22 O         -10.3426  -19.9638   25.6970 O.3     1  UNL1       -0.3793
     23 H         -10.4670  -19.3531   26.4404 H       1  UNL1        0.2106
     24 C          -9.3891  -17.7730   24.6765 C.3     1  UNL1        0.1021
     25 N          -9.1216  -16.9529   23.4494 N.3     1  UNL1       -0.2953
     26 H          -9.4144  -17.5148   22.6501 H       1  UNL1        0.1233
     27 C          -7.7307  -16.4743   23.1557 C.3     1  UNL1        0.0686
     28 C          -5.4868  -15.4465   23.9675 C.3     1  UNL1        0.0015
     29 C          -6.8673  -15.9519   24.2656 C.3     1  UNL1        0.0171
@<TRIPOS>BOND
     1    28    29    1
     2    29    27    1
     3    27    25    1
     4    25    24    1
     5    24    21    1
     6    21    22    1
     7    21    20    1
     8    20    19    1
     9    19     1    1
    10     1     2   ar
    11     2     3   ar
    12     3     4   ar
    13     4     5    1
    14     4     6   ar
    15     6     7   ar
    16     7     9    1
    17     9    10    2
    18     9    11    1
    19    11    12    1
    20    12    13    1
    21    13    14   ar
    22    14    15   ar
    23    15    16   ar
    24    16    17   ar
    25    17    18   ar
    26     7     1   ar
    27    18    13   ar
    28    25    26    1
    29    22    23    1
    30     5     8    1
@<TRIPOS>MOLECULE
*****
 29 30 0 0 0
SMALL
GASTEIGER

@<TRIPOS>ATOM
      1 C         -10.0427  -17.5273   22.9664 C.ar    1  UNL1        0.1415
      2 C         -11.2236  -17.9754   23.7755 C.ar    1  UNL1        0.0401
      3 C         -11.1649  -19.2668   24.5363 C.ar    1  UNL1        0.0397
      4 C          -9.9254  -20.1101   24.4880 C.ar    1  UNL1        0.1340
      5 O          -9.8668  -21.4014   25.2489 O.3     1  UNL1       -0.5055
      6 C          -8.7446  -19.6620   23.6789 C.ar    1  UNL1        0.0425
      7 C          -8.8032  -18.3706   22.9181 C.ar    1  UNL1        0.0716
      8 H         -10.6044  -21.6814   25.7543 H       1  UNL1        0.2922
      9 C          -7.6222  -17.9225   22.1090 C.2     1  UNL1        0.1764
     10 O          -6.9731  -16.6014   22.3976 O.2     1  UNL1       -0.2912
     11 C          -7.0905  -18.7955   21.0113 C.3     1  UNL1        0.0739
     12 C          -5.9752  -19.7583   21.2924 C.3     1  UNL1        0.0345
     13 C          -4.5543  -19.2778   21.3029 C.ar    1  UNL1       -0.0217
     14 C          -3.6910  -19.4630   20.0903 C.ar    1  UNL1       -0.0043
     15 C          -2.2701  -18.9825   20.1007 C.ar    1  UNL1       -0.0003
     16 C          -1.7125  -18.3167   21.3237 C.ar    1  UNL1       -0.0000
     17 C          -2.5757  -18.1315   22.5363 C.ar    1  UNL1       -0.0003
     18 C          -3.9966  -18.6120   22.5259 C.ar    1  UNL1       -0.0043
     19 O         -10.1014  -16.2359   22.2056 O.3     1  UNL1       -0.4727
     20 C         -11.3719  -15.8249   21.5224 C.3     1  UNL1        0.2358
     21 C         -11.7092  -16.3787   20.1698 C.3     1  UNL1        0.1697
     22 O         -12.2075  -15.4661   19.0887 O.3     1  UNL1       -0.3793
     23 H         -12.3769  -15.9805   18.2839 H       1  UNL1        0.2106
     24 C         -11.5481  -17.8452   19.8983 C.3     1  UNL1        0.1021
     25 N         -10.2142  -18.3881   19.4787 N.3     1  UNL1       -0.2953
     26 H          -9.9872  -17.9531   18.5845 H       1  UNL1        0.1233
     27 C         -10.0283  -19.8659   19.3009 C.3     1  UNL1        0.0686
     28 C          -9.0598  -21.4727   17.5036 C.3     1  UNL1        0.0015
     29 C          -8.8593  -20.3858   18.5178 C.3     1  UNL1        0.0171
@<TRIPOS>BOND
     1    28    29    1
     2    29    27    1
     3    27    25    1
     4    25    24    1
     5    24    21    1
     6    21    22    1
     7    21    20    1
     8    20    19    1
     9    19     1    1
    10     1     2   ar
    11     2     3   ar
    12     3     4   ar
    13     4     5    1
    14     4     6   ar
    15     6     7   ar
    16     7     9    1
    17     9    10    2
    18     9    11    1
    19    11    12    1
    20    12    13    1
    21    13    14   ar
    22    14    15   ar
    23    15    16   ar
    24    16    17   ar
    25    17    18   ar
    26     7     1   ar
    27    18    13   ar
    28    25    26    1
    29    22    23    1
    30     5     8    1
@<TRIPOS>MOLECULE
*****
 29 30 0 0 0
SMALL
GASTEIGER

@<TRIPOS>ATOM
      1 C         -10.0085  -19.2265   21.1635 C.ar    1  UNL1        0.1415
      2 C         -11.2042  -19.8491   21.8213 C.ar    1  UNL1        0.0401
      3 C         -11.0621  -20.5190   23.1558 C.ar    1  UNL1        0.0397
      4 C          -9.7243  -20.5662   23.8326 C.ar    1  UNL1        0.1340
      5 O          -9.5822  -21.2361   25.1672 O.3     1  UNL1       -0.5055
      6 C          -8.5287  -19.9437   23.1748 C.ar    1  UNL1        0.0425
      7 C          -8.6708  -19.2738   21.8403 C.ar    1  UNL1        0.0716
      8 H         -10.3291  -21.6250   25.5781 H       1  UNL1        0.2922
      9 C          -7.4750  -18.6512   21.1825 C.2     1  UNL1        0.1764
     10 O          -7.1568  -17.2047   21.4197 O.2     1  UNL1       -0.2912
     11 C          -6.5975  -19.4752   20.2874 C.3     1  UNL1        0.0739
     12 C          -5.2672  -19.9608   20.7818 C.3     1  UNL1        0.0345
     13 C          -4.1396  -18.9908   20.9758 C.ar    1  UNL1       -0.0217
     14 C          -3.8385  -18.4546   22.3440 C.ar    1  UNL1       -0.0043
     15 C          -2.7109  -17.4847   22.5380 C.ar    1  UNL1       -0.0003
     16 C          -1.8843  -17.0509   21.3639 C.ar    1  UNL1       -0.0000
     17 C          -2.1854  -17.5871   19.9957 C.ar    1  UNL1       -0.0003
     18 C          -3.3130  -18.5570   19.8016 C.ar    1  UNL1       -0.0043
     19 O         -10.1506  -18.5566   19.8289 O.3     1  UNL1       -0.4727
     20 C         -10.9586  -17.2991   19.7032 C.3     1  UNL1        0.2358
     21 C         -10.9445  -16.2850   20.8083 C.3     1  UNL1        0.1697
     22 O          -9.6734  -15.5656   21.1501 O.3     1  UNL1       -0.3793
     23 H          -9.8370  -14.9498   21.8814 H       1  UNL1        0.2106
     24 C         -12.2017  -15.9902   21.5717 C.3     1  UNL1        0.1021
     25 N         -13.0456  -17.1165   22.0905 N.3     1  UNL1       -0.2953
     26 H         -14.0082  -16.9105   21.8232 H       1  UNL1        0.1233
     27 C         -13.0609  -17.4281   23.5577 C.3     1  UNL1        0.0686
     28 C         -14.2507  -18.4584   25.6248 C.3     1  UNL1        0.0015
     29 C         -14.1964  -18.2119   24.1462 C.3     1  UNL1        0.0171
@<TRIPOS>BOND
     1    28    29    1
     2    29    27    1
     3    27    25    1
     4    25    24    1
     5    24    21    1
     6    21    22    1
     7    21    20    1
     8    20    19    1
     9    19     1    1
    10     1     2   ar
    11     2     3   ar
    12     3     4   ar
    13     4     5    1
    14     4     6   ar
    15     6     7   ar
    16     7     9    1
    17     9    10    2
    18     9    11    1
    19    11    12    1
    20    12    13    1
    21    13    14   ar
    22    14    15   ar
    23    15    16   ar
    24    16    17   ar
    25    17    18   ar
    26     7     1   ar
    27    18    13   ar
    28    25    26    1
    29    22    23    1
    30     5     8    1
@<TRIPOS>MOLECULE
*****
 29 30 0 0 0
SMALL
GASTEIGER

@<TRIPOS>ATOM
      1 C          -9.1533  -17.6038   22.5769 C.ar    1  UNL1        0.1415
      2 C          -9.3128  -17.2531   24.0265 C.ar    1  UNL1        0.0401
      3 C          -9.6101  -18.3278   25.0298 C.ar    1  UNL1        0.0397
      4 C          -9.7479  -19.7532   24.5835 C.ar    1  UNL1        0.1340
      5 O         -10.0451  -20.8279   25.5869 O.3     1  UNL1       -0.5055
      6 C          -9.5884  -20.1039   23.1339 C.ar    1  UNL1        0.0425
      7 C          -9.2911  -19.0292   22.1306 C.ar    1  UNL1        0.0716
      8 H         -10.1448  -20.6088   26.4924 H       1  UNL1        0.2922
      9 C          -9.1316  -19.3800   20.6808 C.2     1  UNL1        0.1764
     10 O         -10.2741  -19.1778   19.7302 O.2     1  UNL1       -0.2912
     11 C          -7.8295  -19.9329   20.1819 C.3     1  UNL1        0.0739
     12 C          -6.6848  -19.0086   19.8900 C.3     1  UNL1        0.0345
     13 C          -5.3762  -19.1876   20.6009 C.ar    1  UNL1       -0.0217
     14 C          -4.1698  -19.6584   19.8441 C.ar    1  UNL1       -0.0043
     15 C          -2.8611  -19.8374   20.5551 C.ar    1  UNL1       -0.0003
     16 C          -2.7590  -19.5456   22.0228 C.ar    1  UNL1       -0.0000
     17 C          -3.9655  -19.0748   22.7797 C.ar    1  UNL1       -0.0003
     18 C          -5.2741  -18.8958   22.0688 C.ar    1  UNL1       -0.0043
     19 O          -8.8560  -16.5291   21.5735 O.3     1  UNL1       -0.4727
     20 C          -9.9535  -15.6256   21.0949 C.3     1  UNL1        0.2358
     21 C         -11.3620  -15.8435   21.5626 C.3     1  UNL1        0.1697
     22 O         -11.8552  -15.1577   22.8021 O.3     1  UNL1       -0.3793
     23 H         -12.7795  -15.4047   22.9622 H       1  UNL1        0.2106
     24 C         -12.2772  -16.7472   20.7908 C.3     1  UNL1        0.1021
     25 N         -12.6636  -18.0824   21.3547 N.3     1  UNL1       -0.2953
     26 H         -13.0879  -18.6120   20.5932 H       1  UNL1        0.1233
     27 C         -13.6096  -18.1606   22.5162 C.3     1  UNL1        0.0686
     28 C         -13.9928  -18.4466   25.0699 C.3     1  UNL1        0.0015
     29 C         -13.0777  -18.1511   23.9187 C.3     1  UNL1        0.0171
@<TRIPOS>BOND
     1    28    29    1
     2    29    27    1
     3    27    25    1
     4    25    24    1
     5    24    21    1
     6    21    22    1
     7    21    20    1
     8    20    19    1
     9    19     1    1
    10     1     2   ar
    11     2     3   ar
    12     3     4   ar
    13     4     5    1
    14     4     6   ar
    15     6     7   ar
    16     7     9    1
    17     9    10    2
    18     9    11    1
    19    11    12    1
    20    12    13    1
    21    13    14   ar
    22    14    15   ar
    23    15    16   ar
    24    16    17   ar
    25    17    18   ar
    26     7     1   ar
    27    18    13   ar
    28    25    26    1
    29    22    23    1
    30     5     8    1
@<TRIPOS>MOLECULE
*****
 29 30 0 0 0
SMALL
GASTEIGER

@<TRIPOS>ATOM
      1 C          -8.8463  -17.7141   21.7264 C.ar    1  UNL1        0.1415
      2 C          -9.1236  -16.2403   21.7568 C.ar    1  UNL1        0.0401
      3 C          -8.1721  -15.3122   22.4520 C.ar    1  UNL1        0.0397
      4 C          -6.9432  -15.8579   23.1167 C.ar    1  UNL1        0.1340
      5 O          -5.9917  -14.9299   23.8119 O.3     1  UNL1       -0.5055
      6 C          -6.6659  -17.3317   23.0863 C.ar    1  UNL1        0.0425
      7 C          -7.6174  -18.2598   22.3912 C.ar    1  UNL1        0.0716
      8 H          -6.1650  -14.0092   23.8309 H       1  UNL1        0.2922
      9 C          -7.3400  -19.7337   22.3608 C.2     1  UNL1        0.1764
     10 O          -8.1519  -20.6673   23.2088 O.2     1  UNL1       -0.2912
     11 C          -6.2506  -20.2738   21.4824 C.3     1  UNL1        0.0739
     12 C          -5.6506  -19.4089   20.4139 C.3     1  UNL1        0.0345
     13 C          -4.2032  -19.0219   20.4870 C.ar    1  UNL1       -0.0217
     14 C          -3.4648  -19.1226   21.7888 C.ar    1  UNL1       -0.0043
     15 C          -2.0174  -18.7357   21.8619 C.ar    1  UNL1       -0.0003
     16 C          -1.3084  -18.2480   20.6334 C.ar    1  UNL1       -0.0000
     17 C          -2.0468  -18.1473   19.3315 C.ar    1  UNL1       -0.0003
     18 C          -3.4942  -18.5342   19.2584 C.ar    1  UNL1       -0.0043
     19 O          -9.7978  -18.6421   21.0312 O.3     1  UNL1       -0.4727
     20 C         -10.9451  -19.2441   21.7870 C.3     1  UNL1        0.2358
     21 C         -11.9619  -18.3554   22.4398 C.3     1  UNL1        0.1697
     22 O         -13.0075  -17.6742   21.6075 O.3     1  UNL1       -0.3793
     23 H         -13.5806  -17.1415   22.1807 H       1  UNL1        0.2106
     24 C         -11.9331  -18.1478   23.9252 C.3     1  UNL1        0.1021
     25 N         -11.1724  -19.0989   24.8008 N.3     1  UNL1       -0.2953
     26 H         -11.7896  -19.3443   25.5749 H       1  UNL1        0.1233
     27 C          -9.8652  -18.6796   25.4053 C.3     1  UNL1        0.0686
     28 C          -8.5761  -16.6888   26.4661 C.3     1  UNL1        0.0015
     29 C          -9.4568  -17.2365   25.3822 C.3     1  UNL1        0.0171
@<TRIPOS>BOND
     1    28    29    1
     2    29    27    1
     3    27    25    1
     4    25    24    1
     5    24    21    1
     6    21    22    1
     7    21    20    1
     8    20    19    1
     9    19     1    1
    10     1     2   ar
    11     2     3   ar
    12     3     4   ar
    13     4     5    1
    14     4     6   ar
    15     6     7   ar
    16     7     9    1
    17     9    10    2
    18     9    11    1
    19    11    12    1
    20    12    13    1
    21    13    14   ar
    22    14    15   ar
    23    15    16   ar
    24    16    17   ar
    25    17    18   ar
    26     7     1   ar
    27    18    13   ar
    28    25    26    1
    29    22    23    1
    30     5     8    1
