@<TRIPOS>MOLECULE
*****
 28 30 0 0 0
SMALL
GASTEIGER

@<TRIPOS>ATOM
      1 C          -8.3843  -19.9003   18.9700 C.3     1  UNL1        0.0285
      2 C          -7.8072  -19.7305   20.3441 C.2     1  UNL1       -0.0154
      3 C          -6.3709  -19.9298   20.7280 C.2     1  UNL1       -0.0046
      4 C          -6.2412  -19.6540   22.1968 C.2     1  UNL1        0.0895
      5 N          -7.5972  -19.2842   22.7206 N.2     1  UNL1       -0.2578
      6 C          -8.5651  -19.3314   21.5755 C.3     1  UNL1        0.1970
      7 C         -10.0331  -19.0322   21.6490 C.2     1  UNL1        0.2489
      8 O         -11.0298  -20.0440   21.1667 O.2     1  UNL1       -0.2726
      9 N         -10.5043  -17.7211   22.2048 N.am    1  UNL1       -0.3006
     10 H          -9.8501  -17.0570   22.5214 H       1  UNL1        0.1497
     11 C         -11.9723  -17.4218   22.2784 C.3     1  UNL1        0.0937
     12 C         -12.6277  -16.6120   21.1992 C.3     1  UNL1        0.0259
     13 C         -12.7849  -17.9323   23.4313 C.2     1  UNL1        0.0203
     14 C         -14.2796  -17.8823   23.5471 C.2     1  UNL1        0.1168
     15 N         -14.6639  -18.5015   24.8582 N.2     1  UNL1       -0.1513
     16 N         -13.4067  -18.9342   25.5526 N.2     1  UNL1       -0.1698
     17 C         -12.2454  -18.5824   24.6707 C.3     1  UNL1        0.1745
     18 C          -5.2596  -20.3340   19.8053 C.3     1  UNL1        0.0552
     19 C          -3.9310  -19.6419   19.8830 C.ar    1  UNL1        0.0014
     20 C          -3.6339  -18.4849   18.9759 C.ar    1  UNL1       -0.0009
     21 C          -2.3054  -17.7928   19.0537 C.ar    1  UNL1        0.0228
     22 C          -1.2740  -18.2579   20.0385 C.ar    1  UNL1        0.1526
     23 N          -1.5711  -19.4150   20.9456 N.ar    1  UNL1       -0.2402
     24 C          -2.8996  -20.1070   20.8678 C.ar    1  UNL1        0.0948
     25 C           0.0546  -17.5658   20.1162 C.3     1  UNL1        0.4348
     26 F           1.3831  -16.8738   20.1939 F       1  UNL1       -0.1644
     27 F          -0.6341  -16.2847   20.4825 F       1  UNL1       -0.1644
     28 F           0.7434  -18.8470   19.7499 F       1  UNL1       -0.1644
@<TRIPOS>BOND
     1     1     2    1
     2     2     3    2
     3     3    18    1
     4    18    19    1
     5    19    20   ar
     6    20    21   ar
     7    21    22   ar
     8    22    25    1
     9    25    26    1
    10    25    27    1
    11    25    28    1
    12    22    23   ar
    13    23    24   ar
    14     3     4    1
    15     4     5    2
    16     5     6    1
    17     6     7    1
    18     7     8    2
    19     7     9   am
    20     9    11    1
    21    11    12    1
    22    11    13    1
    23    13    14    2
    24    14    15    1
    25    15    16    2
    26    16    17    1
    27     6     2    1
    28    17    13    1
    29    24    19   ar
    30     9    10    1
@<TRIPOS>MOLECULE
*****
 28 30 0 0 0
SMALL
GASTEIGER

@<TRIPOS>ATOM
      1 C          -8.0822  -17.7872   21.4364 C.3     1  UNL1        0.0285
      2 C          -8.1858  -18.8602   20.3934 C.2     1  UNL1       -0.0154
      3 C          -9.4143  -19.2097   19.6070 C.2     1  UNL1       -0.0046
      4 C          -9.0667  -20.3377   18.6812 C.2     1  UNL1        0.0895
      5 N          -7.6234  -20.6853   18.8955 N.2     1  UNL1       -0.2578
      6 C          -7.0789  -19.7721   19.9537 C.3     1  UNL1        0.1970
      7 C          -5.6742  -19.7711   20.4799 C.2     1  UNL1        0.2489
      8 O          -4.8808  -21.0438   20.5022 O.2     1  UNL1       -0.2726
      9 N          -5.0629  -18.4973   20.9836 N.am    1  UNL1       -0.3006
     10 H          -5.5837  -17.6619   20.9689 H       1  UNL1        0.1497
     11 C          -3.6582  -18.4962   21.5098 C.3     1  UNL1        0.0937
     12 C          -3.4109  -18.5618   22.9877 C.3     1  UNL1        0.0259
     13 C          -2.5009  -18.4295   20.5578 C.2     1  UNL1        0.0203
     14 C          -1.0772  -18.7794   20.8748 C.2     1  UNL1        0.1168
     15 N          -0.2606  -18.5673   19.6346 N.2     1  UNL1       -0.1513
     16 N          -1.1796  -18.0863   18.5511 N.2     1  UNL1       -0.1698
     17 C          -2.5642  -18.0011   19.1217 C.3     1  UNL1        0.1745
     18 C         -10.7550  -18.5476   19.7254 C.3     1  UNL1        0.0552
     19 C         -11.4701  -18.5323   21.0440 C.ar    1  UNL1        0.0014
     20 C         -12.5828  -17.5552   21.2824 C.ar    1  UNL1       -0.0009
     21 C         -13.2979  -17.5400   22.6009 C.ar    1  UNL1        0.0228
     22 C         -12.9001  -18.5020   23.6810 C.ar    1  UNL1        0.1526
     23 N         -11.7874  -19.4791   23.4425 N.ar    1  UNL1       -0.2402
     24 C         -11.0723  -19.4943   22.1240 C.ar    1  UNL1        0.0948
     25 C         -13.6152  -18.4867   24.9995 C.3     1  UNL1        0.4348
     26 F         -14.3303  -18.4715   26.3180 F       1  UNL1       -0.1644
     27 F         -14.8918  -18.1190   24.3030 F       1  UNL1       -0.1644
     28 F         -12.3387  -18.8545   25.6960 F       1  UNL1       -0.1644
@<TRIPOS>BOND
     1     1     2    1
     2     2     3    2
     3     3    18    1
     4    18    19    1
     5    19    20   ar
     6    20    21   ar
     7    21    22   ar
     8    22    25    1
     9    25    26    1
    10    25    27    1
    11    25    28    1
    12    22    23   ar
    13    23    24   ar
    14     3     4    1
    15     4     5    2
    16     5     6    1
    17     6     7    1
    18     7     8    2
    19     7     9   am
    20     9    11    1
    21    11    12    1
    22    11    13    1
    23    13    14    2
    24    14    15    1
    25    15    16    2
    26    16    17    1
    27     6     2    1
    28    17    13    1
    29    24    19   ar
    30     9    10    1
@<TRIPOS>MOLECULE
*****
 28 30 0 0 0
SMALL
GASTEIGER

@<TRIPOS>ATOM
      1 C          -7.4827  -19.4278   18.9783 C.3     1  UNL1        0.0285
      2 C          -7.3082  -19.8343   20.4116 C.2     1  UNL1       -0.0154
      3 C          -6.1233  -20.5522   20.9864 C.2     1  UNL1       -0.0046
      4 C          -6.3708  -20.7559   22.4518 C.2     1  UNL1        0.0895
      5 N          -7.7087  -20.1639   22.7826 N.2     1  UNL1       -0.2578
      6 C          -8.2881  -19.5943   21.5216 C.3     1  UNL1        0.1970
      7 C          -9.6145  -18.9057   21.3933 C.2     1  UNL1        0.2489
      8 O         -10.6146  -19.3864   20.3840 O.2     1  UNL1       -0.2726
      9 N          -9.9407  -17.7363   22.2742 N.am    1  UNL1       -0.3006
     10 H          -9.2843  -17.4208   22.9367 H       1  UNL1        0.1497
     11 C         -11.2671  -17.0475   22.1460 C.3     1  UNL1        0.0937
     12 C         -12.2468  -17.0893   23.2810 C.3     1  UNL1        0.0259
     13 C         -11.6137  -16.3170   20.8825 C.2     1  UNL1        0.0203
     14 C         -12.9793  -16.2121   20.2710 C.2     1  UNL1        0.1168
     15 N         -12.8650  -15.3934   19.0193 N.2     1  UNL1       -0.1513
     16 N         -11.4288  -14.9923   18.8573 N.2     1  UNL1       -0.1698
     17 C         -10.6554  -15.5631   20.0089 C.3     1  UNL1        0.1745
     18 C          -4.9047  -20.9896   20.2289 C.3     1  UNL1        0.0552
     19 C          -3.6848  -20.1171   20.2023 C.ar    1  UNL1        0.0014
     20 C          -3.4401  -19.2055   19.0365 C.ar    1  UNL1       -0.0009
     21 C          -2.2203  -18.3331   19.0099 C.ar    1  UNL1        0.0228
     22 C          -1.2452  -18.3722   20.1490 C.ar    1  UNL1        0.1526
     23 N          -1.4899  -19.2838   21.3148 N.ar    1  UNL1       -0.2402
     24 C          -2.7097  -20.1563   21.3414 C.ar    1  UNL1        0.0948
     25 C          -0.0253  -17.4997   20.1223 C.3     1  UNL1        0.4348
     26 F           1.1945  -16.6272   20.0957 F       1  UNL1       -0.1644
     27 F           0.8148  -18.6854   19.7505 F       1  UNL1       -0.1644
     28 F          -0.8653  -16.3139   20.4942 F       1  UNL1       -0.1644
@<TRIPOS>BOND
     1     1     2    1
     2     2     3    2
     3     3    18    1
     4    18    19    1
     5    19    20   ar
     6    20    21   ar
     7    21    22   ar
     8    22    25    1
     9    25    26    1
    10    25    27    1
    11    25    28    1
    12    22    23   ar
    13    23    24   ar
    14     3     4    1
    15     4     5    2
    16     5     6    1
    17     6     7    1
    18     7     8    2
    19     7     9   am
    20     9    11    1
    21    11    12    1
    22    11    13    1
    23    13    14    2
    24    14    15    1
    25    15    16    2
    26    16    17    1
    27     6     2    1
    28    17    13    1
    29    24    19   ar
    30     9    10    1
@<TRIPOS>MOLECULE
*****
 28 30 0 0 0
SMALL
GASTEIGER

@<TRIPOS>ATOM
      1 C          -6.4758  -18.4264   22.3591 C.3     1  UNL1        0.0285
      2 C          -6.4104  -17.2825   23.3272 C.2     1  UNL1       -0.0154
      3 C          -5.1830  -16.8027   24.0435 C.2     1  UNL1       -0.0046
      4 C          -5.5751  -15.6412   24.9080 C.2     1  UNL1        0.0895
      5 N          -7.0448  -15.4032   24.7260 N.2     1  UNL1       -0.2578
      6 C          -7.5611  -16.4176   23.7490 C.3     1  UNL1        0.1970
      7 C          -8.9791  -16.5448   23.2767 C.2     1  UNL1        0.2489
      8 O          -9.5624  -15.5054   22.3660 O.2     1  UNL1       -0.2726
      9 N          -9.8139  -17.7114   23.7151 N.am    1  UNL1       -0.3006
     10 H          -9.4311  -18.3936   24.3128 H       1  UNL1        0.1497
     11 C         -11.2319  -17.8386   23.2429 C.3     1  UNL1        0.0937
     12 C         -12.2854  -18.3725   24.1676 C.3     1  UNL1        0.0259
     13 C         -11.5964  -17.4320   21.8457 C.2     1  UNL1        0.0203
     14 C         -12.5290  -16.3202   21.4660 C.2     1  UNL1        0.1168
     15 N         -12.6012  -16.2669   19.9687 N.2     1  UNL1       -0.1513
     16 N         -11.7133  -17.3458   19.4231 N.2     1  UNL1       -0.1698
     17 C         -11.0923  -18.0659   20.5832 C.3     1  UNL1        0.1745
     18 C          -3.8054  -17.3825   23.9175 C.3     1  UNL1        0.0552
     19 C          -3.1496  -17.4721   22.5713 C.ar    1  UNL1        0.0014
     20 C          -3.2815  -18.7233   21.7546 C.ar    1  UNL1       -0.0009
     21 C          -2.6257  -18.8128   20.4086 C.ar    1  UNL1        0.0228
     22 C          -1.8381  -17.6512   19.8792 C.ar    1  UNL1        0.1526
     23 N          -1.7062  -16.4000   20.6959 N.ar    1  UNL1       -0.2402
     24 C          -2.3620  -16.3104   22.0420 C.ar    1  UNL1        0.0948
     25 C          -1.1823  -17.7408   18.5331 C.3     1  UNL1        0.4348
     26 F          -0.5266  -17.8304   17.1870 F       1  UNL1       -0.1644
     27 F          -2.4059  -17.1501   17.8976 F       1  UNL1       -0.1644
     28 F           0.0413  -18.3316   19.1685 F       1  UNL1       -0.1644
@<TRIPOS>BOND
     1     1     2    1
     2     2     3    2
     3     3    18    1
     4    18    19    1
     5    19    20   ar
     6    20    21   ar
     7    21    22   ar
     8    22    25    1
     9    25    26    1
    10    25    27    1
    11    25    28    1
    12    22    23   ar
    13    23    24   ar
    14     3     4    1
    15     4     5    2
    16     5     6    1
    17     6     7    1
    18     7     8    2
    19     7     9   am
    20     9    11    1
    21    11    12    1
    22    11    13    1
    23    13    14    2
    24    14    15    1
    25    15    16    2
    26    16    17    1
    27     6     2    1
    28    17    13    1
    29    24    19   ar
    30     9    10    1
@<TRIPOS>MOLECULE
*****
 28 30 0 0 0
SMALL
GASTEIGER

@<TRIPOS>ATOM
      1 C          -6.3540  -18.6367   22.3599 C.3     1  UNL1        0.0285
      2 C          -6.4565  -17.4041   23.2085 C.2     1  UNL1       -0.0154
      3 C          -5.3260  -16.7366   23.9339 C.2     1  UNL1       -0.0046
      4 C          -5.8784  -15.5425   24.6544 C.2     1  UNL1        0.0895
      5 N          -7.3503  -15.4720   24.3742 N.2     1  UNL1       -0.2578
      6 C          -7.7076  -16.6226   23.4806 C.3     1  UNL1        0.1970
      7 C          -9.0758  -16.9365   22.9518 C.2     1  UNL1        0.2489
      8 O          -9.9740  -15.8275   22.4900 O.2     1  UNL1       -0.2726
      9 N          -9.5458  -18.3594   22.8850 N.am    1  UNL1       -0.3006
     10 H          -8.9563  -19.0872   23.1882 H       1  UNL1        0.1497
     11 C         -10.9140  -18.6733   22.3563 C.3     1  UNL1        0.0937
     12 C         -11.0814  -19.1467   20.9429 C.3     1  UNL1        0.0259
     13 C         -12.1147  -18.5139   23.2412 C.2     1  UNL1        0.0203
     14 C         -13.4360  -17.9297   22.8377 C.2     1  UNL1        0.1168
     15 N         -14.3427  -17.9654   24.0321 N.2     1  UNL1       -0.1513
     16 N         -13.5818  -18.5717   25.1738 N.2     1  UNL1       -0.1698
     17 C         -12.2047  -18.9107   24.6850 C.3     1  UNL1        0.1745
     18 C          -3.8945  -17.1845   23.9382 C.3     1  UNL1        0.0552
     19 C          -3.1573  -17.3525   22.6426 C.ar    1  UNL1        0.0014
     20 C          -3.1387  -18.6869   21.9578 C.ar    1  UNL1       -0.0009
     21 C          -2.4015  -18.8548   20.6623 C.ar    1  UNL1        0.0228
     22 C          -1.6830  -17.6883   20.0516 C.ar    1  UNL1        0.1526
     23 N          -1.7016  -16.3539   20.7364 N.ar    1  UNL1       -0.2402
     24 C          -2.4387  -16.1860   22.0319 C.ar    1  UNL1        0.0948
     25 C          -0.9458  -17.8562   18.7560 C.3     1  UNL1        0.4348
     26 F          -0.2087  -18.0242   17.4605 F       1  UNL1       -0.1644
     27 F           0.2330  -18.4118   19.4987 F       1  UNL1       -0.1644
     28 F          -2.1246  -17.3006   18.0133 F       1  UNL1       -0.1644
@<TRIPOS>BOND
     1     1     2    1
     2     2     3    2
     3     3    18    1
     4    18    19    1
     5    19    20   ar
     6    20    21   ar
     7    21    22   ar
     8    22    25    1
     9    25    26    1
    10    25    27    1
    11    25    28    1
    12    22    23   ar
    13    23    24   ar
    14     3     4    1
    15     4     5    2
    16     5     6    1
    17     6     7    1
    18     7     8    2
    19     7     9   am
    20     9    11    1
    21    11    12    1
    22    11    13    1
    23    13    14    2
    24    14    15    1
    25    15    16    2
    26    16    17    1
    27     6     2    1
    28    17    13    1
    29    24    19   ar
    30     9    10    1
@<TRIPOS>MOLECULE
*****
 28 30 0 0 0
SMALL
GASTEIGER

@<TRIPOS>ATOM
      1 C          -6.3288  -18.5732   22.3833 C.3     1  UNL1        0.0285
      2 C          -6.4468  -17.2543   23.0879 C.2     1  UNL1       -0.0154
      3 C          -5.3662  -16.5766   23.8772 C.2     1  UNL1       -0.0046
      4 C          -5.9177  -15.2849   24.4040 C.2     1  UNL1        0.0895
      5 N          -7.3391  -15.1644   23.9404 N.2     1  UNL1       -0.2578
      6 C          -7.6661  -16.3816   23.1270 C.3     1  UNL1        0.1970
      7 C          -8.9815  -16.6745   22.4683 C.2     1  UNL1        0.2489
      8 O          -9.6755  -17.9791   22.7264 O.2     1  UNL1       -0.2726
      9 N          -9.6030  -15.6630   21.5515 N.am    1  UNL1       -0.3006
     10 H          -9.1476  -14.8068   21.3821 H       1  UNL1        0.1497
     11 C         -10.9184  -15.9559   20.8928 C.3     1  UNL1        0.0937
     12 C         -11.1599  -15.5262   19.4761 C.3     1  UNL1        0.0259
     13 C         -11.9924  -16.6784   21.6509 C.2     1  UNL1        0.0203
     14 C         -12.6699  -17.9475   21.2262 C.2     1  UNL1        0.1168
     15 N         -13.6735  -18.3121   22.2796 N.2     1  UNL1       -0.1513
     16 N         -13.6163  -17.2684   23.3554 N.2     1  UNL1       -0.1698
     17 C         -12.5772  -16.2587   22.9668 C.3     1  UNL1        0.1745
     18 C          -3.9779  -17.0987   24.1004 C.3     1  UNL1        0.0552
     19 C          -3.0621  -17.3176   22.9326 C.ar    1  UNL1        0.0014
     20 C          -2.5434  -16.1439   22.1559 C.ar    1  UNL1       -0.0009
     21 C          -1.6277  -16.3628   20.9883 C.ar    1  UNL1        0.0228
     22 C          -1.2307  -17.7555   20.5973 C.ar    1  UNL1        0.1526
     23 N          -1.7493  -18.9292   21.3740 N.ar    1  UNL1       -0.2402
     24 C          -2.6651  -18.7103   22.5416 C.ar    1  UNL1        0.0948
     25 C          -0.3149  -17.9743   19.4295 C.3     1  UNL1        0.4348
     26 F           0.6009  -18.1932   18.2619 F       1  UNL1       -0.1644
     27 F          -1.5013  -18.0673   18.5165 F       1  UNL1       -0.1644
     28 F           0.8715  -17.8814   20.3426 F       1  UNL1       -0.1644
@<TRIPOS>BOND
     1     1     2    1
     2     2     3    2
     3     3    18    1
     4    18    19    1
     5    19    20   ar
     6    20    21   ar
     7    21    22   ar
     8    22    25    1
     9    25    26    1
    10    25    27    1
    11    25    28    1
    12    22    23   ar
    13    23    24   ar
    14     3     4    1
    15     4     5    2
    16     5     6    1
    17     6     7    1
    18     7     8    2
    19     7     9   am
    20     9    11    1
    21    11    12    1
    22    11    13    1
    23    13    14    2
    24    14    15    1
    25    15    16    2
    26    16    17    1
    27     6     2    1
    28    17    13    1
    29    24    19   ar
    30     9    10    1
@<TRIPOS>MOLECULE
*****
 28 30 0 0 0
SMALL
GASTEIGER

@<TRIPOS>ATOM
      1 C          -0.2083    3.3075   17.9714 C.3     1  UNL1        0.0285
      2 C          -0.0631    2.7890   19.3714 C.2     1  UNL1       -0.0154
      3 C           1.1416    2.0946   19.9340 C.2     1  UNL1       -0.0046
      4 C           0.8520    1.7503   21.3649 C.2     1  UNL1        0.0895
      5 N          -0.5317    2.2318   21.6867 N.2     1  UNL1       -0.2578
      6 C          -1.0973    2.8737   20.4546 C.3     1  UNL1        0.1970
      7 C          -2.4581    3.4919   20.3279 C.2     1  UNL1        0.2489
      8 O          -2.5959    4.9166   19.8793 O.2     1  UNL1       -0.2726
      9 N          -3.6812    2.6854   20.6499 N.am    1  UNL1       -0.3006
     10 H          -3.5907    1.7504   20.9444 H       1  UNL1        0.1497
     11 C          -5.0420    3.3035   20.5233 C.3     1  UNL1        0.0937
     12 C          -5.7192    3.3588   19.1861 C.3     1  UNL1        0.0259
     13 C          -5.7257    3.8663   21.7342 C.2     1  UNL1        0.0203
     14 C          -5.3680    3.5785   23.1621 C.2     1  UNL1        0.1168
     15 N          -6.3083    4.3500   24.0400 N.2     1  UNL1       -0.1513
     16 N          -7.2470    5.1146   23.1545 N.2     1  UNL1       -0.1698
     17 C          -6.8870    4.8157   21.7294 C.3     1  UNL1        0.1745
     18 C           2.4127    1.7970   19.1953 C.3     1  UNL1        0.0552
     19 C           2.8752    0.3785   19.0398 C.ar    1  UNL1        0.0014
     20 C           2.6483   -0.6098   20.1451 C.ar    1  UNL1       -0.0009
     21 C           3.1108   -2.0282   19.9895 C.ar    1  UNL1        0.0228
     22 C           3.8001   -2.4583   18.7286 C.ar    1  UNL1        0.1526
     23 N           4.0270   -1.4700   17.6233 N.ar    1  UNL1       -0.2402
     24 C           3.5645   -0.0516   17.7789 C.ar    1  UNL1        0.0948
     25 C           4.2626   -3.8768   18.5730 C.3     1  UNL1        0.4348
     26 F           4.7251   -5.2951   18.4174 F       1  UNL1       -0.1644
     27 F           2.9348   -4.3645   19.0721 F       1  UNL1       -0.1644
     28 F           5.5903   -3.3891   18.0739 F       1  UNL1       -0.1644
@<TRIPOS>BOND
     1     1     2    1
     2     2     3    2
     3     3    18    1
     4    18    19    1
     5    19    20   ar
     6    20    21   ar
     7    21    22   ar
     8    22    25    1
     9    25    26    1
    10    25    27    1
    11    25    28    1
    12    22    23   ar
    13    23    24   ar
    14     3     4    1
    15     4     5    2
    16     5     6    1
    17     6     7    1
    18     7     8    2
    19     7     9   am
    20     9    11    1
    21    11    12    1
    22    11    13    1
    23    13    14    2
    24    14    15    1
    25    15    16    2
    26    16    17    1
    27     6     2    1
    28    17    13    1
    29    24    19   ar
    30     9    10    1
@<TRIPOS>MOLECULE
*****
 28 30 0 0 0
SMALL
GASTEIGER

@<TRIPOS>ATOM
      1 C         -12.6187   -4.9478   16.2950 C.3     1  UNL1        0.0285
      2 C         -11.7514   -5.7169   17.2470 C.2     1  UNL1       -0.0154
      3 C         -10.3881   -5.3105   17.7226 C.2     1  UNL1       -0.0046
      4 C          -9.8894   -6.3699   18.6601 C.2     1  UNL1        0.0895
      5 N         -10.9444   -7.4311   18.7639 N.2     1  UNL1       -0.2578
      6 C         -12.0953   -7.0274   17.8906 C.3     1  UNL1        0.1970
      7 C         -13.3667   -7.7990   17.6951 C.2     1  UNL1        0.2489
      8 O         -13.9767   -7.9058   16.3290 O.2     1  UNL1       -0.2726
      9 N         -14.0282   -8.4637   18.8659 N.am    1  UNL1       -0.3006
     10 H         -13.6278   -8.3935   19.7625 H       1  UNL1        0.1497
     11 C         -15.2996   -9.2352   18.6705 C.3     1  UNL1        0.0937
     12 C         -15.2772  -10.5457   17.9412 C.3     1  UNL1        0.0259
     13 C         -16.5936   -8.6961   19.2047 C.2     1  UNL1        0.0203
     14 C         -17.7651   -9.5115   19.6656 C.2     1  UNL1        0.1168
     15 N         -18.8386   -8.5663   20.1174 N.2     1  UNL1       -0.1513
     16 N         -18.3305   -7.1667   19.9356 N.2     1  UNL1       -0.1698
     17 C         -16.9429   -7.2470   19.3715 C.3     1  UNL1        0.1745
     18 C          -9.6527   -4.0636   17.3296 C.3     1  UNL1        0.0552
     19 C         -10.3624   -2.7421   17.3319 C.ar    1  UNL1        0.0014
     20 C         -11.1108   -2.2947   18.5524 C.ar    1  UNL1       -0.0009
     21 C         -11.8204   -0.9732   18.5546 C.ar    1  UNL1        0.0228
     22 C         -11.7816   -0.0991   17.3362 C.ar    1  UNL1        0.1526
     23 N         -11.0332   -0.5464   16.1157 N.ar    1  UNL1       -0.2402
     24 C         -10.3236   -1.8679   16.1135 C.ar    1  UNL1        0.0948
     25 C         -12.4913    1.2225   17.3385 C.3     1  UNL1        0.4348
     26 F         -13.2009    2.5440   17.3407 F       1  UNL1       -0.1644
     27 F         -11.9234    1.5298   15.9846 F       1  UNL1       -0.1644
     28 F         -13.0591    0.9152   18.6924 F       1  UNL1       -0.1644
@<TRIPOS>BOND
     1     1     2    1
     2     2     3    2
     3     3    18    1
     4    18    19    1
     5    19    20   ar
     6    20    21   ar
     7    21    22   ar
     8    22    25    1
     9    25    26    1
    10    25    27    1
    11    25    28    1
    12    22    23   ar
    13    23    24   ar
    14     3     4    1
    15     4     5    2
    16     5     6    1
    17     6     7    1
    18     7     8    2
    19     7     9   am
    20     9    11    1
    21    11    12    1
    22    11    13    1
    23    13    14    2
    24    14    15    1
    25    15    16    2
    26    16    17    1
    27     6     2    1
    28    17    13    1
    29    24    19   ar
    30     9    10    1
@<TRIPOS>MOLECULE
*****
 28 30 0 0 0
SMALL
GASTEIGER

@<TRIPOS>ATOM
      1 C           8.1333   -0.6406   33.4063 C.3     1  UNL1        0.0285
      2 C           6.7177   -1.1346   33.3631 C.2     1  UNL1       -0.0154
      3 C           5.5246   -0.4445   33.9550 C.2     1  UNL1       -0.0046
      4 C           4.3161   -1.2889   33.6782 C.2     1  UNL1        0.0895
      5 N           4.7623   -2.5009   32.9153 N.2     1  UNL1       -0.2578
      6 C           6.2466   -2.4055   32.7205 C.3     1  UNL1        0.1970
      7 C           7.1085   -3.4055   32.0083 C.2     1  UNL1        0.2489
      8 O           8.5329   -3.0690   31.6800 O.2     1  UNL1       -0.2726
      9 N           6.5459   -4.7419   31.6243 N.am    1  UNL1       -0.3006
     10 H           5.6110   -4.9627   31.8397 H       1  UNL1        0.1497
     11 C           7.4077   -5.7419   30.9120 C.3     1  UNL1        0.0937
     12 C           8.3952   -6.5657   31.6840 C.3     1  UNL1        0.0259
     13 C           7.2818   -5.9180   29.4276 C.2     1  UNL1        0.0203
     14 C           8.0975   -6.8464   28.5776 C.2     1  UNL1        0.1168
     15 N           7.6379   -6.6987   27.1574 N.2     1  UNL1       -0.1513
     16 N           6.5381   -5.6791   27.1297 N.2     1  UNL1       -0.1698
     17 C           6.3180   -5.1966   28.5329 C.3     1  UNL1        0.1745
     18 C           5.5377    0.8607   34.6939 C.3     1  UNL1        0.0552
     19 C           4.5149    1.1308   35.7574 C.ar    1  UNL1        0.0014
     20 C           4.7027    0.5738   37.1374 C.ar    1  UNL1       -0.0009
     21 C           3.6800    0.8439   38.2008 C.ar    1  UNL1        0.0228
     22 C           2.4693    1.6711   37.8843 C.ar    1  UNL1        0.1526
     23 N           2.2815    2.2281   36.5043 N.ar    1  UNL1       -0.2402
     24 C           3.3043    1.9580   35.4409 C.ar    1  UNL1        0.0948
     25 C           1.4465    1.9412   38.9478 C.3     1  UNL1        0.4348
     26 F           0.4238    2.2113   40.0113 F       1  UNL1       -0.1644
     27 F           1.8260    0.6642   39.6372 F       1  UNL1       -0.1644
     28 F           1.0671    3.2182   38.2585 F       1  UNL1       -0.1644
@<TRIPOS>BOND
     1     1     2    1
     2     2     3    2
     3     3    18    1
     4    18    19    1
     5    19    20   ar
     6    20    21   ar
     7    21    22   ar
     8    22    25    1
     9    25    26    1
    10    25    27    1
    11    25    28    1
    12    22    23   ar
    13    23    24   ar
    14     3     4    1
    15     4     5    2
    16     5     6    1
    17     6     7    1
    18     7     8    2
    19     7     9   am
    20     9    11    1
    21    11    12    1
    22    11    13    1
    23    13    14    2
    24    14    15    1
    25    15    16    2
    26    16    17    1
    27     6     2    1
    28    17    13    1
    29    24    19   ar
    30     9    10    1
