@<TRIPOS>MOLECULE
*****
 27 30 0 0 0
SMALL
GASTEIGER

@<TRIPOS>ATOM
      1 C          -6.7522  -19.9858   20.0675 C.2     1  UNL1        0.2459
      2 O          -6.8322  -21.4557   19.7792 O.2     1  UNL1       -0.2701
      3 N          -7.9609  -19.1177   19.8794 N.am    1  UNL1       -0.3005
      4 H          -7.9084  -18.1530   20.0687 H       1  UNL1        0.1497
      5 N           0.5219  -17.0346   20.0343 N.pl3   1  UNL1       -0.3375
      6 C          -0.8575  -17.5479   20.3239 C.ar    1  UNL1        0.1567
      7 N          -1.5159  -17.5953   21.6709 N.ar    1  UNL1       -0.2245
      8 C          -2.8859  -18.1806   21.4969 C.ar    1  UNL1        0.0892
      9 C          -3.9863  -18.4680   22.4749 C.ar    1  UNL1        0.0198
     10 C          -5.2750  -19.0697   21.9985 C.ar    1  UNL1        0.0061
     11 C          -5.4634  -19.3841   20.5439 C.ar    1  UNL1        0.0539
     12 C          -4.3631  -19.0967   19.5659 C.ar    1  UNL1        0.0126
     13 C          -3.0743  -18.4950   20.0423 C.ar    1  UNL1        0.0498
     14 S          -1.8207  -18.1040   19.3174 S.2     1  UNL1       -0.0520
     15 H           1.0816  -16.6875   20.7660 H       1  UNL1        0.1442
     16 H           0.8675  -17.0449   19.1125 H       1  UNL1        0.1442
     17 C          -9.2497  -19.7195   19.4030 C.3     1  UNL1        0.0944
     18 C         -10.5177  -18.9203   19.4622 C.3     1  UNL1        0.0492
     19 C         -11.1234  -18.5720   20.7894 C.2     1  UNL1       -0.0002
     20 C         -12.2693  -17.6309   21.0160 C.2     1  UNL1        0.0942
     21 N         -12.5437  -17.5809   22.4898 N.2     1  UNL1       -0.2482
     22 C         -11.5673  -18.4912   23.1742 C.2     1  UNL1        0.0631
     23 C         -11.3642  -18.8414   24.6186 C.3     1  UNL1        0.0717
     24 C         -10.2833  -19.8041   25.0120 C.2     1  UNL1       -0.0198
     25 C          -9.4055  -20.4167   23.9611 C.2     1  UNL1       -0.0042
     26 C          -9.6087  -20.0664   22.5168 C.2     1  UNL1        0.0006
     27 C         -10.6896  -19.1037   22.1233 C.2     1  UNL1        0.0115
@<TRIPOS>BOND
     1     5     6    1
     2     6     7   ar
     3     7     8   ar
     4     8     9   ar
     5     9    10   ar
     6    10    11   ar
     7    11     1    1
     8     1     2    2
     9     1     3   am
    10     3    17    1
    11    17    18    1
    12    18    19    1
    13    19    20    2
    14    20    21    1
    15    21    22    2
    16    22    23    1
    17    23    24    1
    18    24    25    2
    19    25    26    1
    20    26    27    2
    21    11    12   ar
    22    12    13   ar
    23    13    14   ar
    24    14     6   ar
    25    13     8   ar
    26    27    19    1
    27    27    22    1
    28     5    15    1
    29     5    16    1
    30     3     4    1
@<TRIPOS>MOLECULE
*****
 27 30 0 0 0
SMALL
GASTEIGER

@<TRIPOS>ATOM
      1 C          -7.2117  -19.5326   21.0719 C.2     1  UNL1        0.2459
      2 O          -7.9241  -20.2177   22.2003 O.2     1  UNL1       -0.2701
      3 N          -7.9787  -19.0821   19.8642 N.am    1  UNL1       -0.3005
      4 H          -7.5111  -18.6325   19.1236 H       1  UNL1        0.1497
      5 N           0.1650  -17.8738   18.9611 N.pl3   1  UNL1       -0.3375
      6 C          -1.1325  -18.2233   19.6277 C.ar    1  UNL1        0.1567
      7 N          -1.3196  -18.5389   21.0821 N.ar    1  UNL1       -0.2245
      8 C          -2.7734  -18.8291   21.3102 C.ar    1  UNL1        0.0892
      9 C          -3.5413  -19.1999   22.5442 C.ar    1  UNL1        0.0198
     10 C          -5.0207  -19.4344   22.4648 C.ar    1  UNL1        0.0061
     11 C          -5.7322  -19.2981   21.1513 C.ar    1  UNL1        0.0539
     12 C          -4.9643  -18.9274   19.9173 C.ar    1  UNL1        0.0126
     13 C          -3.4849  -18.6929   19.9968 C.ar    1  UNL1        0.0498
     14 S          -2.4708  -18.3184   18.9569 S.2     1  UNL1       -0.0520
     15 H           0.9952  -17.8366   19.4889 H       1  UNL1        0.1442
     16 H           0.1864  -17.6817   17.9957 H       1  UNL1        0.1442
     17 C          -9.4582  -19.3166   19.7848 C.3     1  UNL1        0.0944
     18 C         -10.4095  -18.3028   20.3479 C.3     1  UNL1        0.0492
     19 C         -10.4285  -18.0302   21.8228 C.2     1  UNL1       -0.0002
     20 C         -11.3627  -18.6466   22.8214 C.2     1  UNL1        0.0942
     21 N         -11.0281  -18.0906   24.1738 N.2     1  UNL1       -0.2482
     22 C          -9.8871  -17.1306   24.0110 C.2     1  UNL1        0.0631
     23 C          -9.1376  -16.2856   24.9981 C.3     1  UNL1        0.0717
     24 C          -8.0177  -15.4033   24.5322 C.2     1  UNL1       -0.0198
     25 C          -7.6470  -15.3659   23.0791 C.2     1  UNL1       -0.0042
     26 C          -8.3965  -16.2109   22.0921 C.2     1  UNL1        0.0006
     27 C          -9.5165  -17.0933   22.5579 C.2     1  UNL1        0.0115
@<TRIPOS>BOND
     1     5     6    1
     2     6     7   ar
     3     7     8   ar
     4     8     9   ar
     5     9    10   ar
     6    10    11   ar
     7    11     1    1
     8     1     2    2
     9     1     3   am
    10     3    17    1
    11    17    18    1
    12    18    19    1
    13    19    20    2
    14    20    21    1
    15    21    22    2
    16    22    23    1
    17    23    24    1
    18    24    25    2
    19    25    26    1
    20    26    27    2
    21    11    12   ar
    22    12    13   ar
    23    13    14   ar
    24    14     6   ar
    25    13     8   ar
    26    27    19    1
    27    27    22    1
    28     5    15    1
    29     5    16    1
    30     3     4    1
@<TRIPOS>MOLECULE
*****
 27 30 0 0 0
SMALL
GASTEIGER

@<TRIPOS>ATOM
      1 C          -5.3731  -16.3237   24.1937 C.2     1  UNL1        0.2459
      2 O          -4.9280  -15.9358   25.5725 O.2     1  UNL1       -0.2701
      3 N          -6.7460  -15.9529   23.7166 N.am    1  UNL1       -0.3005
      4 H          -7.0382  -16.2076   22.8116 H       1  UNL1        0.1497
      5 N           0.4552  -17.9136   19.1810 N.pl3   1  UNL1       -0.3375
      6 C          -0.7116  -17.8924   20.1235 C.ar    1  UNL1        0.1567
      7 N          -1.5311  -19.0781   20.5389 N.ar    1  UNL1       -0.2245
      8 C          -2.5897  -18.6003   21.4882 C.ar    1  UNL1        0.0892
      9 C          -3.6827  -19.3224   22.2187 C.ar    1  UNL1        0.0198
     10 C          -4.6105  -18.5636   23.1205 C.ar    1  UNL1        0.0061
     11 C          -4.4453  -17.0826   23.2918 C.ar    1  UNL1        0.0539
     12 C          -3.3522  -16.3604   22.5612 C.ar    1  UNL1        0.0126
     13 C          -2.4245  -17.1193   21.6594 C.ar    1  UNL1        0.0498
     14 S          -1.2637  -16.6818   20.8160 S.2     1  UNL1       -0.0520
     15 H           0.7441  -18.7623   18.7744 H       1  UNL1        0.1442
     16 H           0.9320  -17.0787   18.9690 H       1  UNL1        0.1442
     17 C          -7.6739  -15.1941   24.6185 C.3     1  UNL1        0.0944
     18 C          -9.1094  -15.6116   24.7403 C.3     1  UNL1        0.0492
     19 C          -9.4827  -17.0590   24.6154 C.2     1  UNL1       -0.0002
     20 C          -9.4340  -18.0801   25.7132 C.2     1  UNL1        0.0942
     21 N          -9.8914  -19.3916   25.1470 N.2     1  UNL1       -0.2482
     22 C         -10.2227  -19.1812   23.6992 C.2     1  UNL1        0.0631
     23 C         -10.7218  -20.1160   22.6376 C.3     1  UNL1        0.0717
     24 C         -10.9683  -19.6093   21.2476 C.2     1  UNL1       -0.0198
     25 C         -10.7157  -18.1676   20.9190 C.2     1  UNL1       -0.0042
     26 C         -10.2166  -17.2328   21.9806 C.2     1  UNL1        0.0006
     27 C          -9.9701  -17.7395   23.3707 C.2     1  UNL1        0.0115
@<TRIPOS>BOND
     1     5     6    1
     2     6     7   ar
     3     7     8   ar
     4     8     9   ar
     5     9    10   ar
     6    10    11   ar
     7    11     1    1
     8     1     2    2
     9     1     3   am
    10     3    17    1
    11    17    18    1
    12    18    19    1
    13    19    20    2
    14    20    21    1
    15    21    22    2
    16    22    23    1
    17    23    24    1
    18    24    25    2
    19    25    26    1
    20    26    27    2
    21    11    12   ar
    22    12    13   ar
    23    13    14   ar
    24    14     6   ar
    25    13     8   ar
    26    27    19    1
    27    27    22    1
    28     5    15    1
    29     5    16    1
    30     3     4    1
@<TRIPOS>MOLECULE
*****
 27 30 0 0 0
SMALL
GASTEIGER

@<TRIPOS>ATOM
      1 C          -8.0374  -18.7170   21.4574 C.2     1  UNL1        0.2459
      2 O          -7.2156  -17.6047   20.8764 O.2     1  UNL1       -0.2701
      3 N          -7.4204  -20.0650   21.6859 N.am    1  UNL1       -0.3005
      4 H          -7.9597  -20.7950   22.0673 H       1  UNL1        0.1497
      5 N         -14.7179  -18.4045   25.5679 N.pl3   1  UNL1       -0.3375
      6 C         -13.6010  -18.3578   24.5677 C.ar    1  UNL1        0.1567
      7 N         -13.7075  -17.8835   23.1487 N.ar    1  UNL1       -0.2245
      8 C         -12.3538  -18.0098   22.5149 C.ar    1  UNL1        0.0892
      9 C         -11.8581  -17.6932   21.1351 C.ar    1  UNL1        0.0198
     10 C         -10.4193  -17.9289   20.7826 C.ar    1  UNL1        0.0061
     11 C          -9.4763  -18.4813   21.8100 C.ar    1  UNL1        0.0539
     12 C          -9.9719  -18.7979   23.1898 C.ar    1  UNL1        0.0126
     13 C         -11.4107  -18.5621   23.5423 C.ar    1  UNL1        0.0498
     14 S         -12.1816  -18.7772   24.8110 S.2     1  UNL1       -0.0520
     15 H         -15.6205  -18.1059   25.3122 H       1  UNL1        0.1442
     16 H         -14.5484  -18.7338   26.4801 H       1  UNL1        0.1442
     17 C          -5.9815  -20.3007   21.3334 C.3     1  UNL1        0.0944
     18 C          -4.9083  -20.0404   22.3484 C.3     1  UNL1        0.0492
     19 C          -4.2038  -18.7164   22.3723 C.2     1  UNL1       -0.0002
     20 C          -4.5781  -17.5336   23.2155 C.2     1  UNL1        0.0942
     21 N          -3.6069  -16.4288   22.9215 N.2     1  UNL1       -0.2482
     22 C          -2.6325  -16.9289   21.8965 C.2     1  UNL1        0.0631
     23 C          -1.4568  -16.2795   21.2284 C.3     1  UNL1        0.0717
     24 C          -0.6502  -17.0438   20.2210 C.2     1  UNL1       -0.0198
     25 C          -1.0191  -18.4577   19.8816 C.2     1  UNL1       -0.0042
     26 C          -2.1946  -19.1070   20.5497 C.2     1  UNL1        0.0006
     27 C          -3.0014  -18.3427   21.5572 C.2     1  UNL1        0.0115
@<TRIPOS>BOND
     1     5     6    1
     2     6     7   ar
     3     7     8   ar
     4     8     9   ar
     5     9    10   ar
     6    10    11   ar
     7    11     1    1
     8     1     2    2
     9     1     3   am
    10     3    17    1
    11    17    18    1
    12    18    19    1
    13    19    20    2
    14    20    21    1
    15    21    22    2
    16    22    23    1
    17    23    24    1
    18    24    25    2
    19    25    26    1
    20    26    27    2
    21    11    12   ar
    22    12    13   ar
    23    13    14   ar
    24    14     6   ar
    25    13     8   ar
    26    27    19    1
    27    27    22    1
    28     5    15    1
    29     5    16    1
    30     3     4    1
@<TRIPOS>MOLECULE
*****
 27 30 0 0 0
SMALL
GASTEIGER

@<TRIPOS>ATOM
      1 C          -7.4388  -19.4603   20.9311 C.2     1  UNL1        0.2459
      2 O          -6.9512  -18.1815   20.3171 O.2     1  UNL1       -0.2701
      3 N          -6.8088  -20.7656   20.5448 N.am    1  UNL1       -0.3005
      4 H          -7.1288  -21.6049   20.9478 H       1  UNL1        0.1497
      5 N         -14.3119  -17.7983   24.3401 N.pl3   1  UNL1       -0.3375
      6 C         -12.9496  -18.2708   23.9265 C.ar    1  UNL1        0.1567
      7 N         -12.0482  -19.1676   24.7222 N.ar    1  UNL1       -0.2245
      8 C         -10.7911  -19.3805   23.9320 C.ar    1  UNL1        0.0892
      9 C          -9.5492  -20.1723   24.2158 C.ar    1  UNL1        0.0198
     10 C          -8.4318  -20.1989   23.2155 C.ar    1  UNL1        0.0061
     11 C          -8.5563  -19.4337   21.9314 C.ar    1  UNL1        0.0539
     12 C          -9.7982  -18.6419   21.6476 C.ar    1  UNL1        0.0126
     13 C         -10.9156  -18.6153   22.6479 C.ar    1  UNL1        0.0498
     14 S         -12.2497  -17.9295   22.6445 S.2     1  UNL1       -0.0520
     15 H         -14.6881  -18.0782   25.2058 H       1  UNL1        0.1442
     16 H         -14.8297  -17.2083   23.7460 H       1  UNL1        0.1442
     17 C          -5.6913  -20.7922   19.5445 C.3     1  UNL1        0.0944
     18 C          -4.2672  -20.8479   20.0123 C.3     1  UNL1        0.0492
     19 C          -3.4701  -19.5838   20.1406 C.2     1  UNL1       -0.0002
     20 C          -2.4830  -19.0585   19.1407 C.2     1  UNL1        0.0942
     21 N          -1.9229  -17.7730   19.6735 N.2     1  UNL1       -0.2482
     22 C          -2.5638  -17.5039   21.0028 C.2     1  UNL1        0.0631
     23 C          -2.4003  -16.3843   21.9877 C.3     1  UNL1        0.0717
     24 C          -3.1929  -16.3838   23.2611 C.2     1  UNL1       -0.0198
     25 C          -4.1491  -17.5029   23.5498 C.2     1  UNL1       -0.0042
     26 C          -4.3127  -18.6224   22.5649 C.2     1  UNL1        0.0006
     27 C          -3.5200  -18.6230   21.2914 C.2     1  UNL1        0.0115
@<TRIPOS>BOND
     1     5     6    1
     2     6     7   ar
     3     7     8   ar
     4     8     9   ar
     5     9    10   ar
     6    10    11   ar
     7    11     1    1
     8     1     2    2
     9     1     3   am
    10     3    17    1
    11    17    18    1
    12    18    19    1
    13    19    20    2
    14    20    21    1
    15    21    22    2
    16    22    23    1
    17    23    24    1
    18    24    25    2
    19    25    26    1
    20    26    27    2
    21    11    12   ar
    22    12    13   ar
    23    13    14   ar
    24    14     6   ar
    25    13     8   ar
    26    27    19    1
    27    27    22    1
    28     5    15    1
    29     5    16    1
    30     3     4    1
@<TRIPOS>MOLECULE
*****
 27 30 0 0 0
SMALL
GASTEIGER

@<TRIPOS>ATOM
      1 C         -14.4772   -4.5280   19.4925 C.2     1  UNL1        0.2459
      2 O         -14.1819   -4.1448   20.9124 O.2     1  UNL1       -0.2701
      3 N         -14.6180   -3.4658   18.4428 N.am    1  UNL1       -0.3005
      4 H         -14.8118   -3.7173   17.5109 H       1  UNL1        0.1497
      5 N         -17.5102  -11.7382   18.8311 N.pl3   1  UNL1       -0.3375
      6 C         -16.7101  -10.4696   18.8079 C.ar    1  UNL1        0.1567
      7 N         -15.3685  -10.2849   18.1629 N.ar    1  UNL1       -0.2245
      8 C         -14.9404   -8.8641   18.3820 C.ar    1  UNL1        0.0892
      9 C         -13.7090   -8.1123   17.9717 C.ar    1  UNL1        0.0198
     10 C         -13.5546   -6.6669   18.3419 C.ar    1  UNL1        0.0061
     11 C         -14.6316   -5.9734   19.1223 C.ar    1  UNL1        0.0539
     12 C         -15.8630   -6.7253   19.5327 C.ar    1  UNL1        0.0126
     13 C         -16.0174   -8.1706   19.1625 C.ar    1  UNL1        0.0498
     14 S         -17.1111   -9.1628   19.4257 S.2     1  UNL1       -0.0520
     15 H         -17.1606  -12.5487   18.3951 H       1  UNL1        0.1442
     16 H         -18.3849  -11.7603   19.2824 H       1  UNL1        0.1442
     17 C         -14.4636   -2.0204   18.8130 C.3     1  UNL1        0.0944
     18 C         -13.0943   -1.4291   18.9722 C.3     1  UNL1        0.0492
     19 C         -12.0363   -1.7000   17.9441 C.2     1  UNL1       -0.0002
     20 C         -11.6948   -0.8209   16.7776 C.2     1  UNL1        0.0942
     21 N         -10.5814   -1.4751   16.0145 N.2     1  UNL1       -0.2482
     22 C         -10.2347   -2.7585   16.7094 C.2     1  UNL1        0.0631
     23 C          -9.2164   -3.8186   16.4102 C.3     1  UNL1        0.0717
     24 C          -9.0974   -5.0175   17.3036 C.2     1  UNL1       -0.0198
     25 C          -9.9966   -5.1566   18.4962 C.2     1  UNL1       -0.0042
     26 C         -11.0148   -4.0965   18.7953 C.2     1  UNL1        0.0006
     27 C         -11.1339   -2.8974   17.9019 C.2     1  UNL1        0.0115
@<TRIPOS>BOND
     1     5     6    1
     2     6     7   ar
     3     7     8   ar
     4     8     9   ar
     5     9    10   ar
     6    10    11   ar
     7    11     1    1
     8     1     2    2
     9     1     3   am
    10     3    17    1
    11    17    18    1
    12    18    19    1
    13    19    20    2
    14    20    21    1
    15    21    22    2
    16    22    23    1
    17    23    24    1
    18    24    25    2
    19    25    26    1
    20    26    27    2
    21    11    12   ar
    22    12    13   ar
    23    13    14   ar
    24    14     6   ar
    25    13     8   ar
    26    27    19    1
    27    27    22    1
    28     5    15    1
    29     5    16    1
    30     3     4    1
@<TRIPOS>MOLECULE
*****
 27 30 0 0 0
SMALL
GASTEIGER

@<TRIPOS>ATOM
      1 C         -12.8427   -7.3581   18.0054 C.2     1  UNL1        0.2459
      2 O         -12.4496   -6.9461   16.6177 O.2     1  UNL1       -0.2701
      3 N         -11.7863   -7.6192   19.0378 N.am    1  UNL1       -0.3005
      4 H         -12.0443   -7.8896   19.9486 H       1  UNL1        0.1497
      5 N         -19.9921  -10.4889   18.8467 N.pl3   1  UNL1       -0.3375
      6 C         -18.7438   -9.6581   18.8083 C.ar    1  UNL1        0.1567
      7 N         -18.6060   -8.2501   19.3067 N.ar    1  UNL1       -0.2245
      8 C         -17.1911   -7.8112   19.0712 C.ar    1  UNL1        0.0892
      9 C         -16.4784   -6.5234   19.3599 C.ar    1  UNL1        0.0198
     10 C         -15.0290   -6.3723   19.0046 C.ar    1  UNL1        0.0061
     11 C         -14.2922   -7.5092   18.3606 C.ar    1  UNL1        0.0539
     12 C         -15.0049   -8.7971   18.0719 C.ar    1  UNL1        0.0126
     13 C         -16.4544   -8.9481   18.4272 C.ar    1  UNL1        0.0498
     14 S         -17.4140  -10.0895   18.2647 S.2     1  UNL1       -0.0520
     15 H         -20.8205  -10.1153   19.2254 H       1  UNL1        0.1442
     16 H         -19.9830  -11.4077   18.4933 H       1  UNL1        0.1442
     17 C         -10.3368   -7.4681   18.6825 C.3     1  UNL1        0.0944
     18 C          -9.6176   -6.1892   18.9941 C.3     1  UNL1        0.0492
     19 C          -9.9211   -4.9477   18.2090 C.2     1  UNL1       -0.0002
     20 C          -9.1450   -4.4375   17.0311 C.2     1  UNL1        0.0942
     21 N          -9.7983   -3.1728   16.5581 N.2     1  UNL1       -0.2482
     22 C         -10.9782   -2.9014   17.4436 C.2     1  UNL1        0.0631
     23 C         -11.9934   -1.7970   17.4528 C.3     1  UNL1        0.0717
     24 C         -13.0843   -1.7896   18.4821 C.2     1  UNL1       -0.0198
     25 C         -13.1603   -2.8866   19.5024 C.2     1  UNL1       -0.0042
     26 C         -12.1452   -3.9909   19.4933 C.2     1  UNL1        0.0006
     27 C         -11.0541   -3.9983   18.4639 C.2     1  UNL1        0.0115
@<TRIPOS>BOND
     1     5     6    1
     2     6     7   ar
     3     7     8   ar
     4     8     9   ar
     5     9    10   ar
     6    10    11   ar
     7    11     1    1
     8     1     2    2
     9     1     3   am
    10     3    17    1
    11    17    18    1
    12    18    19    1
    13    19    20    2
    14    20    21    1
    15    21    22    2
    16    22    23    1
    17    23    24    1
    18    24    25    2
    19    25    26    1
    20    26    27    2
    21    11    12   ar
    22    12    13   ar
    23    13    14   ar
    24    14     6   ar
    25    13     8   ar
    26    27    19    1
    27    27    22    1
    28     5    15    1
    29     5    16    1
    30     3     4    1
@<TRIPOS>MOLECULE
*****
 27 30 0 0 0
SMALL
GASTEIGER

@<TRIPOS>ATOM
      1 C          -6.9588  -16.1443   23.9694 C.2     1  UNL1        0.2459
      2 O          -6.7517  -15.5220   25.3184 O.2     1  UNL1       -0.2701
      3 N          -5.7762  -16.5612   23.1463 N.am    1  UNL1       -0.3005
      4 H          -5.9121  -16.9696   22.2609 H       1  UNL1        0.1497
      5 N         -14.4425  -18.4630   23.4780 N.pl3   1  UNL1       -0.3375
      6 C         -13.0608  -17.9026   23.3134 C.ar    1  UNL1        0.1567
      7 N         -12.5613  -17.1202   22.1352 N.ar    1  UNL1       -0.2245
      8 C         -11.1279  -16.7603   22.3917 C.ar    1  UNL1        0.0892
      9 C         -10.1246  -15.9950   21.5808 C.ar    1  UNL1        0.0198
     10 C          -8.7349  -15.7897   22.1067 C.ar    1  UNL1        0.0061
     11 C          -8.3486  -16.3496   23.4435 C.ar    1  UNL1        0.0539
     12 C          -9.3519  -17.1149   24.2545 C.ar    1  UNL1        0.0126
     13 C         -10.7415  -17.3202   23.7286 C.ar    1  UNL1        0.0498
     14 S         -11.9361  -18.0262   24.2982 S.2     1  UNL1       -0.0520
     15 H         -15.1155  -18.3286   22.7722 H       1  UNL1        0.1442
     16 H         -14.6762  -18.9652   24.2919 H       1  UNL1        0.1442
     17 C          -4.3864  -16.3558   23.6721 C.3     1  UNL1        0.0944
     18 C          -3.4560  -17.5244   23.8088 C.3     1  UNL1        0.0492
     19 C          -3.1475  -18.3808   22.6166 C.2     1  UNL1       -0.0002
     20 C          -1.8147  -18.5022   21.9393 C.2     1  UNL1        0.0942
     21 N          -1.9612  -19.4627   20.7965 N.2     1  UNL1       -0.2482
     22 C          -3.3846  -19.9350   20.7676 C.2     1  UNL1        0.0631
     23 C          -4.1079  -20.8876   19.8623 C.3     1  UNL1        0.0717
     24 C          -5.5643  -21.1714   20.0818 C.2     1  UNL1       -0.0198
     25 C          -6.2975  -20.5028   21.2067 C.2     1  UNL1       -0.0042
     26 C          -5.5743  -19.5503   22.1120 C.2     1  UNL1        0.0006
     27 C          -4.1178  -19.2663   21.8925 C.2     1  UNL1        0.0115
@<TRIPOS>BOND
     1     5     6    1
     2     6     7   ar
     3     7     8   ar
     4     8     9   ar
     5     9    10   ar
     6    10    11   ar
     7    11     1    1
     8     1     2    2
     9     1     3   am
    10     3    17    1
    11    17    18    1
    12    18    19    1
    13    19    20    2
    14    20    21    1
    15    21    22    2
    16    22    23    1
    17    23    24    1
    18    24    25    2
    19    25    26    1
    20    26    27    2
    21    11    12   ar
    22    12    13   ar
    23    13    14   ar
    24    14     6   ar
    25    13     8   ar
    26    27    19    1
    27    27    22    1
    28     5    15    1
    29     5    16    1
    30     3     4    1
@<TRIPOS>MOLECULE
*****
 27 30 0 0 0
SMALL
GASTEIGER

@<TRIPOS>ATOM
      1 C         -14.3357   -4.4735   18.8406 C.2     1  UNL1        0.2459
      2 O         -13.5259   -3.9766   20.0013 O.2     1  UNL1       -0.2701
      3 N         -14.2057   -3.8155   17.4990 N.am    1  UNL1       -0.3005
      4 H         -14.7372   -4.1416   16.7371 H       1  UNL1        0.1497
      5 N         -17.1529  -11.7992   18.9829 N.pl3   1  UNL1       -0.3375
      6 C         -16.8776  -10.3261   19.0474 C.ar    1  UNL1        0.1567
      7 N         -17.8505   -9.2649   19.4684 N.ar    1  UNL1       -0.2245
      8 C         -17.1551   -7.9385   19.3834 C.ar    1  UNL1        0.0892
      9 C         -17.6180   -6.5421   19.6760 C.ar    1  UNL1        0.0198
     10 C         -16.6782   -5.3871   19.4950 C.ar    1  UNL1        0.0061
     11 C         -15.2755   -5.6286   19.0215 C.ar    1  UNL1        0.0539
     12 C         -14.8127   -7.0250   18.7289 C.ar    1  UNL1        0.0126
     13 C         -15.7525   -8.1800   18.9098 C.ar    1  UNL1        0.0498
     14 S         -15.5810   -9.6556   18.7022 S.2     1  UNL1       -0.0520
     15 H         -18.0406  -12.1454   19.2309 H       1  UNL1        0.1442
     16 H         -16.4460  -12.4199   18.6925 H       1  UNL1        0.1442
     17 C         -13.2659   -2.6604   17.3180 C.3     1  UNL1        0.0944
     18 C         -11.8398   -2.9083   16.9247 C.3     1  UNL1        0.0492
     19 C         -11.0008   -3.8700   17.7128 C.2     1  UNL1       -0.0002
     20 C         -10.0803   -3.5160   18.8431 C.2     1  UNL1        0.0942
     21 N          -9.4456   -4.7818   19.3379 N.2     1  UNL1       -0.2482
     22 C          -9.9738   -5.9182   18.5134 C.2     1  UNL1        0.0631
     23 C          -9.7037   -7.3933   18.5475 C.3     1  UNL1        0.0717
     24 C         -10.3948   -8.3049   17.5773 C.2     1  UNL1       -0.0198
     25 C         -11.3560   -7.7414   16.5729 C.2     1  UNL1       -0.0042
     26 C         -11.6260   -6.2663   16.5389 C.2     1  UNL1        0.0006
     27 C         -10.9349   -5.3547   17.5091 C.2     1  UNL1        0.0115
@<TRIPOS>BOND
     1     5     6    1
     2     6     7   ar
     3     7     8   ar
     4     8     9   ar
     5     9    10   ar
     6    10    11   ar
     7    11     1    1
     8     1     2    2
     9     1     3   am
    10     3    17    1
    11    17    18    1
    12    18    19    1
    13    19    20    2
    14    20    21    1
    15    21    22    2
    16    22    23    1
    17    23    24    1
    18    24    25    2
    19    25    26    1
    20    26    27    2
    21    11    12   ar
    22    12    13   ar
    23    13    14   ar
    24    14     6   ar
    25    13     8   ar
    26    27    19    1
    27    27    22    1
    28     5    15    1
    29     5    16    1
    30     3     4    1
