@<TRIPOS>MOLECULE
*****
 26 30 0 0 0
SMALL
GASTEIGER

@<TRIPOS>ATOM
      1 O         -12.5300  -16.7861   20.4109 O.2     1  UNL1       -0.2501
      2 C         -11.4241  -17.7980   20.4658 C.2     1  UNL1        0.3169
      3 O         -11.0154  -18.7186   19.3543 O.3     1  UNL1       -0.4485
      4 C          -9.8714  -19.5565   19.8434 C.3     1  UNL1        0.2092
      5 C          -9.5731  -19.1538   21.2572 C.3     1  UNL1        0.0591
      6 C         -10.5327  -18.0670   21.6419 C.3     1  UNL1        0.1073
      7 C          -8.5030  -19.7357   22.1325 C.3     1  UNL1        0.0307
      8 C          -7.0688  -19.6891   21.6955 C.ar    1  UNL1       -0.0188
      9 C          -6.5593  -20.6766   20.6879 C.ar    1  UNL1       -0.0009
     10 C          -5.1251  -20.6300   20.2509 C.ar    1  UNL1        0.0399
     11 C          -4.2005  -19.5959   20.8215 C.ar    1  UNL1        0.1764
     12 C          -4.7099  -18.6084   21.8291 C.ar    1  UNL1        0.1761
     13 C          -6.1441  -18.6550   22.2662 C.ar    1  UNL1        0.0359
     14 O          -3.5721  -17.7098   22.2139 O.3     1  UNL1       -0.4346
     15 C          -2.3595  -18.1420   21.4440 C.3     1  UNL1        0.4294
     16 O          -2.7478  -19.3076   20.5835 O.3     1  UNL1       -0.4346
     17 C         -10.5907  -17.3713   22.9695 C.3     1  UNL1        0.0377
     18 C          -9.3771  -16.6682   23.5015 C.ar    1  UNL1       -0.0184
     19 C          -8.4957  -15.8867   22.5728 C.ar    1  UNL1       -0.0009
     20 C          -7.2822  -15.1837   23.1048 C.ar    1  UNL1        0.0399
     21 C          -6.9500  -15.2622   24.5654 C.ar    1  UNL1        0.1764
     22 C          -7.8313  -16.0437   25.4941 C.ar    1  UNL1        0.1761
     23 C          -9.0448  -16.7467   24.9621 C.ar    1  UNL1        0.0359
     24 O          -7.2548  -15.9423   26.8752 O.3     1  UNL1       -0.4346
     25 C          -6.0172  -15.0981   26.8001 C.3     1  UNL1        0.4294
     26 O          -5.8288  -14.6777   25.3725 O.3     1  UNL1       -0.4346
@<TRIPOS>BOND
     1     1     2    2
     2     2     3    1
     3     3     4    1
     4     4     5    1
     5     5     7    1
     6     7     8    1
     7     8     9   ar
     8     9    10   ar
     9    10    11   ar
    10    11    12   ar
    11    12    13   ar
    12    12    14    1
    13    14    15    1
    14    15    16    1
    15     5     6    1
    16     6    17    1
    17    17    18    1
    18    18    19   ar
    19    19    20   ar
    20    20    21   ar
    21    21    22   ar
    22    22    23   ar
    23    22    24    1
    24    24    25    1
    25    25    26    1
    26     6     2    1
    27    23    18   ar
    28    13     8   ar
    29    26    21    1
    30    16    11    1
@<TRIPOS>MOLECULE
*****
 26 30 0 0 0
SMALL
GASTEIGER

@<TRIPOS>ATOM
      1 O          -9.5402  -20.2435   18.8862 O.2     1  UNL1       -0.2501
      2 C         -10.1361  -19.1878   19.7695 C.2     1  UNL1        0.3169
      3 O         -11.1800  -18.1882   19.3679 O.3     1  UNL1       -0.4485
      4 C         -11.4818  -17.3289   20.5597 C.3     1  UNL1        0.2092
      5 C         -10.6244  -17.7972   21.6979 C.3     1  UNL1        0.0591
      6 C          -9.7927  -18.9461   21.2096 C.3     1  UNL1        0.1073
      7 C         -10.6025  -17.2184   23.0815 C.3     1  UNL1        0.0307
      8 C          -9.3651  -16.5412   23.5918 C.ar    1  UNL1       -0.0188
      9 C          -8.5038  -15.7477   22.6547 C.ar    1  UNL1       -0.0009
     10 C          -7.2664  -15.0705   23.1649 C.ar    1  UNL1        0.0399
     11 C          -6.8903  -15.1870   24.6123 C.ar    1  UNL1        0.1764
     12 C          -7.7517  -15.9806   25.5495 C.ar    1  UNL1        0.1761
     13 C          -8.9891  -16.6577   25.0393 C.ar    1  UNL1        0.0359
     14 O          -7.1319  -15.9180   26.9140 O.3     1  UNL1       -0.4346
     15 C          -5.8876  -15.0857   26.8202 C.3     1  UNL1        0.4294
     16 O          -5.7382  -14.6339   25.3976 O.3     1  UNL1       -0.4346
     17 C          -8.7932  -19.7178   22.0191 C.3     1  UNL1        0.0377
     18 C          -7.3295  -19.6026   21.7114 C.ar    1  UNL1       -0.0184
     19 C          -6.7083  -20.4935   20.6768 C.ar    1  UNL1       -0.0009
     20 C          -5.2447  -20.3783   20.3691 C.ar    1  UNL1        0.0399
     21 C          -4.4024  -19.3723   21.0960 C.ar    1  UNL1        0.1764
     22 C          -5.0237  -18.4815   22.1306 C.ar    1  UNL1        0.1761
     23 C          -6.4872  -18.5966   22.4383 C.ar    1  UNL1        0.0359
     24 O          -3.9495  -17.5906   22.6805 O.3     1  UNL1       -0.4346
     25 C          -2.6643  -17.9308   21.9858 C.3     1  UNL1        0.4294
     26 O          -2.9443  -19.0320   21.0065 O.3     1  UNL1       -0.4346
@<TRIPOS>BOND
     1     1     2    2
     2     2     3    1
     3     3     4    1
     4     4     5    1
     5     5     7    1
     6     7     8    1
     7     8     9   ar
     8     9    10   ar
     9    10    11   ar
    10    11    12   ar
    11    12    13   ar
    12    12    14    1
    13    14    15    1
    14    15    16    1
    15     5     6    1
    16     6    17    1
    17    17    18    1
    18    18    19   ar
    19    19    20   ar
    20    20    21   ar
    21    21    22   ar
    22    22    23   ar
    23    22    24    1
    24    24    25    1
    25    25    26    1
    26     6     2    1
    27    23    18   ar
    28    13     8   ar
    29    26    21    1
    30    16    11    1
@<TRIPOS>MOLECULE
*****
 26 30 0 0 0
SMALL
GASTEIGER

@<TRIPOS>ATOM
      1 O          -4.5444  -15.6297   26.4915 O.2     1  UNL1       -0.2501
      2 C          -6.0442  -15.6359   26.4707 C.2     1  UNL1        0.3169
      3 O          -6.9424  -15.7011   27.6703 O.3     1  UNL1       -0.4485
      4 C          -8.3625  -15.6835   27.1876 C.3     1  UNL1        0.2092
      5 C          -8.3420  -15.6075   25.6896 C.3     1  UNL1        0.0591
      6 C          -6.9093  -15.5781   25.2465 C.3     1  UNL1        0.1073
      7 C          -9.5434  -15.5679   24.7923 C.3     1  UNL1        0.0307
      8 C          -9.8212  -16.7097   23.8599 C.ar    1  UNL1       -0.0188
      9 C         -10.0024  -18.0955   24.4044 C.ar    1  UNL1       -0.0009
     10 C         -10.2801  -19.2372   23.4721 C.ar    1  UNL1        0.0399
     11 C         -10.3766  -18.9931   21.9952 C.ar    1  UNL1        0.1764
     12 C         -10.1954  -17.6072   21.4507 C.ar    1  UNL1        0.1761
     13 C          -9.9176  -16.4655   22.3830 C.ar    1  UNL1        0.0359
     14 O         -10.3448  -17.6718   19.9596 O.3     1  UNL1       -0.4346
     15 C         -10.6184  -19.0976   19.5825 C.3     1  UNL1        0.4294
     16 O         -10.6381  -19.9143   20.8406 O.3     1  UNL1       -0.4346
     17 C          -6.4263  -15.5038   23.8283 C.3     1  UNL1        0.0377
     18 C          -5.7694  -16.6952   23.1964 C.ar    1  UNL1       -0.0184
     19 C          -6.6087  -17.7840   22.5965 C.ar    1  UNL1       -0.0009
     20 C          -5.9519  -18.9753   21.9646 C.ar    1  UNL1        0.0399
     21 C          -4.4558  -19.0778   21.9326 C.ar    1  UNL1        0.1764
     22 C          -3.6165  -17.9889   22.5325 C.ar    1  UNL1        0.1761
     23 C          -4.2733  -16.7976   23.1644 C.ar    1  UNL1        0.0359
     24 O          -2.1749  -18.3628   22.3533 O.3     1  UNL1       -0.4346
     25 C          -2.1233  -19.6828   21.6426 C.3     1  UNL1        0.4294
     26 O          -3.5329  -20.1246   21.3826 O.3     1  UNL1       -0.4346
@<TRIPOS>BOND
     1     1     2    2
     2     2     3    1
     3     3     4    1
     4     4     5    1
     5     5     7    1
     6     7     8    1
     7     8     9   ar
     8     9    10   ar
     9    10    11   ar
    10    11    12   ar
    11    12    13   ar
    12    12    14    1
    13    14    15    1
    14    15    16    1
    15     5     6    1
    16     6    17    1
    17    17    18    1
    18    18    19   ar
    19    19    20   ar
    20    20    21   ar
    21    21    22   ar
    22    22    23   ar
    23    22    24    1
    24    24    25    1
    25    25    26    1
    26     6     2    1
    27    23    18   ar
    28    13     8   ar
    29    26    21    1
    30    16    11    1
@<TRIPOS>MOLECULE
*****
 26 30 0 0 0
SMALL
GASTEIGER

@<TRIPOS>ATOM
      1 O         -11.3502  -17.7317   19.2133 O.2     1  UNL1       -0.2501
      2 C         -11.3532  -17.3906   20.6740 C.2     1  UNL1        0.3169
      3 O         -11.9841  -16.1799   21.2954 O.3     1  UNL1       -0.4485
      4 C         -11.7467  -16.2414   22.7752 C.3     1  UNL1        0.2092
      5 C         -10.9691  -17.4901   23.0684 C.3     1  UNL1        0.0591
      6 C         -10.7259  -18.2004   21.7698 C.3     1  UNL1        0.1073
      7 C         -10.5145  -17.9481   24.4225 C.3     1  UNL1        0.0307
      8 C          -9.3716  -17.2555   25.1039 C.ar    1  UNL1       -0.0188
      9 C          -9.2349  -17.3247   26.5960 C.ar    1  UNL1       -0.0009
     10 C          -8.0921  -16.6321   27.2774 C.ar    1  UNL1        0.0399
     11 C          -7.0860  -15.8703   26.4666 C.ar    1  UNL1        0.1764
     12 C          -7.2227  -15.8011   24.9745 C.ar    1  UNL1        0.1761
     13 C          -8.3655  -16.4937   24.2931 C.ar    1  UNL1        0.0359
     14 O          -6.0850  -14.9811   24.4423 O.3     1  UNL1       -0.4346
     15 C          -5.2451  -14.5436   25.6056 C.3     1  UNL1        0.4294
     16 O          -5.8638  -15.0931   26.8567 O.3     1  UNL1       -0.4346
     17 C          -9.9854  -19.4934   21.5973 C.3     1  UNL1        0.0377
     18 C          -8.5265  -19.4814   21.2485 C.ar    1  UNL1       -0.0184
     19 C          -8.0994  -19.4201   19.8119 C.ar    1  UNL1       -0.0009
     20 C          -6.6406  -19.4081   19.4630 C.ar    1  UNL1        0.0399
     21 C          -5.6089  -19.4575   20.5507 C.ar    1  UNL1        0.1764
     22 C          -6.0361  -19.5188   21.9873 C.ar    1  UNL1        0.1761
     23 C          -7.4948  -19.5308   22.3362 C.ar    1  UNL1        0.0359
     24 O          -4.8005  -19.5582   22.8369 O.3     1  UNL1       -0.4346
     25 C          -3.6098  -19.5213   21.9255 C.3     1  UNL1        0.4294
     26 O          -4.1094  -19.4590   20.5125 O.3     1  UNL1       -0.4346
@<TRIPOS>BOND
     1     1     2    2
     2     2     3    1
     3     3     4    1
     4     4     5    1
     5     5     7    1
     6     7     8    1
     7     8     9   ar
     8     9    10   ar
     9    10    11   ar
    10    11    12   ar
    11    12    13   ar
    12    12    14    1
    13    14    15    1
    14    15    16    1
    15     5     6    1
    16     6    17    1
    17    17    18    1
    18    18    19   ar
    19    19    20   ar
    20    20    21   ar
    21    21    22   ar
    22    22    23   ar
    23    22    24    1
    24    24    25    1
    25    25    26    1
    26     6     2    1
    27    23    18   ar
    28    13     8   ar
    29    26    21    1
    30    16    11    1
@<TRIPOS>MOLECULE
*****
 26 30 0 0 0
SMALL
GASTEIGER

@<TRIPOS>ATOM
      1 O          -4.5568  -15.6420   26.4817 O.2     1  UNL1       -0.2501
      2 C          -6.0566  -15.6413   26.4615 C.2     1  UNL1        0.3169
      3 O          -6.9546  -15.6844   27.6623 O.3     1  UNL1       -0.4485
      4 C          -8.3748  -15.6672   27.1800 C.3     1  UNL1        0.2092
      5 C          -8.3546  -15.6134   25.6810 C.3     1  UNL1        0.0591
      6 C          -6.9219  -15.5974   25.2370 C.3     1  UNL1        0.1073
      7 C          -9.5562  -15.5812   24.7837 C.3     1  UNL1        0.0307
      8 C          -9.8185  -16.7177   23.8404 C.ar    1  UNL1       -0.0188
      9 C          -9.8933  -18.1224   24.3610 C.ar    1  UNL1       -0.0009
     10 C         -10.1556  -19.2588   23.4178 C.ar    1  UNL1        0.0399
     11 C         -10.3431  -18.9905   21.9539 C.ar    1  UNL1        0.1764
     12 C         -10.2683  -17.5857   21.4333 C.ar    1  UNL1        0.1761
     13 C         -10.0060  -16.4493   22.3765 C.ar    1  UNL1        0.0359
     14 O         -10.4921  -17.6282   19.9507 O.3     1  UNL1       -0.4346
     15 C         -10.7053  -19.0593   19.5550 C.3     1  UNL1        0.4294
     16 O         -10.6131  -19.9012   20.7931 O.3     1  UNL1       -0.4346
     17 C          -6.4393  -15.5464   23.8177 C.3     1  UNL1        0.0377
     18 C          -5.8821  -16.7795   23.1703 C.ar    1  UNL1       -0.0184
     19 C          -4.4329  -17.1268   23.3412 C.ar    1  UNL1       -0.0009
     20 C          -3.8757  -18.3598   22.6939 C.ar    1  UNL1        0.0399
     21 C          -4.7677  -19.2456   21.8755 C.ar    1  UNL1        0.1764
     22 C          -6.2169  -18.8983   21.7045 C.ar    1  UNL1        0.1761
     23 C          -6.7741  -17.6653   22.3519 C.ar    1  UNL1        0.0359
     24 O          -6.8486  -19.9544   20.8469 O.3     1  UNL1       -0.4346
     25 C          -5.7898  -20.9544   20.4877 C.3     1  UNL1        0.4294
     26 O          -4.5038  -20.5163   21.1235 O.3     1  UNL1       -0.4346
@<TRIPOS>BOND
     1     1     2    2
     2     2     3    1
     3     3     4    1
     4     4     5    1
     5     5     7    1
     6     7     8    1
     7     8     9   ar
     8     9    10   ar
     9    10    11   ar
    10    11    12   ar
    11    12    13   ar
    12    12    14    1
    13    14    15    1
    14    15    16    1
    15     5     6    1
    16     6    17    1
    17    17    18    1
    18    18    19   ar
    19    19    20   ar
    20    20    21   ar
    21    21    22   ar
    22    22    23   ar
    23    22    24    1
    24    24    25    1
    25    25    26    1
    26     6     2    1
    27    23    18   ar
    28    13     8   ar
    29    26    21    1
    30    16    11    1
@<TRIPOS>MOLECULE
*****
 26 30 0 0 0
SMALL
GASTEIGER

@<TRIPOS>ATOM
      1 O          -9.6715  -19.2731   19.4636 O.2     1  UNL1       -0.2501
      2 C          -8.3178  -19.7184   19.9316 C.2     1  UNL1        0.3169
      3 O          -7.4680  -20.7765   19.2927 O.3     1  UNL1       -0.4485
      4 C          -6.2011  -20.8958   20.0869 C.3     1  UNL1        0.2092
      5 C          -6.2680  -19.9114   21.2168 C.3     1  UNL1        0.0591
      6 C          -7.5761  -19.1837   21.1208 C.3     1  UNL1        0.1073
      7 C          -5.2120  -19.6931   22.2595 C.3     1  UNL1        0.0307
      8 C          -3.9880  -18.8906   21.9309 C.ar    1  UNL1       -0.0188
      9 C          -3.7581  -17.5666   22.5971 C.ar    1  UNL1       -0.0009
     10 C          -2.5341  -16.7641   22.2685 C.ar    1  UNL1        0.0399
     11 C          -1.5401  -17.2857   21.2736 C.ar    1  UNL1        0.1764
     12 C          -1.7700  -18.6098   20.6074 C.ar    1  UNL1        0.1761
     13 C          -2.9939  -19.4123   20.9360 C.ar    1  UNL1        0.0359
     14 O          -0.6232  -18.8649   19.6747 O.3     1  UNL1       -0.4346
     15 C           0.3155  -17.6983   19.7646 C.3     1  UNL1        0.4294
     16 O          -0.2512  -16.7224   20.7528 O.3     1  UNL1       -0.4346
     17 C          -8.0580  -18.1099   22.0508 C.3     1  UNL1        0.0377
     18 C          -9.3026  -18.3222   22.8607 C.ar    1  UNL1       -0.0184
     19 C          -9.2607  -19.1831   24.0884 C.ar    1  UNL1       -0.0009
     20 C         -10.5052  -19.3954   24.8984 C.ar    1  UNL1        0.0399
     21 C         -11.7916  -18.7468   24.4806 C.ar    1  UNL1        0.1764
     22 C         -11.8335  -17.8860   23.2529 C.ar    1  UNL1        0.1761
     23 C         -10.5890  -17.6737   22.4430 C.ar    1  UNL1        0.0359
     24 O         -13.2362  -17.3805   23.0889 O.3     1  UNL1       -0.4346
     25 C         -14.0612  -17.9289   24.2153 C.3     1  UNL1        0.4294
     26 O         -13.1684  -18.7733   25.0754 O.3     1  UNL1       -0.4346
@<TRIPOS>BOND
     1     1     2    2
     2     2     3    1
     3     3     4    1
     4     4     5    1
     5     5     7    1
     6     7     8    1
     7     8     9   ar
     8     9    10   ar
     9    10    11   ar
    10    11    12   ar
    11    12    13   ar
    12    12    14    1
    13    14    15    1
    14    15    16    1
    15     5     6    1
    16     6    17    1
    17    17    18    1
    18    18    19   ar
    19    19    20   ar
    20    20    21   ar
    21    21    22   ar
    22    22    23   ar
    23    22    24    1
    24    24    25    1
    25    25    26    1
    26     6     2    1
    27    23    18   ar
    28    13     8   ar
    29    26    21    1
    30    16    11    1
@<TRIPOS>MOLECULE
*****
 26 30 0 0 0
SMALL
GASTEIGER

@<TRIPOS>ATOM
      1 O         -11.3004  -18.3825   20.1165 O.2     1  UNL1       -0.2501
      2 C          -9.8886  -18.8878   20.0824 C.2     1  UNL1        0.3169
      3 O          -9.0785  -19.1583   18.8492 O.3     1  UNL1       -0.4485
      4 C          -7.7281  -19.6491   19.2800 C.3     1  UNL1        0.2092
      5 C          -7.7036  -19.6818   20.7795 C.3     1  UNL1        0.0591
      6 C          -9.0387  -19.2113   21.2754 C.3     1  UNL1        0.1073
      7 C          -6.5469  -20.1099   21.6332 C.3     1  UNL1        0.0307
      8 C          -5.2248  -19.4120   21.5097 C.ar    1  UNL1       -0.0188
      9 C          -4.7036  -18.5859   22.6479 C.ar    1  UNL1       -0.0009
     10 C          -3.3816  -17.8880   22.5245 C.ar    1  UNL1        0.0399
     11 C          -2.5808  -18.0162   21.2626 C.ar    1  UNL1        0.1764
     12 C          -3.1020  -18.8424   20.1243 C.ar    1  UNL1        0.1761
     13 C          -4.4240  -19.5403   20.2478 C.ar    1  UNL1        0.0359
     14 O          -2.0974  -18.7849   19.0118 O.3     1  UNL1       -0.4346
     15 C          -0.9554  -17.9232   19.4627 C.3     1  UNL1        0.4294
     16 O          -1.2541  -17.4481   20.8537 O.3     1  UNL1       -0.4346
     17 C          -9.4517  -19.0863   22.7120 C.3     1  UNL1        0.0377
     18 C          -8.8944  -17.9808   23.5591 C.ar    1  UNL1       -0.0184
     19 C          -8.0545  -16.9071   22.9333 C.ar    1  UNL1       -0.0009
     20 C          -7.4973  -15.8016   23.7803 C.ar    1  UNL1        0.0399
     21 C          -7.7799  -15.7700   25.2530 C.ar    1  UNL1        0.1764
     22 C          -8.6198  -16.8437   25.8788 C.ar    1  UNL1        0.1761
     23 C          -9.1770  -17.9492   25.0318 C.ar    1  UNL1        0.0359
     24 O          -8.7285  -16.5511   27.3460 O.3     1  UNL1       -0.4346
     25 C          -7.9558  -15.2966   27.6270 C.3     1  UNL1        0.4294
     26 O          -7.3695  -14.8138   26.3335 O.3     1  UNL1       -0.4346
@<TRIPOS>BOND
     1     1     2    2
     2     2     3    1
     3     3     4    1
     4     4     5    1
     5     5     7    1
     6     7     8    1
     7     8     9   ar
     8     9    10   ar
     9    10    11   ar
    10    11    12   ar
    11    12    13   ar
    12    12    14    1
    13    14    15    1
    14    15    16    1
    15     5     6    1
    16     6    17    1
    17    17    18    1
    18    18    19   ar
    19    19    20   ar
    20    20    21   ar
    21    21    22   ar
    22    22    23   ar
    23    22    24    1
    24    24    25    1
    25    25    26    1
    26     6     2    1
    27    23    18   ar
    28    13     8   ar
    29    26    21    1
    30    16    11    1
@<TRIPOS>MOLECULE
*****
 26 30 0 0 0
SMALL
GASTEIGER

@<TRIPOS>ATOM
      1 O          -4.0594  -17.8193   22.0784 O.2     1  UNL1       -0.2501
      2 C          -5.1584  -18.7577   21.6770 C.2     1  UNL1        0.3169
      3 O          -5.0028  -20.2175   21.3688 O.3     1  UNL1       -0.4485
      4 C          -6.3544  -20.7632   21.0146 C.3     1  UNL1        0.2092
      5 C          -7.3453  -19.6406   21.1037 C.3     1  UNL1        0.0591
      6 C          -6.6063  -18.4012   21.5131 C.3     1  UNL1        0.1073
      7 C          -8.8171  -19.7401   20.8313 C.3     1  UNL1        0.0307
      8 C          -9.8019  -19.5179   21.9408 C.ar    1  UNL1       -0.0188
      9 C          -9.5228  -20.0600   23.3112 C.ar    1  UNL1       -0.0009
     10 C         -10.5075  -19.8378   24.4206 C.ar    1  UNL1        0.0399
     11 C         -11.7714  -19.0734   24.1596 C.ar    1  UNL1        0.1764
     12 C         -12.0506  -18.5312   22.7891 C.ar    1  UNL1        0.1761
     13 C         -11.0658  -18.7534   21.6797 C.ar    1  UNL1        0.0359
     14 O         -13.3716  -17.8218   22.8315 O.3     1  UNL1       -0.4346
     15 C         -13.9089  -17.9256   24.2281 C.3     1  UNL1        0.4294
     16 O         -12.9199  -18.6991   25.0489 O.3     1  UNL1       -0.4346
     17 C          -7.2091  -17.0437   21.7219 C.3     1  UNL1        0.0377
     18 C          -7.5277  -16.5698   23.1091 C.ar    1  UNL1       -0.0184
     19 C          -8.9532  -16.5082   23.5717 C.ar    1  UNL1       -0.0009
     20 C          -9.2718  -16.0344   24.9587 C.ar    1  UNL1        0.0399
     21 C          -8.1649  -15.6222   25.8832 C.ar    1  UNL1        0.1764
     22 C          -6.7393  -15.6838   25.4206 C.ar    1  UNL1        0.1761
     23 C          -6.4207  -16.1576   24.0335 C.ar    1  UNL1        0.0359
     24 O          -5.8659  -15.2163   26.5469 O.3     1  UNL1       -0.4346
     25 C          -6.7516  -14.8658   27.7056 C.3     1  UNL1        0.4294
     26 O          -8.1724  -15.1167   27.2954 O.3     1  UNL1       -0.4346
@<TRIPOS>BOND
     1     1     2    2
     2     2     3    1
     3     3     4    1
     4     4     5    1
     5     5     7    1
     6     7     8    1
     7     8     9   ar
     8     9    10   ar
     9    10    11   ar
    10    11    12   ar
    11    12    13   ar
    12    12    14    1
    13    14    15    1
    14    15    16    1
    15     5     6    1
    16     6    17    1
    17    17    18    1
    18    18    19   ar
    19    19    20   ar
    20    20    21   ar
    21    21    22   ar
    22    22    23   ar
    23    22    24    1
    24    24    25    1
    25    25    26    1
    26     6     2    1
    27    23    18   ar
    28    13     8   ar
    29    26    21    1
    30    16    11    1
@<TRIPOS>MOLECULE
*****
 26 30 0 0 0
SMALL
GASTEIGER

@<TRIPOS>ATOM
      1 O          -1.6246  -15.9209   21.5978 O.2     1  UNL1       -0.2501
      2 C          -2.3172  -17.0405   20.8792 C.2     1  UNL1        0.3169
      3 O          -2.2545  -17.3148   19.4058 O.3     1  UNL1       -0.4485
      4 C          -3.0927  -18.5264   19.1238 C.3     1  UNL1        0.2092
      5 C          -3.6734  -19.0009   20.4229 C.3     1  UNL1        0.0591
      6 C          -3.1942  -18.0826   21.5078 C.3     1  UNL1        0.1073
      7 C          -4.5751  -20.1857   20.6050 C.3     1  UNL1        0.0307
      8 C          -6.0245  -19.9817   20.9337 C.ar    1  UNL1       -0.0188
      9 C          -6.5676  -20.4487   22.2515 C.ar    1  UNL1       -0.0009
     10 C          -8.0169  -20.2447   22.5801 C.ar    1  UNL1        0.0399
     11 C          -8.9230  -19.5737   21.5908 C.ar    1  UNL1        0.1764
     12 C          -8.3799  -19.1067   20.2729 C.ar    1  UNL1        0.1761
     13 C          -6.9306  -19.3107   19.9443 C.ar    1  UNL1        0.0359
     14 O          -9.5053  -18.4820   19.5029 O.3     1  UNL1       -0.4346
     15 C         -10.7441  -18.5629   20.3449 C.3     1  UNL1        0.4294
     16 O         -10.3842  -19.2376   21.6353 O.3     1  UNL1       -0.4346
     17 C          -3.5324  -18.1879   22.9654 C.3     1  UNL1        0.0377
     18 C          -4.6308  -17.3454   23.5432 C.ar    1  UNL1       -0.0184
     19 C          -4.3459  -16.4299   24.6967 C.ar    1  UNL1       -0.0009
     20 C          -5.4441  -15.5873   25.2745 C.ar    1  UNL1        0.0399
     21 C          -6.8272  -15.6603   24.6988 C.ar    1  UNL1        0.1764
     22 C          -7.1121  -16.5758   23.5452 C.ar    1  UNL1        0.1761
     23 C          -6.0139  -17.4183   22.9674 C.ar    1  UNL1        0.0359
     24 O          -8.5628  -16.4361   23.1899 O.3     1  UNL1       -0.4346
     25 C          -9.1744  -15.4342   24.1239 C.3     1  UNL1        0.4294
     26 O          -8.1018  -14.9548   25.0564 O.3     1  UNL1       -0.4346
@<TRIPOS>BOND
     1     1     2    2
     2     2     3    1
     3     3     4    1
     4     4     5    1
     5     5     7    1
     6     7     8    1
     7     8     9   ar
     8     9    10   ar
     9    10    11   ar
    10    11    12   ar
    11    12    13   ar
    12    12    14    1
    13    14    15    1
    14    15    16    1
    15     5     6    1
    16     6    17    1
    17    17    18    1
    18    18    19   ar
    19    19    20   ar
    20    20    21   ar
    21    21    22   ar
    22    22    23   ar
    23    22    24    1
    24    24    25    1
    25    25    26    1
    26     6     2    1
    27    23    18   ar
    28    13     8   ar
    29    26    21    1
    30    16    11    1
