@<TRIPOS>MOLECULE
*****
 22 24 0 0 0
SMALL
GASTEIGER

@<TRIPOS>ATOM
      1 N          -7.7161  -18.0911   22.7615 N.3     1  UNL1       -0.2700
      2 C          -6.4043  -18.4480   22.1275 C.3     1  UNL1        0.0628
      3 C          -6.3745  -19.0508   20.7543 C.3     1  UNL1        0.0481
      4 C          -5.0628  -19.4077   20.1203 C.3     1  UNL1        0.1435
      5 O          -3.7809  -19.1619   20.8595 O.3     1  UNL1       -0.3537
      6 C          -3.8108  -18.5591   22.2327 C.3     1  UNL1        0.1435
      7 C          -5.1225  -18.2021   22.8667 C.3     1  UNL1        0.0481
      8 C          -7.8655  -16.7912   23.4950 C.3     1  UNL1        0.0748
      9 C          -8.4410  -16.6151   24.8689 C.3     1  UNL1        0.0344
     10 C          -8.3968  -15.1542   25.2064 C.3     1  UNL1        0.0700
     11 N          -7.7939  -14.4274   24.0409 N.3     1  UNL1       -0.2963
     12 C          -7.4656  -15.4391   22.9832 C.3     1  UNL1        0.0847
     13 H          -6.9442  -13.9460   24.3352 H       1  UNL1        0.1233
     14 C          -8.8784  -19.0340   22.6622 C.3     1  UNL1        0.1000
     15 CL        -13.8194  -17.9908   23.8863 Cl      1  UNL1       -0.0814
     16 C         -12.7024  -17.9961   22.8852 C.ar    1  UNL1        0.0679
     17 C         -12.9389  -17.4850   21.4949 C.ar    1  UNL1        0.0122
     18 C         -11.8220  -17.4902   20.4937 C.ar    1  UNL1        0.0006
     19 C         -10.4685  -18.0066   20.8828 C.ar    1  UNL1       -0.0020
     20 C         -10.2320  -18.5177   22.2731 C.ar    1  UNL1        0.0053
     21 C         -11.3489  -18.5124   23.2743 C.ar    1  UNL1        0.0655
     22 CL        -11.1123  -19.0235   24.6645 Cl      1  UNL1       -0.0816
@<TRIPOS>BOND
     1    15    16    1
     2    16    17   ar
     3    17    18   ar
     4    18    19   ar
     5    19    20   ar
     6    20    14    1
     7    14     1    1
     8     1     2    1
     9     2     3    1
    10     3     4    1
    11     4     5    1
    12     5     6    1
    13     6     7    1
    14     8     1    1
    15     8     9    1
    16     9    10    1
    17    10    11    1
    18    11    12    1
    19    20    21   ar
    20    21    22    1
    21    21    16   ar
    22     7     2    1
    23    12     8    1
    24    11    13    1
@<TRIPOS>MOLECULE
*****
 22 24 0 0 0
SMALL
GASTEIGER

@<TRIPOS>ATOM
      1 N          -8.4041  -17.1635   21.9002 N.3     1  UNL1       -0.2700
      2 C          -9.8945  -17.3321   21.8821 C.3     1  UNL1        0.0628
      3 C         -10.7374  -16.4594   21.0002 C.3     1  UNL1        0.0481
      4 C         -12.2277  -16.6280   20.9821 C.3     1  UNL1        0.1435
      5 O         -12.8752  -17.6694   21.8460 O.3     1  UNL1       -0.3537
      6 C         -12.0323  -18.5422   22.7279 C.3     1  UNL1        0.1435
      7 C         -10.5420  -18.3736   22.7459 C.3     1  UNL1        0.0481
      8 C          -7.5156  -18.3016   21.4935 C.3     1  UNL1        0.0748
      9 C          -6.2897  -18.7669   22.2219 C.3     1  UNL1        0.0344
     10 C          -5.7134  -19.9270   21.4656 C.3     1  UNL1        0.0700
     11 N          -6.5832  -20.1787   20.2697 N.3     1  UNL1       -0.2963
     12 C          -7.6969  -19.1741   20.2869 C.3     1  UNL1        0.0847
     13 H          -6.9675  -21.1225   20.3137 H       1  UNL1        0.1233
     14 C          -7.8022  -15.8569   22.3249 C.3     1  UNL1        0.1000
     15 CL         -8.3642  -15.3475   27.4655 Cl      1  UNL1       -0.0814
     16 C          -7.4781  -15.4639   26.2607 C.ar    1  UNL1        0.0679
     17 C          -5.9869  -15.4418   26.4216 C.ar    1  UNL1        0.0122
     18 C          -5.1009  -15.5581   25.2169 C.ar    1  UNL1        0.0006
     19 C          -5.7060  -15.6964   23.8514 C.ar    1  UNL1       -0.0020
     20 C          -7.1971  -15.7185   23.6905 C.ar    1  UNL1        0.0053
     21 C          -8.0832  -15.6022   24.8952 C.ar    1  UNL1        0.0655
     22 CL         -9.5744  -15.6243   24.7344 Cl      1  UNL1       -0.0816
@<TRIPOS>BOND
     1    15    16    1
     2    16    17   ar
     3    17    18   ar
     4    18    19   ar
     5    19    20   ar
     6    20    14    1
     7    14     1    1
     8     1     2    1
     9     2     3    1
    10     3     4    1
    11     4     5    1
    12     5     6    1
    13     6     7    1
    14     8     1    1
    15     8     9    1
    16     9    10    1
    17    10    11    1
    18    11    12    1
    19    20    21   ar
    20    21    22    1
    21    21    16   ar
    22     7     2    1
    23    12     8    1
    24    11    13    1
@<TRIPOS>MOLECULE
*****
 22 24 0 0 0
SMALL
GASTEIGER

@<TRIPOS>ATOM
      1 N          -8.3687  -17.6773   22.5758 N.3     1  UNL1       -0.2700
      2 C          -9.4867  -17.5717   21.5812 C.3     1  UNL1        0.0628
      3 C          -9.7562  -18.7023   20.6330 C.3     1  UNL1        0.0481
      4 C         -10.8742  -18.5966   19.6385 C.3     1  UNL1        0.1435
      5 O         -11.7225  -17.3605   19.5922 O.3     1  UNL1       -0.3537
      6 C         -11.4530  -16.2299   20.5405 C.3     1  UNL1        0.1435
      7 C         -10.3351  -16.3355   21.5349 C.3     1  UNL1        0.0481
      8 C          -8.1060  -16.5511   23.5312 C.3     1  UNL1        0.0748
      9 C          -8.5712  -16.4764   24.9553 C.3     1  UNL1        0.0344
     10 C          -8.0847  -15.1810   25.5345 C.3     1  UNL1        0.0700
     11 N          -7.3188  -14.4553   24.4683 N.3     1  UNL1       -0.2963
     12 C          -7.3320  -15.3020   23.2303 C.3     1  UNL1        0.0847
     13 H          -6.3575  -14.3046   24.7744 H       1  UNL1        0.1233
     14 C          -7.5136  -18.9090   22.6149 C.3     1  UNL1        0.1000
     15 CL         -3.6656  -20.1947   19.3683 Cl      1  UNL1       -0.0814
     16 C          -4.1453  -19.4750   20.5939 C.ar    1  UNL1        0.0679
     17 C          -3.1808  -18.6786   21.4218 C.ar    1  UNL1        0.0122
     18 C          -3.6604  -17.9590   22.6473 C.ar    1  UNL1        0.0006
     19 C          -5.1047  -18.0358   23.0450 C.ar    1  UNL1       -0.0020
     20 C          -6.0692  -18.8322   22.2172 C.ar    1  UNL1        0.0053
     21 C          -5.5896  -19.5518   20.9916 C.ar    1  UNL1        0.0655
     22 CL         -6.5542  -20.3482   20.1638 Cl      1  UNL1       -0.0816
@<TRIPOS>BOND
     1    15    16    1
     2    16    17   ar
     3    17    18   ar
     4    18    19   ar
     5    19    20   ar
     6    20    14    1
     7    14     1    1
     8     1     2    1
     9     2     3    1
    10     3     4    1
    11     4     5    1
    12     5     6    1
    13     6     7    1
    14     8     1    1
    15     8     9    1
    16     9    10    1
    17    10    11    1
    18    11    12    1
    19    20    21   ar
    20    21    22    1
    21    21    16   ar
    22     7     2    1
    23    12     8    1
    24    11    13    1
@<TRIPOS>MOLECULE
*****
 22 24 0 0 0
SMALL
GASTEIGER

@<TRIPOS>ATOM
      1 N          -8.6872  -18.1480   22.6124 N.3     1  UNL1       -0.2700
      2 C          -9.6201  -17.5384   21.6084 C.3     1  UNL1        0.0628
      3 C          -9.8389  -16.0545   21.5922 C.3     1  UNL1        0.0481
      4 C         -10.7718  -15.4449   20.5882 C.3     1  UNL1        0.1435
      5 O         -11.4858  -16.3192   19.6003 O.3     1  UNL1       -0.3537
      6 C         -11.2670  -17.8030   19.6165 C.3     1  UNL1        0.1435
      7 C         -10.3341  -18.4126   20.6205 C.3     1  UNL1        0.0481
      8 C          -9.2188  -19.0796   23.6611 C.3     1  UNL1        0.0748
      9 C          -9.1241  -20.5765   23.6406 C.3     1  UNL1        0.0344
     10 C          -9.7851  -21.0998   24.8812 C.3     1  UNL1        0.0700
     11 N         -10.2883  -19.9264   25.6685 N.3     1  UNL1       -0.2963
     12 C          -9.9383  -18.6779   24.9144 C.3     1  UNL1        0.0847
     13 H          -9.8464  -19.9111   26.5876 H       1  UNL1        0.1233
     14 C          -7.2229  -17.8262   22.5678 C.3     1  UNL1        0.1000
     15 CL         -2.3869  -19.5347   21.7344 Cl      1  UNL1       -0.0814
     16 C          -3.8563  -19.5995   21.4401 C.ar    1  UNL1        0.0679
     17 C          -4.3772  -20.5832   20.4346 C.ar    1  UNL1        0.0122
     18 C          -5.8465  -20.6480   20.1402 C.ar    1  UNL1        0.0006
     19 C          -6.7951  -19.7290   20.8513 C.ar    1  UNL1       -0.0020
     20 C          -6.2742  -18.7452   21.8567 C.ar    1  UNL1        0.0053
     21 C          -4.8049  -18.6804   22.1511 C.ar    1  UNL1        0.0655
     22 CL         -4.2840  -17.6967   23.1566 Cl      1  UNL1       -0.0816
@<TRIPOS>BOND
     1    15    16    1
     2    16    17   ar
     3    17    18   ar
     4    18    19   ar
     5    19    20   ar
     6    20    14    1
     7    14     1    1
     8     1     2    1
     9     2     3    1
    10     3     4    1
    11     4     5    1
    12     5     6    1
    13     6     7    1
    14     8     1    1
    15     8     9    1
    16     9    10    1
    17    10    11    1
    18    11    12    1
    19    20    21   ar
    20    21    22    1
    21    21    16   ar
    22     7     2    1
    23    12     8    1
    24    11    13    1
@<TRIPOS>MOLECULE
*****
 22 24 0 0 0
SMALL
GASTEIGER

@<TRIPOS>ATOM
      1 N          -7.3044  -17.9903   22.0419 N.3     1  UNL1       -0.2700
      2 C          -8.5913  -18.7581   22.1109 C.3     1  UNL1        0.0628
      3 C          -9.5147  -18.7818   20.9292 C.3     1  UNL1        0.0481
      4 C         -10.8015  -19.5496   20.9982 C.3     1  UNL1        0.1435
      5 O         -11.1647  -20.2936   22.2490 O.3     1  UNL1       -0.3537
      6 C         -10.2413  -20.2698   23.4307 C.3     1  UNL1        0.1435
      7 C          -8.9545  -19.5021   23.3617 C.3     1  UNL1        0.0481
      8 C          -6.0447  -18.6758   21.6024 C.3     1  UNL1        0.0748
      9 C          -5.7916  -19.2727   20.2498 C.3     1  UNL1        0.0344
     10 C          -4.4074  -19.8506   20.2498 C.3     1  UNL1        0.0700
     11 N          -3.8050  -19.6110   21.6025 N.3     1  UNL1       -0.2963
     12 C          -4.8170  -18.8850   22.4384 C.3     1  UNL1        0.0847
     13 H          -2.9617  -19.0447   21.5105 H       1  UNL1        0.1233
     14 C          -7.2774  -16.5370   22.4124 C.3     1  UNL1        0.1000
     15 CL         -8.6006  -15.3125   27.2858 Cl      1  UNL1       -0.0814
     16 C          -7.5471  -15.5117   26.2368 C.ar    1  UNL1        0.0679
     17 C          -6.1015  -15.2979   26.5755 C.ar    1  UNL1        0.0122
     18 C          -5.0480  -15.4971   25.5266 C.ar    1  UNL1        0.0006
     19 C          -5.4399  -15.9101   24.1389 C.ar    1  UNL1       -0.0020
     20 C          -6.8855  -16.1240   23.8001 C.ar    1  UNL1        0.0053
     21 C          -7.9390  -15.9248   24.8491 C.ar    1  UNL1        0.0655
     22 CL         -9.3845  -16.1386   24.5103 Cl      1  UNL1       -0.0816
@<TRIPOS>BOND
     1    15    16    1
     2    16    17   ar
     3    17    18   ar
     4    18    19   ar
     5    19    20   ar
     6    20    14    1
     7    14     1    1
     8     1     2    1
     9     2     3    1
    10     3     4    1
    11     4     5    1
    12     5     6    1
    13     6     7    1
    14     8     1    1
    15     8     9    1
    16     9    10    1
    17    10    11    1
    18    11    12    1
    19    20    21   ar
    20    21    22    1
    21    21    16   ar
    22     7     2    1
    23    12     8    1
    24    11    13    1
@<TRIPOS>MOLECULE
*****
 22 24 0 0 0
SMALL
GASTEIGER

@<TRIPOS>ATOM
      1 N          -7.5040  -18.0674   22.3091 N.3     1  UNL1       -0.2700
      2 C          -6.3223  -18.8476   21.8140 C.3     1  UNL1        0.0628
      3 C          -6.4952  -19.8545   20.7157 C.3     1  UNL1        0.0481
      4 C          -5.3136  -20.6347   20.2207 C.3     1  UNL1        0.1435
      5 O          -3.9591  -20.4080   20.8240 O.3     1  UNL1       -0.3537
      6 C          -3.7862  -19.4011   21.9223 C.3     1  UNL1        0.1435
      7 C          -4.9678  -18.6210   22.4173 C.3     1  UNL1        0.0481
      8 C          -8.8219  -18.7530   22.5163 C.3     1  UNL1        0.0748
      9 C          -9.1124  -19.8161   23.5339 C.3     1  UNL1        0.0344
     10 C         -10.5508  -20.2160   23.3889 C.3     1  UNL1        0.0700
     11 N         -11.1494  -19.4001   22.2816 N.3     1  UNL1       -0.2963
     12 C         -10.0809  -18.4959   21.7424 C.3     1  UNL1        0.0847
     13 H         -11.9245  -18.8435   22.6419 H       1  UNL1        0.1233
     14 C          -7.3676  -16.6016   22.5968 C.3     1  UNL1        0.1000
     15 CL         -8.6093  -15.3123   27.4750 Cl      1  UNL1       -0.0814
     16 C          -7.5767  -15.4961   26.4026 C.ar    1  UNL1        0.0679
     17 C          -6.1322  -15.2190   26.6971 C.ar    1  UNL1        0.0122
     18 C          -5.0995  -15.4028   25.6248 C.ar    1  UNL1        0.0006
     19 C          -5.5114  -15.8637   24.2581 C.ar    1  UNL1       -0.0020
     20 C          -6.9558  -16.1407   23.9637 C.ar    1  UNL1        0.0053
     21 C          -7.9885  -15.9569   25.0359 C.ar    1  UNL1        0.0655
     22 CL         -9.4330  -16.2340   24.7415 Cl      1  UNL1       -0.0816
@<TRIPOS>BOND
     1    15    16    1
     2    16    17   ar
     3    17    18   ar
     4    18    19   ar
     5    19    20   ar
     6    20    14    1
     7    14     1    1
     8     1     2    1
     9     2     3    1
    10     3     4    1
    11     4     5    1
    12     5     6    1
    13     6     7    1
    14     8     1    1
    15     8     9    1
    16     9    10    1
    17    10    11    1
    18    11    12    1
    19    20    21   ar
    20    21    22    1
    21    21    16   ar
    22     7     2    1
    23    12     8    1
    24    11    13    1
@<TRIPOS>MOLECULE
*****
 22 24 0 0 0
SMALL
GASTEIGER

@<TRIPOS>ATOM
      1 N          -7.7046  -18.4651   22.6892 N.3     1  UNL1       -0.2700
      2 C          -6.4230  -18.9390   22.0702 C.3     1  UNL1        0.0628
      3 C          -5.1087  -18.4332   22.5865 C.3     1  UNL1        0.0481
      4 C          -3.8273  -18.9071   21.9674 C.3     1  UNL1        0.1435
      5 O          -3.8602  -19.8868   20.8320 O.3     1  UNL1       -0.3537
      6 C          -5.1745  -20.3925   20.3157 C.3     1  UNL1        0.1435
      7 C          -6.4559  -19.9187   20.9347 C.3     1  UNL1        0.0481
      8 C          -7.8173  -17.0578   23.1959 C.3     1  UNL1        0.0748
      9 C          -7.9505  -16.6458   24.6321 C.3     1  UNL1        0.0344
     10 C          -8.0321  -15.1487   24.6792 C.3     1  UNL1        0.0700
     11 N          -7.9493  -14.6355   23.2722 N.3     1  UNL1       -0.2963
     12 C          -7.8165  -15.8154   22.3555 C.3     1  UNL1        0.0847
     13 H          -7.1368  -14.0269   23.1730 H       1  UNL1        0.1233
     14 C          -8.8733  -19.3986   22.8016 C.3     1  UNL1        0.1000
     15 CL        -12.9051  -16.8359   20.7576 Cl      1  UNL1       -0.0814
     16 C         -12.2788  -17.5671   21.9079 C.ar    1  UNL1        0.0679
     17 C         -13.0421  -17.7483   23.1864 C.ar    1  UNL1        0.0122
     18 C         -12.4158  -18.4795   24.3366 C.ar    1  UNL1        0.0006
     19 C         -11.0263  -19.0296   24.2083 C.ar    1  UNL1       -0.0020
     20 C         -10.2630  -18.8484   22.9298 C.ar    1  UNL1        0.0053
     21 C         -10.8892  -18.1172   21.7796 C.ar    1  UNL1        0.0655
     22 CL        -10.1259  -17.9361   20.5011 Cl      1  UNL1       -0.0816
@<TRIPOS>BOND
     1    15    16    1
     2    16    17   ar
     3    17    18   ar
     4    18    19   ar
     5    19    20   ar
     6    20    14    1
     7    14     1    1
     8     1     2    1
     9     2     3    1
    10     3     4    1
    11     4     5    1
    12     5     6    1
    13     6     7    1
    14     8     1    1
    15     8     9    1
    16     9    10    1
    17    10    11    1
    18    11    12    1
    19    20    21   ar
    20    21    22    1
    21    21    16   ar
    22     7     2    1
    23    12     8    1
    24    11    13    1
@<TRIPOS>MOLECULE
*****
 22 24 0 0 0
SMALL
GASTEIGER

@<TRIPOS>ATOM
      1 N          -8.8398  -17.1050   21.7684 N.3     1  UNL1       -0.2700
      2 C          -7.9745  -18.2760   21.4075 C.3     1  UNL1        0.0628
      3 C          -8.2986  -19.1039   20.1995 C.3     1  UNL1        0.0481
      4 C          -7.4333  -20.2748   19.8387 C.3     1  UNL1        0.1435
      5 O          -6.2440  -20.6178   20.6860 O.3     1  UNL1       -0.3537
      6 C          -5.9199  -19.7898   21.8940 C.3     1  UNL1        0.1435
      7 C          -6.7852  -18.6189   22.2548 C.3     1  UNL1        0.0481
      8 C         -10.3157  -17.1537   21.5049 C.3     1  UNL1        0.0748
      9 C         -11.3079  -18.0338   22.2056 C.3     1  UNL1        0.0344
     10 C         -12.6639  -17.7549   21.6283 C.3     1  UNL1        0.0700
     11 N         -12.5099  -16.7023   20.5707 N.3     1  UNL1       -0.2963
     12 C         -11.0586  -16.3308   20.4945 C.3     1  UNL1        0.0847
     13 H         -13.0648  -15.8821   20.8153 H       1  UNL1        0.1233
     14 C          -8.2292  -15.8854   22.3926 C.3     1  UNL1        0.1000
     15 CL         -4.9997  -15.0975   26.3864 Cl      1  UNL1       -0.0814
     16 C          -6.3618  -15.4521   25.8675 C.ar    1  UNL1        0.0679
     17 C          -7.4711  -15.7673   26.8267 C.ar    1  UNL1        0.0122
     18 C          -8.8331  -16.1219   26.3079 C.ar    1  UNL1        0.0006
     19 C          -9.0858  -16.1612   24.8299 C.ar    1  UNL1       -0.0020
     20 C          -7.9765  -15.8460   23.8707 C.ar    1  UNL1        0.0053
     21 C          -6.6145  -15.4915   24.3895 C.ar    1  UNL1        0.0655
     22 CL         -5.5052  -15.1762   23.4303 Cl      1  UNL1       -0.0816
@<TRIPOS>BOND
     1    15    16    1
     2    16    17   ar
     3    17    18   ar
     4    18    19   ar
     5    19    20   ar
     6    20    14    1
     7    14     1    1
     8     1     2    1
     9     2     3    1
    10     3     4    1
    11     4     5    1
    12     5     6    1
    13     6     7    1
    14     8     1    1
    15     8     9    1
    16     9    10    1
    17    10    11    1
    18    11    12    1
    19    20    21   ar
    20    21    22    1
    21    21    16   ar
    22     7     2    1
    23    12     8    1
    24    11    13    1
@<TRIPOS>MOLECULE
*****
 22 24 0 0 0
SMALL
GASTEIGER

@<TRIPOS>ATOM
      1 N          -8.1694  -17.7931   22.4974 N.3     1  UNL1       -0.2700
      2 C          -9.2831  -17.8546   21.4943 C.3     1  UNL1        0.0628
      3 C          -9.4280  -19.0554   20.6072 C.3     1  UNL1        0.0481
      4 C         -10.5416  -19.1168   19.6042 C.3     1  UNL1        0.1435
      5 O         -11.5103  -17.9774   19.4884 O.3     1  UNL1       -0.3537
      6 C         -11.3654  -16.7766   20.3755 C.3     1  UNL1        0.1435
      7 C         -10.2518  -16.7152   21.3785 C.3     1  UNL1        0.0481
      8 C          -8.0378  -16.6023   23.3999 C.3     1  UNL1        0.0748
      9 C          -8.5648  -16.4946   24.8001 C.3     1  UNL1        0.0344
     10 C          -8.2088  -15.1358   25.3262 C.3     1  UNL1        0.0700
     11 N          -7.4617  -14.4036   24.2512 N.3     1  UNL1       -0.2963
     12 C          -7.3560  -15.3099   23.0606 C.3     1  UNL1        0.0847
     13 H          -6.5290  -14.1583   24.5834 H       1  UNL1        0.1233
     14 C          -7.1874  -18.9225   22.5979 C.3     1  UNL1        0.1000
     15 CL         -2.1711  -17.5961   22.3201 Cl      1  UNL1       -0.0814
     16 C          -3.3909  -18.2034   21.6929 C.ar    1  UNL1        0.0679
     17 C          -3.3223  -18.7547   20.2996 C.ar    1  UNL1        0.0122
     18 C          -4.5420  -19.3620   19.6724 C.ar    1  UNL1        0.0006
     19 C          -5.8303  -19.4179   20.4385 C.ar    1  UNL1       -0.0020
     20 C          -5.8990  -18.8666   21.8318 C.ar    1  UNL1        0.0053
     21 C          -4.6792  -18.2593   22.4590 C.ar    1  UNL1        0.0655
     22 CL         -4.7479  -17.7080   23.8523 Cl      1  UNL1       -0.0816
@<TRIPOS>BOND
     1    15    16    1
     2    16    17   ar
     3    17    18   ar
     4    18    19   ar
     5    19    20   ar
     6    20    14    1
     7    14     1    1
     8     1     2    1
     9     2     3    1
    10     3     4    1
    11     4     5    1
    12     5     6    1
    13     6     7    1
    14     8     1    1
    15     8     9    1
    16     9    10    1
    17    10    11    1
    18    11    12    1
    19    20    21   ar
    20    21    22    1
    21    21    16   ar
    22     7     2    1
    23    12     8    1
    24    11    13    1
