@<TRIPOS>MOLECULE
*****
 24 27 0 0 0
SMALL
GASTEIGER

@<TRIPOS>ATOM
      1 C          -8.9201  -19.2927   22.7131 C.3     1  UNL1        0.0409
      2 C          -9.8254  -18.1323   22.4234 C.3     1  UNL1        0.0707
      3 N         -11.0540  -17.9136   23.2556 N.3     1  UNL1       -0.2974
      4 C         -11.3774  -18.8553   24.3775 C.3     1  UNL1        0.0689
      5 C         -10.4721  -20.0157   24.6672 C.3     1  UNL1        0.0212
      6 C          -9.2435  -20.2344   23.8350 C.3     1  UNL1        0.0234
      7 C          -8.0148  -20.4531   23.0028 C.3     1  UNL1        0.0078
      8 H         -11.8492  -17.9322   22.6171 H       1  UNL1        0.1232
      9 C          -9.5795  -19.0208   23.0201 C.ar    1  UNL1       -0.0218
     10 C          -9.2002  -17.6564   23.5149 C.ar    1  UNL1       -0.0034
     11 C          -9.5362  -16.4428   22.6999 C.ar    1  UNL1        0.0119
     12 C         -10.2514  -16.5935   21.3901 C.ar    1  UNL1        0.0682
     13 CL        -10.5874  -15.3798   20.5751 Cl      1  UNL1       -0.0814
     14 C         -10.6307  -17.9577   20.8952 C.ar    1  UNL1        0.0679
     15 CL        -11.3459  -18.1084   19.5854 Cl      1  UNL1       -0.0814
     16 C         -10.2947  -19.1714   21.7102 C.ar    1  UNL1        0.0080
     17 C          -8.0241  -18.8753   21.5850 C.3     1  UNL1        0.1303
     18 C          -3.1180  -17.7077   23.1495 C.3     1  UNL1        0.0756
     19 C          -4.2793  -18.3767   22.4760 C.ar    1  UNL1        0.1604
     20 N          -4.2048  -19.5673   21.5667 N.ar    1  UNL1       -0.2146
     21 C          -5.5986  -19.8991   21.1222 C.ar    1  UNL1        0.1379
     22 C          -5.9880  -21.0196   20.2043 C.3     1  UNL1        0.0734
     23 N          -6.5344  -18.9134   21.7568 N.ar    1  UNL1       -0.2366
     24 N          -5.7191  -17.9726   22.5935 N.ar    1  UNL1       -0.1534
@<TRIPOS>BOND
     1    18    19    1
     2    19    20   ar
     3    20    21   ar
     4    21    22    1
     5    21    23   ar
     6    23    17    1
     7    17     1    1
     8     1     2    1
     9     2     3    1
    10     3     4    1
    11     4     5    1
    12     5     6    1
    13     6     9    1
    14     9    10   ar
    15    10    11   ar
    16    11    12   ar
    17    12    13    1
    18    12    14   ar
    19    14    15    1
    20    14    16   ar
    21     6     7    1
    22    23    24   ar
    23    24    19   ar
    24     6     1    1
    25    16     9   ar
    26     7     1    1
    27     3     8    1
@<TRIPOS>MOLECULE
*****
 24 27 0 0 0
SMALL
GASTEIGER

@<TRIPOS>ATOM
      1 C         -10.1735  -18.4221   22.9815 C.3     1  UNL1        0.0409
      2 C         -11.0821  -17.6443   22.0762 C.3     1  UNL1        0.0707
      3 N         -12.5252  -17.4594   22.4409 N.3     1  UNL1       -0.2974
      4 C         -13.0599  -18.0523   23.7108 C.3     1  UNL1        0.0689
      5 C         -12.1513  -18.8302   24.6160 C.3     1  UNL1        0.0212
      6 C         -10.7082  -19.0151   24.2514 C.3     1  UNL1        0.0234
      7 C          -9.2649  -19.2000   23.8867 C.3     1  UNL1        0.0078
      8 H         -13.0747  -17.8540   21.6775 H       1  UNL1        0.1232
      9 C         -10.9241  -18.2237   22.9956 C.ar    1  UNL1       -0.0218
     10 C         -11.0234  -16.7282   23.0592 C.ar    1  UNL1       -0.0034
     11 C         -11.2393  -15.9368   21.8034 C.ar    1  UNL1        0.0119
     12 C         -11.3559  -16.6408   20.4840 C.ar    1  UNL1        0.0682
     13 CL        -11.5718  -15.8493   19.2282 Cl      1  UNL1       -0.0814
     14 C         -11.2566  -18.1361   20.4203 C.ar    1  UNL1        0.0679
     15 CL        -11.3732  -18.8400   19.1009 Cl      1  UNL1       -0.0814
     16 C         -11.0407  -18.9276   21.6761 C.ar    1  UNL1        0.0080
     17 C          -9.0316  -18.1866   22.0378 C.3     1  UNL1        0.1303
     18 C          -5.3809  -15.3106   24.5441 C.3     1  UNL1        0.0756
     19 C          -6.0365  -16.3740   23.7139 C.ar    1  UNL1        0.1604
     20 N          -5.3391  -17.5079   23.0227 N.ar    1  UNL1       -0.2146
     21 C          -6.3761  -18.3250   22.3106 C.ar    1  UNL1        0.1379
     22 C          -6.1198  -19.5550   21.4914 C.3     1  UNL1        0.0734
     23 N          -7.7146  -17.6959   22.5619 N.ar    1  UNL1       -0.2366
     24 N          -7.5046  -16.4902   23.4291 N.ar    1  UNL1       -0.1534
@<TRIPOS>BOND
     1    18    19    1
     2    19    20   ar
     3    20    21   ar
     4    21    22    1
     5    21    23   ar
     6    23    17    1
     7    17     1    1
     8     1     2    1
     9     2     3    1
    10     3     4    1
    11     4     5    1
    12     5     6    1
    13     6     9    1
    14     9    10   ar
    15    10    11   ar
    16    11    12   ar
    17    12    13    1
    18    12    14   ar
    19    14    15    1
    20    14    16   ar
    21     6     7    1
    22    23    24   ar
    23    24    19   ar
    24     6     1    1
    25    16     9   ar
    26     7     1    1
    27     3     8    1
@<TRIPOS>MOLECULE
*****
 24 27 0 0 0
SMALL
GASTEIGER

@<TRIPOS>ATOM
      1 C          -9.8152  -18.0534   23.0463 C.3     1  UNL1        0.0409
      2 C         -10.8714  -17.4800   22.1487 C.3     1  UNL1        0.0707
      3 N         -12.3197  -17.6094   22.5169 N.3     1  UNL1       -0.2974
      4 C         -12.7118  -18.3122   23.7827 C.3     1  UNL1        0.0689
      5 C         -11.6557  -18.8857   24.6803 C.3     1  UNL1        0.0212
      6 C         -10.2074  -18.7562   24.3121 C.3     1  UNL1        0.0234
      7 C          -8.7590  -18.6268   23.9439 C.3     1  UNL1        0.0078
      8 H         -12.7750  -18.1061   21.7512 H       1  UNL1        0.1232
      9 C         -10.5908  -18.0194   23.0631 C.ar    1  UNL1       -0.0218
     10 C         -10.8748  -16.5475   23.1179 C.ar    1  UNL1       -0.0034
     11 C         -11.2582  -15.8106   21.8689 C.ar    1  UNL1        0.0119
     12 C         -11.3576  -16.5456   20.5651 C.ar    1  UNL1        0.0682
     13 CL        -11.7410  -15.8087   19.3160 Cl      1  UNL1       -0.0814
     14 C         -11.0737  -18.0174   20.5102 C.ar    1  UNL1        0.0679
     15 CL        -11.1731  -18.7524   19.2064 Cl      1  UNL1       -0.0814
     16 C         -10.6902  -18.7544   21.7593 C.ar    1  UNL1        0.0080
     17 C          -8.7527  -17.5729   22.1029 C.3     1  UNL1        0.1303
     18 C          -3.5818  -18.1414   23.0081 C.3     1  UNL1        0.0756
     19 C          -4.9806  -17.6000   23.0173 C.ar    1  UNL1        0.1604
     20 N          -5.4400  -16.3564   23.7190 N.ar    1  UNL1       -0.2146
     21 C          -6.9090  -16.1948   23.4619 C.ar    1  UNL1        0.1379
     22 C          -7.7770  -15.0845   23.9752 C.3     1  UNL1        0.0734
     23 N          -7.3574  -17.3387   22.6013 N.ar    1  UNL1       -0.2366
     24 N          -6.1656  -18.2070   22.3265 N.ar    1  UNL1       -0.1534
@<TRIPOS>BOND
     1    18    19    1
     2    19    20   ar
     3    20    21   ar
     4    21    22    1
     5    21    23   ar
     6    23    17    1
     7    17     1    1
     8     1     2    1
     9     2     3    1
    10     3     4    1
    11     4     5    1
    12     5     6    1
    13     6     9    1
    14     9    10   ar
    15    10    11   ar
    16    11    12   ar
    17    12    13    1
    18    12    14   ar
    19    14    15    1
    20    14    16   ar
    21     6     7    1
    22    23    24   ar
    23    24    19   ar
    24     6     1    1
    25    16     9   ar
    26     7     1    1
    27     3     8    1
@<TRIPOS>MOLECULE
*****
 24 27 0 0 0
SMALL
GASTEIGER

@<TRIPOS>ATOM
      1 C          -9.8750  -18.0020   24.2215 C.3     1  UNL1        0.0409
      2 C         -10.3431  -17.7548   22.8181 C.3     1  UNL1        0.0707
      3 N         -10.8825  -18.8882   21.9969 N.3     1  UNL1       -0.2974
      4 C         -10.9539  -20.2687   22.5791 C.3     1  UNL1        0.0689
      5 C         -10.4858  -20.5159   23.9826 C.3     1  UNL1        0.0212
      6 C          -9.9463  -19.3826   24.8038 C.3     1  UNL1        0.0234
      7 C          -9.4068  -18.2492   25.6251 C.3     1  UNL1        0.0078
      8 H         -10.2997  -18.9505   21.1621 H       1  UNL1        0.1232
      9 C         -10.1754  -18.4428   23.6573 C.ar    1  UNL1       -0.0218
     10 C          -9.1926  -18.3869   22.5255 C.ar    1  UNL1       -0.0034
     11 C          -9.4216  -17.4471   21.3790 C.ar    1  UNL1        0.0119
     12 C         -10.6336  -16.5634   21.3643 C.ar    1  UNL1        0.0682
     13 CL        -10.8626  -15.6236   20.2178 Cl      1  UNL1       -0.0814
     14 C         -11.6164  -16.6193   22.4961 C.ar    1  UNL1        0.0679
     15 CL        -12.8283  -15.7355   22.4814 Cl      1  UNL1       -0.0814
     16 C         -11.3873  -17.5591   23.6426 C.ar    1  UNL1        0.0080
     17 C          -9.5223  -16.5506   24.3595 C.3     1  UNL1        0.1303
     18 C          -4.3725  -15.6442   23.6262 C.3     1  UNL1        0.0756
     19 C          -5.7306  -15.7273   24.2574 C.ar    1  UNL1        0.1604
     20 N          -6.0805  -15.3091   25.6548 N.ar    1  UNL1       -0.2146
     21 C          -7.5435  -15.5666   25.8632 C.ar    1  UNL1        0.1379
     22 C          -8.3164  -15.2945   27.1195 C.3     1  UNL1        0.0734
     23 N          -8.0978  -16.1440   24.5945 N.ar    1  UNL1       -0.2366
     24 N          -6.9773  -16.2433   23.6021 N.ar    1  UNL1       -0.1534
@<TRIPOS>BOND
     1    18    19    1
     2    19    20   ar
     3    20    21   ar
     4    21    22    1
     5    21    23   ar
     6    23    17    1
     7    17     1    1
     8     1     2    1
     9     2     3    1
    10     3     4    1
    11     4     5    1
    12     5     6    1
    13     6     9    1
    14     9    10   ar
    15    10    11   ar
    16    11    12   ar
    17    12    13    1
    18    12    14   ar
    19    14    15    1
    20    14    16   ar
    21     6     7    1
    22    23    24   ar
    23    24    19   ar
    24     6     1    1
    25    16     9   ar
    26     7     1    1
    27     3     8    1
@<TRIPOS>MOLECULE
*****
 24 27 0 0 0
SMALL
GASTEIGER

@<TRIPOS>ATOM
      1 C          -9.4727  -19.3969   22.5071 C.3     1  UNL1        0.0409
      2 C         -10.5281  -18.4573   22.0040 C.3     1  UNL1        0.0707
      3 N         -11.6868  -18.0907   22.8832 N.3     1  UNL1       -0.2974
      4 C         -11.7900  -18.6638   24.2656 C.3     1  UNL1        0.0689
      5 C         -10.7346  -19.6034   24.7687 C.3     1  UNL1        0.0212
      6 C          -9.5760  -19.9700   23.8894 C.3     1  UNL1        0.0234
      7 C          -8.4173  -20.3366   23.0102 C.3     1  UNL1        0.0078
      8 H         -12.5331  -18.3676   22.3858 H       1  UNL1        0.1232
      9 C         -10.1257  -19.0966   22.8009 C.ar    1  UNL1       -0.0218
     10 C         -11.0369  -19.6783   21.7609 C.ar    1  UNL1       -0.0034
     11 C         -11.5866  -18.8049   20.6723 C.ar    1  UNL1        0.0119
     12 C         -11.2253  -17.3499   20.6237 C.ar    1  UNL1        0.0682
     13 CL        -11.7751  -16.4766   19.5351 Cl      1  UNL1       -0.0814
     14 C         -10.3142  -16.7683   21.6637 C.ar    1  UNL1        0.0679
     15 CL         -9.9529  -15.3132   21.6151 Cl      1  UNL1       -0.0814
     16 C          -9.7644  -17.6416   22.7523 C.ar    1  UNL1        0.0080
     17 C          -8.7442  -19.2778   21.2013 C.3     1  UNL1        0.1303
     18 C          -3.7638  -20.6206   20.0730 C.3     1  UNL1        0.0756
     19 C          -4.9554  -19.9201   20.6555 C.ar    1  UNL1        0.1604
     20 N          -4.9187  -18.7629   21.6091 N.ar    1  UNL1       -0.2146
     21 C          -6.3335  -18.3814   21.9298 C.ar    1  UNL1        0.1379
     22 C          -6.7620  -17.2731   22.8451 C.3     1  UNL1        0.0734
     23 N          -7.2446  -19.3029   21.1742 N.ar    1  UNL1       -0.2366
     24 N          -6.3929  -20.2538   20.3867 N.ar    1  UNL1       -0.1534
@<TRIPOS>BOND
     1    18    19    1
     2    19    20   ar
     3    20    21   ar
     4    21    22    1
     5    21    23   ar
     6    23    17    1
     7    17     1    1
     8     1     2    1
     9     2     3    1
    10     3     4    1
    11     4     5    1
    12     5     6    1
    13     6     9    1
    14     9    10   ar
    15    10    11   ar
    16    11    12   ar
    17    12    13    1
    18    12    14   ar
    19    14    15    1
    20    14    16   ar
    21     6     7    1
    22    23    24   ar
    23    24    19   ar
    24     6     1    1
    25    16     9   ar
    26     7     1    1
    27     3     8    1
@<TRIPOS>MOLECULE
*****
 24 27 0 0 0
SMALL
GASTEIGER

@<TRIPOS>ATOM
      1 C          -9.2524  -19.0531   21.4435 C.3     1  UNL1        0.0409
      2 C          -9.9264  -18.5969   22.7034 C.3     1  UNL1        0.0707
      3 N         -11.2509  -17.8962   22.6340 N.3     1  UNL1       -0.2974
      4 C         -11.9014  -17.6519   21.3046 C.3     1  UNL1        0.0689
      5 C         -11.2274  -18.1082   20.0447 C.3     1  UNL1        0.0212
      6 C          -9.9029  -18.8088   20.1141 C.3     1  UNL1        0.0234
      7 C          -8.5783  -19.5095   20.1835 C.3     1  UNL1        0.0078
      8 H         -11.1247  -16.9838   23.0721 H       1  UNL1        0.1232
      9 C          -9.9165  -18.6864   21.6090 C.ar    1  UNL1       -0.0218
     10 C         -10.3879  -19.8347   22.4513 C.ar    1  UNL1       -0.0034
     11 C         -10.4015  -19.7123   23.9462 C.ar    1  UNL1        0.0119
     12 C          -9.9438  -18.4417   24.5989 C.ar    1  UNL1        0.0682
     13 CL         -9.9575  -18.3193   26.0939 Cl      1  UNL1       -0.0814
     14 C          -9.4725  -17.2934   23.7567 C.ar    1  UNL1        0.0679
     15 CL         -9.0147  -16.0228   24.4094 Cl      1  UNL1       -0.0814
     16 C          -9.4588  -17.4158   22.2617 C.ar    1  UNL1        0.0080
     17 C          -8.1122  -19.5987   22.2510 C.3     1  UNL1        0.1303
     18 C          -3.6214  -20.4865   19.6195 C.3     1  UNL1        0.0756
     19 C          -4.6417  -19.8785   20.5356 C.ar    1  UNL1        0.1604
     20 N          -4.4420  -18.6675   21.3979 N.ar    1  UNL1       -0.2146
     21 C          -5.7177  -18.4153   22.1455 C.ar    1  UNL1        0.1379
     22 C          -5.9623  -17.3033   23.1219 C.3     1  UNL1        0.0734
     23 N          -6.7059  -19.4704   21.7452 N.ar    1  UNL1       -0.2366
     24 N          -6.0409  -20.3747   20.7502 N.ar    1  UNL1       -0.1534
@<TRIPOS>BOND
     1    18    19    1
     2    19    20   ar
     3    20    21   ar
     4    21    22    1
     5    21    23   ar
     6    23    17    1
     7    17     1    1
     8     1     2    1
     9     2     3    1
    10     3     4    1
    11     4     5    1
    12     5     6    1
    13     6     9    1
    14     9    10   ar
    15    10    11   ar
    16    11    12   ar
    17    12    13    1
    18    12    14   ar
    19    14    15    1
    20    14    16   ar
    21     6     7    1
    22    23    24   ar
    23    24    19   ar
    24     6     1    1
    25    16     9   ar
    26     7     1    1
    27     3     8    1
@<TRIPOS>MOLECULE
*****
 24 27 0 0 0
SMALL
GASTEIGER

@<TRIPOS>ATOM
      1 C         -10.2823  -17.0813   23.4115 C.3     1  UNL1        0.0409
      2 C         -10.2775  -18.5802   23.3559 C.3     1  UNL1        0.0707
      3 N         -10.9986  -19.2920   22.2498 N.3     1  UNL1       -0.2974
      4 C         -11.7244  -18.5048   21.1993 C.3     1  UNL1        0.0689
      5 C         -11.7291  -17.0058   21.2549 C.3     1  UNL1        0.0212
      6 C         -11.0080  -16.2941   22.3610 C.3     1  UNL1        0.0234
      7 C         -10.2870  -15.5823   23.4671 C.3     1  UNL1        0.0078
      8 H         -11.6885  -19.8998   22.6913 H       1  UNL1        0.1232
      9 C         -10.5863  -17.6140   22.9353 C.ar    1  UNL1       -0.0218
     10 C         -11.4090  -18.2618   24.0094 C.ar    1  UNL1       -0.0034
     11 C         -10.9873  -19.5817   24.5838 C.ar    1  UNL1        0.0119
     12 C          -9.7429  -20.2539   24.0841 C.ar    1  UNL1        0.0682
     13 CL         -9.3212  -21.5739   24.6586 Cl      1  UNL1       -0.0814
     14 C          -8.9202  -19.6061   23.0101 C.ar    1  UNL1        0.0679
     15 CL         -7.6758  -20.2783   22.5104 Cl      1  UNL1       -0.0814
     16 C          -9.3419  -18.2862   22.4357 C.ar    1  UNL1        0.0080
     17 C          -9.4470  -17.1249   24.6565 C.3     1  UNL1        0.1303
     18 C          -4.7261  -15.1613   23.3383 C.3     1  UNL1        0.0756
     19 C          -5.9743  -15.4806   24.1061 C.ar    1  UNL1        0.1604
     20 N          -6.3051  -15.0032   25.4891 N.ar    1  UNL1       -0.2146
     21 C          -7.6463  -15.5610   25.8637 C.ar    1  UNL1        0.1379
     22 C          -8.3634  -15.3361   27.1617 C.3     1  UNL1        0.0734
     23 N          -8.1443  -16.3832   24.7121 N.ar    1  UNL1       -0.2366
     24 N          -7.1110  -16.3335   23.6259 N.ar    1  UNL1       -0.1534
@<TRIPOS>BOND
     1    18    19    1
     2    19    20   ar
     3    20    21   ar
     4    21    22    1
     5    21    23   ar
     6    23    17    1
     7    17     1    1
     8     1     2    1
     9     2     3    1
    10     3     4    1
    11     4     5    1
    12     5     6    1
    13     6     9    1
    14     9    10   ar
    15    10    11   ar
    16    11    12   ar
    17    12    13    1
    18    12    14   ar
    19    14    15    1
    20    14    16   ar
    21     6     7    1
    22    23    24   ar
    23    24    19   ar
    24     6     1    1
    25    16     9   ar
    26     7     1    1
    27     3     8    1
@<TRIPOS>MOLECULE
*****
 24 27 0 0 0
SMALL
GASTEIGER

@<TRIPOS>ATOM
      1 C         -11.3567   -3.7812   18.0711 C.3     1  UNL1        0.0409
      2 C         -10.4235   -4.9475   17.9338 C.3     1  UNL1        0.0707
      3 N          -9.2662   -4.8740   16.9823 N.3     1  UNL1       -0.2974
      4 C          -9.0422   -3.6343   16.1681 C.3     1  UNL1        0.0689
      5 C          -9.9754   -2.4680   16.3054 C.3     1  UNL1        0.0212
      6 C         -11.1327   -2.5415   17.2569 C.3     1  UNL1        0.0234
      7 C         -12.2900   -2.6149   18.2084 C.3     1  UNL1        0.0078
      8 H          -9.3785   -5.6435   16.3222 H       1  UNL1        0.1232
      9 C         -10.7232   -3.9305   17.6476 C.ar    1  UNL1       -0.0218
     10 C          -9.8194   -4.1425   18.8259 C.ar    1  UNL1       -0.0034
     11 C          -9.4099   -5.5316   19.2167 C.ar    1  UNL1        0.0119
     12 C          -9.9042   -6.7087   18.4293 C.ar    1  UNL1        0.0682
     13 CL         -9.4946   -8.0979   18.8201 Cl      1  UNL1       -0.0814
     14 C         -10.8079   -6.4968   17.2511 C.ar    1  UNL1        0.0679
     15 CL        -11.3022   -7.6739   16.4636 Cl      1  UNL1       -0.0814
     16 C         -11.2175   -5.1077   16.8602 C.ar    1  UNL1        0.0080
     17 C         -12.1541   -4.5393   19.0905 C.3     1  UNL1        0.1303
     18 C         -17.1814   -5.1402   17.5917 C.3     1  UNL1        0.0756
     19 C         -15.9635   -4.7549   18.3779 C.ar    1  UNL1        0.1604
     20 N         -15.9542   -4.0157   19.6831 N.ar    1  UNL1       -0.2146
     21 C         -14.5260   -3.8450   20.1090 C.ar    1  UNL1        0.1379
     22 C         -14.0541   -3.1608   21.3575 C.3     1  UNL1        0.0734
     23 N         -13.6527   -4.4787   19.0669 N.ar    1  UNL1       -0.2366
     24 N         -14.5412   -5.0410   17.9970 N.ar    1  UNL1       -0.1534
@<TRIPOS>BOND
     1    18    19    1
     2    19    20   ar
     3    20    21   ar
     4    21    22    1
     5    21    23   ar
     6    23    17    1
     7    17     1    1
     8     1     2    1
     9     2     3    1
    10     3     4    1
    11     4     5    1
    12     5     6    1
    13     6     9    1
    14     9    10   ar
    15    10    11   ar
    16    11    12   ar
    17    12    13    1
    18    12    14   ar
    19    14    15    1
    20    14    16   ar
    21     6     7    1
    22    23    24   ar
    23    24    19   ar
    24     6     1    1
    25    16     9   ar
    26     7     1    1
    27     3     8    1
@<TRIPOS>MOLECULE
*****
 24 27 0 0 0
SMALL
GASTEIGER

@<TRIPOS>ATOM
      1 C         -12.1658   -6.0049   18.0335 C.3     1  UNL1        0.0409
      2 C         -12.0215   -4.5550   18.3897 C.3     1  UNL1        0.0707
      3 N         -10.7443   -4.0554   18.9973 N.3     1  UNL1       -0.2974
      4 C          -9.6114   -5.0058   19.2487 C.3     1  UNL1        0.0689
      5 C          -9.7556   -6.4557   18.8925 C.3     1  UNL1        0.0212
      6 C         -11.0328   -6.9552   18.2849 C.3     1  UNL1        0.0234
      7 C         -12.3101   -7.4548   17.6772 C.3     1  UNL1        0.0078
      8 H         -10.9882   -3.6432   19.8978 H       1  UNL1        0.1232
      9 C         -11.6036   -5.5694   18.3454 C.ar    1  UNL1       -0.0218
     10 C         -11.4881   -4.6583   17.1594 C.ar    1  UNL1       -0.0034
     11 C         -12.0589   -3.2725   17.2199 C.ar    1  UNL1        0.0119
     12 C         -12.7452   -2.7978   18.4664 C.ar    1  UNL1        0.0682
     13 CL        -13.3160   -1.4119   18.5269 Cl      1  UNL1       -0.0814
     14 C         -12.8607   -3.7088   19.6523 C.ar    1  UNL1        0.0679
     15 CL        -13.5469   -3.2341   20.8988 Cl      1  UNL1       -0.0814
     16 C         -12.2899   -5.0947   19.5918 C.ar    1  UNL1        0.0080
     17 C         -13.5572   -5.7446   17.5375 C.3     1  UNL1        0.1303
     18 C         -16.7660   -9.0522   20.1150 C.3     1  UNL1        0.0756
     19 C         -16.2100   -7.8185   19.4681 C.ar    1  UNL1        0.1604
     20 N         -16.8853   -6.4811   19.3941 N.ar    1  UNL1       -0.2146
     21 C         -15.9738   -5.5414   18.6619 C.ar    1  UNL1        0.1379
     22 C         -16.2520   -4.0986   18.3611 C.3     1  UNL1        0.0734
     23 N         -14.7351   -6.2981   18.2834 N.ar    1  UNL1       -0.2366
     24 N         -14.8811   -7.7053   18.7817 N.ar    1  UNL1       -0.1534
@<TRIPOS>BOND
     1    18    19    1
     2    19    20   ar
     3    20    21   ar
     4    21    22    1
     5    21    23   ar
     6    23    17    1
     7    17     1    1
     8     1     2    1
     9     2     3    1
    10     3     4    1
    11     4     5    1
    12     5     6    1
    13     6     9    1
    14     9    10   ar
    15    10    11   ar
    16    11    12   ar
    17    12    13    1
    18    12    14   ar
    19    14    15    1
    20    14    16   ar
    21     6     7    1
    22    23    24   ar
    23    24    19   ar
    24     6     1    1
    25    16     9   ar
    26     7     1    1
    27     3     8    1
