@<TRIPOS>MOLECULE
*****
 28 31 0 0 0
SMALL
GASTEIGER

@<TRIPOS>ATOM
      1 C          -4.5749  -17.8223   22.9432 C.ar    1  UNL1        0.0527
      2 C          -5.2942  -16.6435   23.5287 C.ar    1  UNL1        0.1414
      3 F          -4.5321  -15.6076   24.3007 F       1  UNL1       -0.2043
      4 C          -6.7757  -16.5006   23.3422 C.ar    1  UNL1        0.0486
      5 C          -7.5379  -17.5364   22.5703 C.ar    1  UNL1        0.0869
      6 C          -6.8185  -18.7153   21.9847 C.ar    1  UNL1        0.0486
      7 C          -5.3370  -18.8582   22.1711 C.ar    1  UNL1        0.1414
      8 F          -4.6177  -20.0370   21.5856 F       1  UNL1       -0.2043
      9 N          -9.0194  -17.3935   22.3838 N.ar    1  UNL1       -0.2338
     10 N          -9.7006  -16.6564   21.2691 N.ar    1  UNL1       -0.1617
     11 C         -11.1820  -16.7700   21.4757 C.ar    1  UNL1        0.1720
     12 C         -11.4162  -17.5773   22.7180 C.ar    1  UNL1        0.0443
     13 C         -10.0796  -17.9627   23.2793 C.ar    1  UNL1        0.0628
     14 C         -10.0007  -18.7821   24.5332 C.3     1  UNL1        0.0777
     15 C         -11.2584  -19.2161   25.2258 C.3     1  UNL1        0.1489
     16 O         -12.5950  -18.8307   24.6646 O.3     1  UNL1       -0.3485
     17 C         -12.6739  -18.0113   23.4107 C.3     1  UNL1        0.1713
     18 C         -12.2429  -16.1798   20.5947 C.3     1  UNL1        0.4363
     19 F         -13.3038  -15.5897   19.7135 F       1  UNL1       -0.1644
     20 F         -11.6138  -16.8328   19.3998 F       1  UNL1       -0.1644
     21 F         -12.8720  -15.5268   21.7895 F       1  UNL1       -0.1644
     22 C          -3.0934  -17.9652   23.1296 C.3     1  UNL1        0.1246
     23 O          -1.7092  -20.3200   21.3439 O.2     1  UNL1       -0.2749
     24 C          -1.5318  -18.8437   21.1459 C.2     1  UNL1        0.2259
     25 C          -0.6870  -18.1907   20.0925 C.3     1  UNL1        0.0870
     26 C          -0.8011  -16.7046   20.2622 C.3     1  UNL1        0.0311
     27 C          -1.7164  -16.4393   21.4206 C.3     1  UNL1        0.0942
     28 N          -2.1681  -17.7613   21.9668 N.am    1  UNL1       -0.2753
@<TRIPOS>BOND
     1    23    24    2
     2    24    25    1
     3    25    26    1
     4    26    27    1
     5    27    28    1
     6    28    22    1
     7    22     1    1
     8     1     2   ar
     9     2     3    1
    10     2     4   ar
    11     4     5   ar
    12     5     9    1
    13     9    10   ar
    14    10    11   ar
    15    11    18    1
    16    18    19    1
    17    18    20    1
    18    18    21    1
    19    11    12   ar
    20    12    13   ar
    21    13    14    1
    22    14    15    1
    23    15    16    1
    24    16    17    1
    25     5     6   ar
    26     6     7   ar
    27     7     8    1
    28    28    24   am
    29     7     1   ar
    30    13     9   ar
    31    17    12    1
@<TRIPOS>MOLECULE
*****
 28 31 0 0 0
SMALL
GASTEIGER

@<TRIPOS>ATOM
      1 C          -5.5265  -19.6921   21.1545 C.ar    1  UNL1        0.0527
      2 C          -5.7827  -18.5977   22.1478 C.ar    1  UNL1        0.1414
      3 F          -4.6310  -17.9042   22.8132 F       1  UNL1       -0.2043
      4 C          -7.1904  -18.1969   22.4758 C.ar    1  UNL1        0.0486
      5 C          -8.3420  -18.8904   21.8105 C.ar    1  UNL1        0.0869
      6 C          -8.0859  -19.9848   20.8171 C.ar    1  UNL1        0.0486
      7 C          -6.6782  -20.3856   20.4891 C.ar    1  UNL1        0.1414
      8 F          -6.4222  -21.4800   19.4958 F       1  UNL1       -0.2043
      9 N          -9.7498  -18.4895   22.1385 N.ar    1  UNL1       -0.2338
     10 N         -10.5268  -18.9106   23.3505 N.ar    1  UNL1       -0.1617
     11 C         -11.8849  -18.2786   23.2730 C.ar    1  UNL1        0.1720
     12 C         -11.9473  -17.4668   22.0132 C.ar    1  UNL1        0.0443
     13 C         -10.6277  -17.5972   21.3120 C.ar    1  UNL1        0.0628
     14 C         -10.3960  -16.8866   20.0115 C.3     1  UNL1        0.0777
     15 C         -11.4839  -16.0456   19.4122 C.3     1  UNL1        0.1489
     16 O         -12.8035  -15.9152   20.1135 O.3     1  UNL1       -0.3485
     17 C         -13.0352  -16.6258   21.4139 C.3     1  UNL1        0.1713
     18 C         -12.9872  -18.4314   24.2789 C.3     1  UNL1        0.4363
     19 F         -14.0895  -18.5842   25.2846 F       1  UNL1       -0.1644
     20 F         -13.9980  -18.0997   23.2214 F       1  UNL1       -0.1644
     21 F         -11.9764  -18.7630   25.3362 F       1  UNL1       -0.1644
     22 C          -4.1188  -20.0929   20.8265 C.3     1  UNL1        0.1246
     23 O          -1.3389  -19.0202   22.1573 O.2     1  UNL1       -0.2749
     24 C          -1.8996  -18.6027   20.8302 C.2     1  UNL1        0.2259
     25 C          -1.2811  -17.6189   19.8818 C.3     1  UNL1        0.0870
     26 C          -2.1766  -17.5039   18.6839 C.3     1  UNL1        0.0311
     27 C          -3.3486  -18.4167   18.8919 C.3     1  UNL1        0.0942
     28 N          -3.1775  -19.0958   20.2185 N.am    1  UNL1       -0.2753
@<TRIPOS>BOND
     1    23    24    2
     2    24    25    1
     3    25    26    1
     4    26    27    1
     5    27    28    1
     6    28    22    1
     7    22     1    1
     8     1     2   ar
     9     2     3    1
    10     2     4   ar
    11     4     5   ar
    12     5     9    1
    13     9    10   ar
    14    10    11   ar
    15    11    18    1
    16    18    19    1
    17    18    20    1
    18    18    21    1
    19    11    12   ar
    20    12    13   ar
    21    13    14    1
    22    14    15    1
    23    15    16    1
    24    16    17    1
    25     5     6   ar
    26     6     7   ar
    27     7     8    1
    28    28    24   am
    29     7     1   ar
    30    13     9   ar
    31    17    12    1
@<TRIPOS>MOLECULE
*****
 28 31 0 0 0
SMALL
GASTEIGER

@<TRIPOS>ATOM
      1 C          -9.5392  -19.5954   21.4172 C.ar    1  UNL1        0.0527
      2 C          -9.0242  -19.5536   20.0090 C.ar    1  UNL1        0.1414
      3 F          -9.9504  -19.8347   18.8631 F       1  UNL1       -0.2043
      4 C          -7.5830  -19.2307   19.7468 C.ar    1  UNL1        0.0486
      5 C          -6.6569  -18.9496   20.8926 C.ar    1  UNL1        0.0869
      6 C          -7.1719  -18.9914   22.3009 C.ar    1  UNL1        0.0486
      7 C          -8.6131  -19.3143   22.5631 C.ar    1  UNL1        0.1414
      8 F          -9.1280  -19.3560   23.9713 F       1  UNL1       -0.2043
      9 N          -5.2157  -18.6268   20.6304 N.ar    1  UNL1       -0.2338
     10 N          -4.5801  -18.4630   19.2816 N.ar    1  UNL1       -0.1617
     11 C          -3.1287  -18.1460   19.4885 C.ar    1  UNL1        0.1720
     12 C          -2.8672  -18.1138   20.9652 C.ar    1  UNL1        0.0443
     13 C          -4.1571  -18.4110   21.6709 C.ar    1  UNL1        0.0628
     14 C          -4.2010  -18.4466   23.1698 C.3     1  UNL1        0.0777
     15 C          -2.9550  -18.1852   23.9630 C.3     1  UNL1        0.1489
     16 O          -1.6652  -17.8880   23.2573 O.3     1  UNL1       -0.3485
     17 C          -1.6213  -17.8524   21.7584 C.3     1  UNL1        0.1713
     18 C          -2.1164  -17.9037   18.4084 C.3     1  UNL1        0.4363
     19 F          -1.1042  -17.6613   17.3283 F       1  UNL1       -0.1644
     20 F          -3.0275  -16.8900   17.7820 F       1  UNL1       -0.1644
     21 F          -1.2054  -18.9173   19.0348 F       1  UNL1       -0.1644
     22 C         -10.9804  -19.9182   21.6794 C.3     1  UNL1        0.1246
     23 O         -12.2239  -17.2976   20.1842 O.2     1  UNL1       -0.2749
     24 C         -12.4494  -17.6859   21.6154 C.2     1  UNL1        0.2259
     25 C         -13.2859  -16.9378   22.6106 C.3     1  UNL1        0.0870
     26 C         -13.2314  -17.6800   23.9130 C.3     1  UNL1        0.0311
     27 C         -12.3612  -18.8868   23.7228 C.3     1  UNL1        0.0942
     28 N         -11.8777  -18.8905   22.3027 N.am    1  UNL1       -0.2753
@<TRIPOS>BOND
     1    23    24    2
     2    24    25    1
     3    25    26    1
     4    26    27    1
     5    27    28    1
     6    28    22    1
     7    22     1    1
     8     1     2   ar
     9     2     3    1
    10     2     4   ar
    11     4     5   ar
    12     5     9    1
    13     9    10   ar
    14    10    11   ar
    15    11    18    1
    16    18    19    1
    17    18    20    1
    18    18    21    1
    19    11    12   ar
    20    12    13   ar
    21    13    14    1
    22    14    15    1
    23    15    16    1
    24    16    17    1
    25     5     6   ar
    26     6     7   ar
    27     7     8    1
    28    28    24   am
    29     7     1   ar
    30    13     9   ar
    31    17    12    1
@<TRIPOS>MOLECULE
*****
 28 31 0 0 0
SMALL
GASTEIGER

@<TRIPOS>ATOM
      1 C          -0.2676    2.8494   19.8332 C.ar    1  UNL1        0.0527
      2 C           0.2573    2.5191   18.4675 C.ar    1  UNL1        0.1414
      3 F          -0.1655    3.3372   17.2834 F       1  UNL1       -0.2043
      4 C           1.2050    1.3706   18.2857 C.ar    1  UNL1        0.0486
      5 C           1.6278    0.5526   19.4697 C.ar    1  UNL1        0.0869
      6 C           1.1029    0.8829   20.8356 C.ar    1  UNL1        0.0486
      7 C           0.1552    2.0314   21.0173 C.ar    1  UNL1        0.1414
      8 F          -0.3696    2.3616   22.3831 F       1  UNL1       -0.2043
      9 N           2.5755   -0.5959   19.2880 N.ar    1  UNL1       -0.2338
     10 N           2.3802   -1.9904   19.8048 N.ar    1  UNL1       -0.1617
     11 C           3.5688   -2.8078   19.3937 C.ar    1  UNL1        0.1720
     12 C           4.4988   -1.9184   18.6228 C.ar    1  UNL1        0.0443
     13 C           3.8848   -0.5514   18.5575 C.ar    1  UNL1        0.0628
     14 C           4.5974    0.5573   17.8413 C.3     1  UNL1        0.0777
     15 C           5.9239    0.2990   17.1904 C.3     1  UNL1        0.1489
     16 O           6.5378   -1.0680   17.2558 O.3     1  UNL1       -0.3485
     17 C           5.8253   -2.1767   17.9720 C.3     1  UNL1        0.1713
     18 C           3.7889   -4.2596   19.6998 C.3     1  UNL1        0.4363
     19 F           4.0090   -5.7115   20.0058 F       1  UNL1       -0.1644
     20 F           2.7101   -4.6286   18.7252 F       1  UNL1       -0.1644
     21 F           4.8678   -3.8906   20.6743 F       1  UNL1       -0.1644
     22 C          -1.2152    3.9979   20.0150 C.3     1  UNL1        0.1246
     23 O          -3.7839    2.8947   21.6986 O.2     1  UNL1       -0.2749
     24 C          -3.8042    3.3885   20.2823 C.2     1  UNL1        0.2259
     25 C          -5.0085    3.4618   19.3913 C.3     1  UNL1        0.0870
     26 C          -4.5722    4.0142   18.0667 C.3     1  UNL1        0.0311
     27 C          -3.0982    4.2823   18.1391 C.3     1  UNL1        0.0942
     28 N          -2.6234    3.8955   19.5084 N.am    1  UNL1       -0.2753
@<TRIPOS>BOND
     1    23    24    2
     2    24    25    1
     3    25    26    1
     4    26    27    1
     5    27    28    1
     6    28    22    1
     7    22     1    1
     8     1     2   ar
     9     2     3    1
    10     2     4   ar
    11     4     5   ar
    12     5     9    1
    13     9    10   ar
    14    10    11   ar
    15    11    18    1
    16    18    19    1
    17    18    20    1
    18    18    21    1
    19    11    12   ar
    20    12    13   ar
    21    13    14    1
    22    14    15    1
    23    15    16    1
    24    16    17    1
    25     5     6   ar
    26     6     7   ar
    27     7     8    1
    28    28    24   am
    29     7     1   ar
    30    13     9   ar
    31    17    12    1
@<TRIPOS>MOLECULE
*****
 28 31 0 0 0
SMALL
GASTEIGER

@<TRIPOS>ATOM
      1 C          -0.1957    2.7040   20.1212 C.ar    1  UNL1        0.0527
      2 C           0.0094    2.0265   21.4437 C.ar    1  UNL1        0.1414
      3 F          -0.6576    2.5660   22.6742 F       1  UNL1       -0.2043
      4 C           0.8815    0.8096   21.5357 C.ar    1  UNL1        0.0486
      5 C           1.5485    0.2700   20.3054 C.ar    1  UNL1        0.0869
      6 C           1.3434    0.9475   18.9828 C.ar    1  UNL1        0.0486
      7 C           0.4713    2.1645   18.8908 C.ar    1  UNL1        0.1414
      8 F           0.2662    2.8419   17.5683 F       1  UNL1       -0.2043
      9 N           2.4206   -0.9469   20.3974 N.ar    1  UNL1       -0.2338
     10 N           2.7162   -1.9061   19.2827 N.ar    1  UNL1       -0.1617
     11 C           3.6285   -2.9703   19.8167 C.ar    1  UNL1        0.1720
     12 C           3.8969   -2.6688   21.2613 C.ar    1  UNL1        0.0443
     13 C           3.1504   -1.4182   21.6202 C.ar    1  UNL1        0.0628
     14 C           3.2315   -0.8702   23.0141 C.3     1  UNL1        0.0777
     15 C           4.0592   -1.5728   24.0492 C.3     1  UNL1        0.1489
     16 O           4.8057   -2.8233   23.6903 O.3     1  UNL1       -0.3485
     17 C           4.7245   -3.3713   22.2964 C.3     1  UNL1        0.1713
     18 C           4.1764   -4.1321   19.0420 C.3     1  UNL1        0.4363
     19 F           4.7243   -5.2939   18.2673 F       1  UNL1       -0.1644
     20 F           5.4281   -3.3547   18.7613 F       1  UNL1       -0.1644
     21 F           2.9247   -4.9095   19.3226 F       1  UNL1       -0.1644
     22 C          -1.0679    3.9209   20.0292 C.3     1  UNL1        0.1246
     23 O          -3.7506    2.9920   21.6384 O.2     1  UNL1       -0.2749
     24 C          -3.6816    3.3853   20.1926 C.2     1  UNL1        0.2259
     25 C          -4.8335    3.4207   19.2326 C.3     1  UNL1        0.0870
     26 C          -4.3124    3.8696   17.8995 C.3     1  UNL1        0.0311
     27 C          -2.8384    4.1116   18.0356 C.3     1  UNL1        0.0942
     28 N          -2.4484    3.8123   19.4529 N.am    1  UNL1       -0.2753
@<TRIPOS>BOND
     1    23    24    2
     2    24    25    1
     3    25    26    1
     4    26    27    1
     5    27    28    1
     6    28    22    1
     7    22     1    1
     8     1     2   ar
     9     2     3    1
    10     2     4   ar
    11     4     5   ar
    12     5     9    1
    13     9    10   ar
    14    10    11   ar
    15    11    18    1
    16    18    19    1
    17    18    20    1
    18    18    21    1
    19    11    12   ar
    20    12    13   ar
    21    13    14    1
    22    14    15    1
    23    15    16    1
    24    16    17    1
    25     5     6   ar
    26     6     7   ar
    27     7     8    1
    28    28    24   am
    29     7     1   ar
    30    13     9   ar
    31    17    12    1
@<TRIPOS>MOLECULE
*****
 28 31 0 0 0
SMALL
GASTEIGER

@<TRIPOS>ATOM
      1 C           2.5745    0.6052   25.3776 C.ar    1  UNL1        0.0527
      2 C           1.8327    0.9795   24.1288 C.ar    1  UNL1        0.1414
      3 F           0.7714    2.0386   24.1758 F       1  UNL1       -0.2043
      4 C           2.1521    0.2948   22.8329 C.ar    1  UNL1        0.0486
      5 C           3.2132   -0.7642   22.7859 C.ar    1  UNL1        0.0869
      6 C           3.9551   -1.1386   24.0347 C.ar    1  UNL1        0.0486
      7 C           3.6357   -0.4538   25.3306 C.ar    1  UNL1        0.1414
      8 F           4.3776   -0.8282   26.5793 F       1  UNL1       -0.2043
      9 N           3.5326   -1.4489   21.4900 N.ar    1  UNL1       -0.2338
     10 N           3.8370   -2.9073   21.3151 N.ar    1  UNL1       -0.1617
     11 C           4.0962   -3.1551   19.8586 C.ar    1  UNL1        0.1720
     12 C           3.9519   -1.8500   19.1334 C.ar    1  UNL1        0.0443
     13 C           3.6036   -0.7955   20.1417 C.ar    1  UNL1        0.0628
     14 C           3.3961    0.6234   19.7018 C.3     1  UNL1        0.0777
     15 C           3.5369    0.9879   18.2536 C.3     1  UNL1        0.1489
     16 O           3.8852   -0.0666   17.2453 O.3     1  UNL1       -0.3485
     17 C           4.0927   -1.4856   17.6852 C.3     1  UNL1        0.1713
     18 C           4.4394   -4.4762   19.2364 C.3     1  UNL1        0.4363
     19 F           4.7826   -5.7972   18.6143 F       1  UNL1       -0.1644
     20 F           5.8634   -4.3148   19.6793 F       1  UNL1       -0.1644
     21 F           3.0155   -4.6375   18.7935 F       1  UNL1       -0.1644
     22 C           2.2551    1.2899   26.6734 C.3     1  UNL1        0.1246
     23 O           2.2271   -0.9472   29.0491 O.2     1  UNL1       -0.2749
     24 C           1.0446   -0.1629   28.5627 C.2     1  UNL1        0.2259
     25 C          -0.3582   -0.2692   29.0828 C.3     1  UNL1        0.0870
     26 C          -1.2125    0.6935   28.3122 C.3     1  UNL1        0.0311
     27 C          -0.3375    1.3947   27.3159 C.3     1  UNL1        0.0942
     28 N           1.0575    0.8655   27.4706 N.am    1  UNL1       -0.2753
@<TRIPOS>BOND
     1    23    24    2
     2    24    25    1
     3    25    26    1
     4    26    27    1
     5    27    28    1
     6    28    22    1
     7    22     1    1
     8     1     2   ar
     9     2     3    1
    10     2     4   ar
    11     4     5   ar
    12     5     9    1
    13     9    10   ar
    14    10    11   ar
    15    11    18    1
    16    18    19    1
    17    18    20    1
    18    18    21    1
    19    11    12   ar
    20    12    13   ar
    21    13    14    1
    22    14    15    1
    23    15    16    1
    24    16    17    1
    25     5     6   ar
    26     6     7   ar
    27     7     8    1
    28    28    24   am
    29     7     1   ar
    30    13     9   ar
    31    17    12    1
@<TRIPOS>MOLECULE
*****
 28 31 0 0 0
SMALL
GASTEIGER

@<TRIPOS>ATOM
      1 C         -12.0319   -4.2517   18.7757 C.ar    1  UNL1        0.0527
      2 C         -11.9193   -5.2837   17.6930 C.ar    1  UNL1        0.1414
      3 F         -10.7786   -5.2289   16.7205 F       1  UNL1       -0.2043
      4 C         -12.9473   -6.3705   17.5829 C.ar    1  UNL1        0.0486
      5 C         -14.0879   -6.4254   18.5554 C.ar    1  UNL1        0.0869
      6 C         -14.2006   -5.3933   19.6382 C.ar    1  UNL1        0.0486
      7 C         -13.1726   -4.3065   19.7483 C.ar    1  UNL1        0.1414
      8 F         -13.2853   -3.2745   20.8310 F       1  UNL1       -0.2043
      9 N         -15.1159   -7.5122   18.4453 N.ar    1  UNL1       -0.2338
     10 N         -14.9233   -8.9499   18.8272 N.ar    1  UNL1       -0.1617
     11 C         -16.2053   -9.6783   18.5519 C.ar    1  UNL1        0.1720
     12 C         -17.1902   -8.6908   17.9998 C.ar    1  UNL1        0.0443
     13 C         -16.5169   -7.3520   17.9339 C.ar    1  UNL1        0.0628
     14 C         -17.2665   -6.1601   17.4168 C.3     1  UNL1        0.0777
     15 C         -18.6894   -6.3070   16.9655 C.3     1  UNL1        0.1489
     16 O         -19.3627   -7.6458   17.0314 O.3     1  UNL1       -0.3485
     17 C         -18.6131   -8.8377   17.5485 C.3     1  UNL1        0.1713
     18 C         -16.4581  -11.1380   18.7873 C.3     1  UNL1        0.4363
     19 F         -16.7110  -12.5977   19.0228 F       1  UNL1       -0.1644
     20 F         -17.5475  -10.7926   19.7590 F       1  UNL1       -0.1644
     21 F         -15.3689  -11.4834   17.8157 F       1  UNL1       -0.1644
     22 C         -11.0040   -3.1649   18.8858 C.3     1  UNL1        0.1246
     23 O          -9.5492   -2.4725   16.0479 O.2     1  UNL1       -0.2749
     24 C         -10.4959   -1.5799   16.7942 C.2     1  UNL1        0.2259
     25 C         -10.9401   -0.2124   16.3671 C.3     1  UNL1        0.0870
     26 C         -11.8834    0.3146   17.4077 C.3     1  UNL1        0.0311
     27 C         -12.0222   -0.7272   18.4778 C.3     1  UNL1        0.0942
     28 N         -11.1646   -1.8982   18.0988 N.am    1  UNL1       -0.2753
@<TRIPOS>BOND
     1    23    24    2
     2    24    25    1
     3    25    26    1
     4    26    27    1
     5    27    28    1
     6    28    22    1
     7    22     1    1
     8     1     2   ar
     9     2     3    1
    10     2     4   ar
    11     4     5   ar
    12     5     9    1
    13     9    10   ar
    14    10    11   ar
    15    11    18    1
    16    18    19    1
    17    18    20    1
    18    18    21    1
    19    11    12   ar
    20    12    13   ar
    21    13    14    1
    22    14    15    1
    23    15    16    1
    24    16    17    1
    25     5     6   ar
    26     6     7   ar
    27     7     8    1
    28    28    24   am
    29     7     1   ar
    30    13     9   ar
    31    17    12    1
@<TRIPOS>MOLECULE
*****
 28 31 0 0 0
SMALL
GASTEIGER

@<TRIPOS>ATOM
      1 C           2.3308    0.7943   25.1605 C.ar    1  UNL1        0.0527
      2 C           3.3691   -0.2873   25.2080 C.ar    1  UNL1        0.1414
      3 F           4.0261   -0.6395   26.5096 F       1  UNL1       -0.2043
      4 C           3.7503   -1.0165   23.9538 C.ar    1  UNL1        0.0486
      5 C           3.0933   -0.6644   22.6523 C.ar    1  UNL1        0.0869
      6 C           2.0550    0.4172   22.6047 C.ar    1  UNL1        0.0486
      7 C           1.6738    1.1465   23.8589 C.ar    1  UNL1        0.1414
      8 F           0.6355    2.2280   23.8113 F       1  UNL1       -0.2043
      9 N           3.4745   -1.3937   21.3981 N.ar    1  UNL1       -0.2338
     10 N           3.7175   -2.8687   21.2752 N.ar    1  UNL1       -0.1617
     11 C           4.0728   -3.1626   19.8479 C.ar    1  UNL1        0.1720
     12 C           4.0495   -1.8691   19.0886 C.ar    1  UNL1        0.0443
     13 C           3.6797   -0.7759   20.0467 C.ar    1  UNL1        0.0628
     14 C           3.5775    0.6409   19.5649 C.3     1  UNL1        0.0777
     15 C           3.8452    0.9644   18.1249 C.3     1  UNL1        0.1489
     16 O           4.2150   -0.1288   17.1667 O.3     1  UNL1       -0.3485
     17 C           4.3171   -1.5456   17.6486 C.3     1  UNL1        0.1713
     18 C           4.3950   -4.5128   19.2795 C.3     1  UNL1        0.4363
     19 F           4.7172   -5.8631   18.7111 F       1  UNL1       -0.1644
     20 F           5.8397   -4.3165   19.6319 F       1  UNL1       -0.1644
     21 F           2.9504   -4.7092   18.9271 F       1  UNL1       -0.1644
     22 C           1.9496    1.5236   26.4146 C.3     1  UNL1        0.1246
     23 O          -1.2238    2.2812   26.3429 O.2     1  UNL1       -0.2749
     24 C          -0.5699    1.3114   27.2820 C.2     1  UNL1        0.2259
     25 C          -1.2598    0.5197   28.3530 C.3     1  UNL1        0.0870
     26 C          -0.2275   -0.3179   29.0480 C.3     1  UNL1        0.0311
     27 C           1.1003   -0.0439   28.4064 C.3     1  UNL1        0.0942
     28 N           0.8888    0.9632   27.3150 N.am    1  UNL1       -0.2753
@<TRIPOS>BOND
     1    23    24    2
     2    24    25    1
     3    25    26    1
     4    26    27    1
     5    27    28    1
     6    28    22    1
     7    22     1    1
     8     1     2   ar
     9     2     3    1
    10     2     4   ar
    11     4     5   ar
    12     5     9    1
    13     9    10   ar
    14    10    11   ar
    15    11    18    1
    16    18    19    1
    17    18    20    1
    18    18    21    1
    19    11    12   ar
    20    12    13   ar
    21    13    14    1
    22    14    15    1
    23    15    16    1
    24    16    17    1
    25     5     6   ar
    26     6     7   ar
    27     7     8    1
    28    28    24   am
    29     7     1   ar
    30    13     9   ar
    31    17    12    1
@<TRIPOS>MOLECULE
*****
 28 31 0 0 0
SMALL
GASTEIGER

@<TRIPOS>ATOM
      1 C           3.3827    0.2164   19.5252 C.ar    1  UNL1        0.0527
      2 C           2.4874    0.3054   18.3250 C.ar    1  UNL1        0.1414
      3 F           2.8633   -0.3988   17.0550 F       1  UNL1       -0.2043
      4 C           1.2162    1.0986   18.3948 C.ar    1  UNL1        0.0486
      5 C           0.8402    1.8028   19.6646 C.ar    1  UNL1        0.0869
      6 C           1.7356    1.7138   20.8649 C.ar    1  UNL1        0.0486
      7 C           3.0068    0.9206   20.7951 C.ar    1  UNL1        0.1414
      8 F           3.9021    0.8316   21.9953 F       1  UNL1       -0.2043
      9 N          -0.4310    2.5960   19.7344 N.ar    1  UNL1       -0.2338
     10 N          -1.5361    2.4045   20.7304 N.ar    1  UNL1       -0.1617
     11 C          -2.6083    3.4101   20.4320 C.ar    1  UNL1        0.1720
     12 C          -2.1659    4.2231   19.2515 C.ar    1  UNL1        0.0443
     13 C          -0.8202    3.7199   18.8204 C.ar    1  UNL1        0.0628
     14 C          -0.1231    4.3501   17.6513 C.3     1  UNL1        0.0777
     15 C          -0.7717    5.4834   16.9133 C.3     1  UNL1        0.1489
     16 O          -2.1174    5.9866   17.3444 O.3     1  UNL1       -0.3485
     17 C          -2.8145    5.3564   18.5135 C.3     1  UNL1        0.1713
     18 C          -3.8968    3.5741   21.1822 C.3     1  UNL1        0.4363
     19 F          -5.1854    3.7380   21.9324 F       1  UNL1       -0.1644
     20 F          -4.6509    3.0265   20.0068 F       1  UNL1       -0.1644
     21 F          -3.1429    4.1216   22.3576 F       1  UNL1       -0.1644
     22 C           4.6539   -0.5768   19.4554 C.3     1  UNL1        0.1246
     23 O           6.5412   -2.3512   17.4706 O.2     1  UNL1       -0.2749
     24 C           5.4677   -2.8819   18.3738 C.2     1  UNL1        0.2259
     25 C           5.0732   -4.3213   18.5233 C.3     1  UNL1        0.0870
     26 C           3.9618   -4.3954   19.5280 C.3     1  UNL1        0.0311
     27 C           3.6694   -3.0017   19.9995 C.3     1  UNL1        0.0942
     28 N           4.6001   -2.0662   19.2862 N.am    1  UNL1       -0.2753
@<TRIPOS>BOND
     1    23    24    2
     2    24    25    1
     3    25    26    1
     4    26    27    1
     5    27    28    1
     6    28    22    1
     7    22     1    1
     8     1     2   ar
     9     2     3    1
    10     2     4   ar
    11     4     5   ar
    12     5     9    1
    13     9    10   ar
    14    10    11   ar
    15    11    18    1
    16    18    19    1
    17    18    20    1
    18    18    21    1
    19    11    12   ar
    20    12    13   ar
    21    13    14    1
    22    14    15    1
    23    15    16    1
    24    16    17    1
    25     5     6   ar
    26     6     7   ar
    27     7     8    1
    28    28    24   am
    29     7     1   ar
    30    13     9   ar
    31    17    12    1
