@<TRIPOS>MOLECULE
*****
 32 36 0 0 0
SMALL
GASTEIGER

@<TRIPOS>ATOM
      1 O          -3.7168  -17.9662   24.0055 O.2     1  UNL1       -0.2728
      2 C          -5.0550  -18.0749   23.3365 C.2     1  UNL1        0.2489
      3 N          -6.0938  -17.0162   23.5609 N.am    1  UNL1       -0.2779
      4 C          -5.7943  -15.8490   24.4542 C.3     1  UNL1        0.0935
      5 C          -6.8330  -14.7904   24.6786 C.3     1  UNL1        0.0219
      6 C          -8.1712  -14.8989   24.0097 C.3     1  UNL1        0.0078
      7 C          -8.4707  -16.0661   23.1164 C.3     1  UNL1        0.0419
      8 C          -7.4320  -17.1248   22.8920 C.3     1  UNL1        0.0953
      9 C          -9.8088  -16.1747   22.4474 C.ar    1  UNL1       -0.0209
     10 C          -9.9461  -15.8554   20.9883 C.ar    1  UNL1       -0.0042
     11 C         -11.2843  -15.9641   20.3193 C.ar    1  UNL1       -0.0003
     12 C         -12.4853  -16.3921   21.1096 C.ar    1  UNL1       -0.0000
     13 C         -12.3480  -16.7114   22.5688 C.ar    1  UNL1       -0.0003
     14 C         -11.0098  -16.6027   23.2377 C.ar    1  UNL1       -0.0042
     15 C          -5.3544  -19.2420   22.4433 C.3     1  UNL1        0.1972
     16 N          -4.5640  -19.4455   21.1847 N.ar    1  UNL1       -0.2530
     17 C          -4.8168  -20.4969   20.1452 C.ar    1  UNL1        0.4224
     18 O          -5.9043  -21.5293   20.1815 O.2     1  UNL1       -0.2226
     19 O          -3.7911  -20.3345   19.0628 O.2     1  UNL1       -0.4068
     20 C          -2.9044  -19.1828   19.4334 C.ar    1  UNL1        0.1661
     21 C          -1.7237  -18.5634   18.7462 C.ar    1  UNL1        0.0400
     22 C          -1.0208  -17.3946   19.3704 C.ar    1  UNL1        0.0146
     23 C          -1.4985  -16.8451   20.6819 C.ar    1  UNL1        0.0593
     24 CL         -0.7955  -15.6763   21.3061 Cl      1  UNL1       -0.0822
     25 C          -2.6792  -17.4645   21.3691 C.ar    1  UNL1        0.0319
     26 C          -3.3821  -18.6334   20.7449 C.ar    1  UNL1        0.1013
     27 C          -7.7314  -18.2919   21.9987 C.3     1  UNL1        0.0924
     28 N          -8.9606  -19.1193   22.2323 N.3     1  UNL1       -0.2713
     29 C          -9.3707  -19.7407   23.5344 C.3     1  UNL1        0.0722
     30 C         -10.6590  -20.4760   23.3119 C.3     1  UNL1        0.0188
     31 C         -11.0452  -20.3090   21.8720 C.3     1  UNL1        0.0188
     32 C          -9.9954  -19.4705   21.2048 C.3     1  UNL1        0.0722
@<TRIPOS>BOND
     1     1     2    2
     2     2    15    1
     3    15    16    1
     4    16    17   ar
     5    17    18    2
     6    17    19   ar
     7    19    20   ar
     8    20    21   ar
     9    21    22   ar
    10    22    23   ar
    11    23    24    1
    12    23    25   ar
    13    25    26   ar
    14     2     3   am
    15     3     4    1
    16     4     5    1
    17     5     6    1
    18     6     7    1
    19     7     9    1
    20     9    10   ar
    21    10    11   ar
    22    11    12   ar
    23    12    13   ar
    24    13    14   ar
    25     7     8    1
    26     8    27    1
    27    27    28    1
    28    28    29    1
    29    29    30    1
    30    30    31    1
    31    31    32    1
    32    26    16   ar
    33     8     3    1
    34    32    28    1
    35    26    20   ar
    36    14     9   ar
@<TRIPOS>MOLECULE
*****
 32 36 0 0 0
SMALL
GASTEIGER

@<TRIPOS>ATOM
      1 O          -4.7481  -20.6803   20.2821 O.2     1  UNL1       -0.2728
      2 C          -5.8393  -19.9398   20.9970 C.2     1  UNL1        0.2489
      3 N          -7.1887  -19.7928   20.3585 N.am    1  UNL1       -0.2779
      4 C          -7.4468  -20.3862   19.0053 C.3     1  UNL1        0.0935
      5 C          -8.7961  -20.2392   18.3669 C.3     1  UNL1        0.0219
      6 C          -9.8874  -19.4987   19.0816 C.3     1  UNL1        0.0078
      7 C          -9.6293  -18.9053   20.4348 C.3     1  UNL1        0.0419
      8 C          -8.2799  -19.0523   21.0733 C.3     1  UNL1        0.0953
      9 C         -10.7204  -18.1648   21.1497 C.ar    1  UNL1       -0.0209
     10 C         -10.7060  -16.6655   21.1925 C.ar    1  UNL1       -0.0042
     11 C         -11.7973  -15.9251   21.9074 C.ar    1  UNL1       -0.0003
     12 C         -12.9029  -16.6840   22.5794 C.ar    1  UNL1       -0.0000
     13 C         -12.9174  -18.1833   22.5366 C.ar    1  UNL1       -0.0003
     14 C         -11.8261  -18.9237   21.8217 C.ar    1  UNL1       -0.0042
     15 C          -5.5811  -19.3465   22.3501 C.3     1  UNL1        0.1972
     16 N          -4.7693  -18.0914   22.4764 N.ar    1  UNL1       -0.2530
     17 C          -5.1298  -16.8867   23.2941 C.ar    1  UNL1        0.4224
     18 O          -6.3654  -16.7255   24.1292 O.2     1  UNL1       -0.2226
     19 O          -4.0378  -15.8715   23.1301 O.2     1  UNL1       -0.4068
     20 C          -3.0024  -16.4488   22.2110 C.ar    1  UNL1        0.1661
     21 C          -1.7064  -15.9025   21.6898 C.ar    1  UNL1        0.0400
     22 C          -0.8624  -16.7281   20.7646 C.ar    1  UNL1        0.0146
     23 C          -1.3145  -18.1001   20.3606 C.ar    1  UNL1        0.0593
     24 CL         -0.4705  -18.9257   19.4353 Cl      1  UNL1       -0.0822
     25 C          -2.6106  -18.6464   20.8817 C.ar    1  UNL1        0.0319
     26 C          -3.4545  -17.8208   21.8070 C.ar    1  UNL1        0.1013
     27 C          -8.0218  -18.4589   22.4265 C.3     1  UNL1        0.0924
     28 N          -8.8878  -18.8402   23.5903 N.3     1  UNL1       -0.2713
     29 C          -9.4914  -17.8956   24.5869 C.3     1  UNL1        0.0722
     30 C         -10.2790  -18.7045   25.5745 C.3     1  UNL1        0.0188
     31 C         -10.1622  -20.1493   25.1882 C.3     1  UNL1        0.0188
     32 C          -9.3024  -20.2331   23.9619 C.3     1  UNL1        0.0722
@<TRIPOS>BOND
     1     1     2    2
     2     2    15    1
     3    15    16    1
     4    16    17   ar
     5    17    18    2
     6    17    19   ar
     7    19    20   ar
     8    20    21   ar
     9    21    22   ar
    10    22    23   ar
    11    23    24    1
    12    23    25   ar
    13    25    26   ar
    14     2     3   am
    15     3     4    1
    16     4     5    1
    17     5     6    1
    18     6     7    1
    19     7     9    1
    20     9    10   ar
    21    10    11   ar
    22    11    12   ar
    23    12    13   ar
    24    13    14   ar
    25     7     8    1
    26     8    27    1
    27    27    28    1
    28    28    29    1
    29    29    30    1
    30    30    31    1
    31    31    32    1
    32    26    16   ar
    33     8     3    1
    34    32    28    1
    35    26    20   ar
    36    14     9   ar
@<TRIPOS>MOLECULE
*****
 32 36 0 0 0
SMALL
GASTEIGER

@<TRIPOS>ATOM
      1 O          -5.2635  -21.5240   19.8718 O.2     1  UNL1       -0.2728
      2 C          -6.2072  -20.6601   20.6548 C.2     1  UNL1        0.2489
      3 N          -7.5363  -20.2813   20.0716 N.am    1  UNL1       -0.2779
      4 C          -7.9215  -20.7663   18.7055 C.3     1  UNL1        0.0935
      5 C          -9.2505  -20.3874   18.1222 C.3     1  UNL1        0.0219
      6 C         -10.1943  -19.5236   18.9051 C.3     1  UNL1        0.0078
      7 C          -9.8091  -19.0385   20.2713 C.3     1  UNL1        0.0419
      8 C          -8.4800  -19.4174   20.8545 C.3     1  UNL1        0.0953
      9 C         -10.7528  -18.1747   21.0542 C.ar    1  UNL1       -0.0209
     10 C         -11.9495  -18.7847   21.7218 C.ar    1  UNL1       -0.0042
     11 C         -12.8933  -17.9207   22.5048 C.ar    1  UNL1       -0.0003
     12 C         -12.6402  -16.4467   22.6202 C.ar    1  UNL1       -0.0000
     13 C         -11.4435  -15.8367   21.9526 C.ar    1  UNL1       -0.0003
     14 C         -10.4998  -16.7006   21.1697 C.ar    1  UNL1       -0.0042
     15 C          -5.8219  -20.1751   22.0209 C.3     1  UNL1        0.1972
     16 N          -4.7840  -19.1027   22.1710 N.ar    1  UNL1       -0.2530
     17 C          -3.3404  -19.2117   21.7785 C.ar    1  UNL1        0.4224
     18 O          -2.6812  -20.4123   21.1669 O.2     1  UNL1       -0.2226
     19 O          -2.6717  -17.9092   22.1049 O.2     1  UNL1       -0.4068
     20 C          -3.7021  -16.9953   22.6991 C.ar    1  UNL1        0.1661
     21 C          -3.6202  -15.5868   23.2083 C.ar    1  UNL1        0.0400
     22 C          -4.8438  -14.9158   23.7583 C.ar    1  UNL1        0.0146
     23 C          -6.1493  -15.6534   23.7992 C.ar    1  UNL1        0.0593
     24 CL         -7.3729  -14.9824   24.3493 Cl      1  UNL1       -0.0822
     25 C          -6.2312  -17.0619   23.2900 C.ar    1  UNL1        0.0319
     26 C          -5.0076  -17.7329   22.7400 C.ar    1  UNL1        0.1013
     27 C          -8.0948  -18.9324   22.2206 C.3     1  UNL1        0.0924
     28 N          -8.9715  -19.2361   23.3992 N.3     1  UNL1       -0.2713
     29 C          -9.5287  -18.2331   24.3653 C.3     1  UNL1        0.0722
     30 C         -10.3465  -18.9732   25.3819 C.3     1  UNL1        0.0188
     31 C         -10.2947  -20.4338   25.0441 C.3     1  UNL1        0.0188
     32 C          -9.4448  -20.5963   23.8187 C.3     1  UNL1        0.0722
@<TRIPOS>BOND
     1     1     2    2
     2     2    15    1
     3    15    16    1
     4    16    17   ar
     5    17    18    2
     6    17    19   ar
     7    19    20   ar
     8    20    21   ar
     9    21    22   ar
    10    22    23   ar
    11    23    24    1
    12    23    25   ar
    13    25    26   ar
    14     2     3   am
    15     3     4    1
    16     4     5    1
    17     5     6    1
    18     6     7    1
    19     7     9    1
    20     9    10   ar
    21    10    11   ar
    22    11    12   ar
    23    12    13   ar
    24    13    14   ar
    25     7     8    1
    26     8    27    1
    27    27    28    1
    28    28    29    1
    29    29    30    1
    30    30    31    1
    31    31    32    1
    32    26    16   ar
    33     8     3    1
    34    32    28    1
    35    26    20   ar
    36    14     9   ar
@<TRIPOS>MOLECULE
*****
 32 36 0 0 0
SMALL
GASTEIGER

@<TRIPOS>ATOM
      1 O          -0.0218    2.2442   22.8137 O.2     1  UNL1       -0.2728
      2 C           0.6917    1.3856   21.8118 C.2     1  UNL1        0.2489
      3 N           1.7453    0.4199   22.2670 N.am    1  UNL1       -0.2779
      4 C           2.0855    0.3128   23.7239 C.3     1  UNL1        0.0935
      5 C           3.1392   -0.6529   24.1791 C.3     1  UNL1        0.0219
      6 C           3.8527   -1.5116   23.1773 C.3     1  UNL1        0.0078
      7 C           3.5126   -1.4045   21.7203 C.3     1  UNL1        0.0419
      8 C           2.4589   -0.4388   21.2652 C.3     1  UNL1        0.0953
      9 C           4.2260   -2.2630   20.7185 C.ar    1  UNL1       -0.0209
     10 C           5.6483   -1.9613   20.3498 C.ar    1  UNL1       -0.0042
     11 C           6.3618   -2.8200   19.3478 C.ar    1  UNL1       -0.0003
     12 C           5.6529   -3.9804   18.7146 C.ar    1  UNL1       -0.0000
     13 C           4.2305   -4.2821   19.0833 C.ar    1  UNL1       -0.0003
     14 C           3.5171   -3.4235   20.0852 C.ar    1  UNL1       -0.0042
     15 C           0.3515    1.4927   20.3549 C.3     1  UNL1        0.1972
     16 N          -0.1493    2.7911   19.7951 N.ar    1  UNL1       -0.2530
     17 C          -1.5237    3.3613   19.9846 C.ar    1  UNL1        0.4224
     18 O          -2.6386    2.7333   20.7672 O.2     1  UNL1       -0.2226
     19 O          -1.5873    4.6698   19.2541 O.2     1  UNL1       -0.4068
     20 C          -0.2523    4.9084   18.6131 C.ar    1  UNL1        0.1661
     21 C           0.2688    6.0328   17.7681 C.ar    1  UNL1        0.0400
     22 C           1.6788    5.9961   17.2576 C.ar    1  UNL1        0.0146
     23 C           2.5675    4.8350   17.5919 C.ar    1  UNL1        0.0593
     24 CL          3.9775    4.7983   17.0813 Cl      1  UNL1       -0.0822
     25 C           2.0464    3.7105   18.4369 C.ar    1  UNL1        0.0319
     26 C           0.6365    3.7472   18.9474 C.ar    1  UNL1        0.1013
     27 C           2.1187   -0.3317   19.8082 C.3     1  UNL1        0.0924
     28 N           3.1939   -0.0284   18.8073 N.3     1  UNL1       -0.2713
     29 C           4.2276    1.0523   18.9240 C.3     1  UNL1        0.0722
     30 C           5.0968    0.9962   17.7028 C.3     1  UNL1        0.0188
     31 C           4.6003   -0.1192   16.8313 C.3     1  UNL1        0.0188
     32 C           3.4242   -0.7524   17.5139 C.3     1  UNL1        0.0722
@<TRIPOS>BOND
     1     1     2    2
     2     2    15    1
     3    15    16    1
     4    16    17   ar
     5    17    18    2
     6    17    19   ar
     7    19    20   ar
     8    20    21   ar
     9    21    22   ar
    10    22    23   ar
    11    23    24    1
    12    23    25   ar
    13    25    26   ar
    14     2     3   am
    15     3     4    1
    16     4     5    1
    17     5     6    1
    18     6     7    1
    19     7     9    1
    20     9    10   ar
    21    10    11   ar
    22    11    12   ar
    23    12    13   ar
    24    13    14   ar
    25     7     8    1
    26     8    27    1
    27    27    28    1
    28    28    29    1
    29    29    30    1
    30    30    31    1
    31    31    32    1
    32    26    16   ar
    33     8     3    1
    34    32    28    1
    35    26    20   ar
    36    14     9   ar
@<TRIPOS>MOLECULE
*****
 32 36 0 0 0
SMALL
GASTEIGER

@<TRIPOS>ATOM
      1 O           5.5311   -0.9188   27.2907 O.2     1  UNL1       -0.2728
      2 C           5.7592   -1.6201   25.9844 C.2     1  UNL1        0.2489
      3 N           4.8137   -1.4012   24.8406 N.am    1  UNL1       -0.2779
      4 C           3.6401   -0.4812   25.0032 C.3     1  UNL1        0.0935
      5 C           2.6946   -0.2623   23.8595 C.3     1  UNL1        0.0219
      6 C           2.9226   -0.9634   22.5532 C.3     1  UNL1        0.0078
      7 C           4.0961   -1.8834   22.3906 C.3     1  UNL1        0.0419
      8 C           5.0416   -2.1023   23.5343 C.3     1  UNL1        0.0953
      9 C           4.3242   -2.5846   21.0844 C.ar    1  UNL1       -0.0209
     10 C           4.0183   -4.0473   20.9548 C.ar    1  UNL1       -0.0042
     11 C           4.2464   -4.7484   19.6484 C.ar    1  UNL1       -0.0003
     12 C           4.7804   -3.9868   18.4717 C.ar    1  UNL1       -0.0000
     13 C           5.0863   -2.5240   18.6012 C.ar    1  UNL1       -0.0003
     14 C           4.8582   -1.8230   19.9075 C.ar    1  UNL1       -0.0042
     15 C           6.9327   -2.5400   25.8219 C.3     1  UNL1        0.1972
     16 N           6.9634   -3.8521   26.5482 N.ar    1  UNL1       -0.2530
     17 C           6.5527   -4.0812   27.9725 C.ar    1  UNL1        0.4224
     18 O           6.0393   -3.0384   28.9207 O.2     1  UNL1       -0.2226
     19 O           6.7457   -5.5361   28.2822 O.2     1  UNL1       -0.4068
     20 C           7.2756   -6.2062   27.0493 C.ar    1  UNL1        0.1661
     21 C           7.6529   -7.6296   26.7640 C.ar    1  UNL1        0.0400
     22 C           8.1649   -8.0122   25.4070 C.ar    1  UNL1        0.0146
     23 C           8.2994   -6.9714   24.3353 C.ar    1  UNL1        0.0593
     24 CL          8.8113   -7.3541   22.9782 Cl      1  UNL1       -0.0822
     25 C           7.9220   -5.5480   24.6205 C.ar    1  UNL1        0.0319
     26 C           7.4101   -5.1654   25.9775 C.ar    1  UNL1        0.1013
     27 C           6.2152   -3.0223   23.3718 C.3     1  UNL1        0.0924
     28 N           7.2175   -2.7744   22.2838 N.3     1  UNL1       -0.2713
     29 C           7.8801   -1.4640   21.9773 C.3     1  UNL1        0.0722
     30 C           8.8054   -1.6729   20.8154 C.3     1  UNL1        0.0188
     31 C           8.7148   -3.1125   20.4037 C.3     1  UNL1        0.0188
     32 C           7.7334   -3.7932   21.3113 C.3     1  UNL1        0.0722
@<TRIPOS>BOND
     1     1     2    2
     2     2    15    1
     3    15    16    1
     4    16    17   ar
     5    17    18    2
     6    17    19   ar
     7    19    20   ar
     8    20    21   ar
     9    21    22   ar
    10    22    23   ar
    11    23    24    1
    12    23    25   ar
    13    25    26   ar
    14     2     3   am
    15     3     4    1
    16     4     5    1
    17     5     6    1
    18     6     7    1
    19     7     9    1
    20     9    10   ar
    21    10    11   ar
    22    11    12   ar
    23    12    13   ar
    24    13    14   ar
    25     7     8    1
    26     8    27    1
    27    27    28    1
    28    28    29    1
    29    29    30    1
    30    30    31    1
    31    31    32    1
    32    26    16   ar
    33     8     3    1
    34    32    28    1
    35    26    20   ar
    36    14     9   ar
@<TRIPOS>MOLECULE
*****
 32 36 0 0 0
SMALL
GASTEIGER

@<TRIPOS>ATOM
      1 O           0.1337    2.0046   24.1487 O.2     1  UNL1       -0.2728
      2 C           1.1563    1.0615   23.5874 C.2     1  UNL1        0.2489
      3 N           1.1969    0.7906   22.1126 N.am    1  UNL1       -0.2779
      4 C           0.2150    1.4626   21.1992 C.3     1  UNL1        0.0935
      5 C           0.2557    1.1917   19.7245 C.3     1  UNL1        0.0219
      6 C           1.2782    0.2487   19.1630 C.3     1  UNL1        0.0078
      7 C           2.2601   -0.4233   20.0764 C.3     1  UNL1        0.0419
      8 C           2.2195   -0.1524   21.5512 C.3     1  UNL1        0.0953
      9 C           3.2827   -1.3663   19.5151 C.ar    1  UNL1       -0.0209
     10 C           4.4741   -0.8292   18.7789 C.ar    1  UNL1       -0.0042
     11 C           5.4967   -1.7723   18.2175 C.ar    1  UNL1       -0.0003
     12 C           5.3278   -3.2525   18.3925 C.ar    1  UNL1       -0.0000
     13 C           4.1364   -3.7896   19.1287 C.ar    1  UNL1       -0.0003
     14 C           3.1139   -2.8465   19.6900 C.ar    1  UNL1       -0.0042
     15 C           2.1381    0.3896   24.5008 C.3     1  UNL1        0.1972
     16 N           2.5241    1.0400   25.7961 N.ar    1  UNL1       -0.2530
     17 C           3.8158    1.7493   26.0760 C.ar    1  UNL1        0.4224
     18 O           4.9484    1.9327   25.1098 O.2     1  UNL1       -0.2226
     19 O           3.7761    2.2430   27.4919 O.2     1  UNL1       -0.4068
     20 C           2.4599    1.8388   28.0870 C.ar    1  UNL1        0.1661
     21 C           1.8660    2.0518   29.4479 C.ar    1  UNL1        0.0400
     22 C           0.4983    1.5212   29.7606 C.ar    1  UNL1        0.0146
     23 C          -0.2755    0.7777   28.7125 C.ar    1  UNL1        0.0593
     24 CL         -1.6433    0.2471   29.0253 Cl      1  UNL1       -0.0822
     25 C           0.3184    0.5648   27.3517 C.ar    1  UNL1        0.0319
     26 C           1.6861    1.0954   27.0390 C.ar    1  UNL1        0.1013
     27 C           3.2014   -0.8244   22.4646 C.3     1  UNL1        0.0924
     28 N           4.6743   -0.6649   22.2302 N.3     1  UNL1       -0.2713
     29 C           5.3900    0.6262   21.9640 C.3     1  UNL1        0.0722
     30 C           6.8482    0.3207   21.7902 C.3     1  UNL1        0.0188
     31 C           7.0338   -1.1594   21.9490 C.3     1  UNL1        0.0188
     32 C           5.6902   -1.7685   22.2210 C.3     1  UNL1        0.0722
@<TRIPOS>BOND
     1     1     2    2
     2     2    15    1
     3    15    16    1
     4    16    17   ar
     5    17    18    2
     6    17    19   ar
     7    19    20   ar
     8    20    21   ar
     9    21    22   ar
    10    22    23   ar
    11    23    24    1
    12    23    25   ar
    13    25    26   ar
    14     2     3   am
    15     3     4    1
    16     4     5    1
    17     5     6    1
    18     6     7    1
    19     7     9    1
    20     9    10   ar
    21    10    11   ar
    22    11    12   ar
    23    12    13   ar
    24    13    14   ar
    25     7     8    1
    26     8    27    1
    27    27    28    1
    28    28    29    1
    29    29    30    1
    30    30    31    1
    31    31    32    1
    32    26    16   ar
    33     8     3    1
    34    32    28    1
    35    26    20   ar
    36    14     9   ar
@<TRIPOS>MOLECULE
*****
 32 36 0 0 0
SMALL
GASTEIGER

@<TRIPOS>ATOM
      1 O           5.4657   -1.1743   27.4401 O.2     1  UNL1       -0.2728
      2 C           5.6987   -1.8819   26.1382 C.2     1  UNL1        0.2489
      3 N           4.8066   -1.6055   24.9643 N.am    1  UNL1       -0.2779
      4 C           3.6817   -0.6216   25.0924 C.3     1  UNL1        0.0935
      5 C           2.7897   -0.3453   23.9186 C.3     1  UNL1        0.0219
      6 C           3.0226   -1.0528   22.6166 C.3     1  UNL1        0.0078
      7 C           4.1475   -2.0367   22.4885 C.3     1  UNL1        0.0419
      8 C           5.0395   -2.3131   23.6623 C.3     1  UNL1        0.0953
      9 C           4.3805   -2.7443   21.1866 C.ar    1  UNL1       -0.0209
     10 C           5.0184   -2.0161   20.0408 C.ar    1  UNL1       -0.0042
     11 C           5.2513   -2.7238   18.7388 C.ar    1  UNL1       -0.0003
     12 C           4.8464   -4.1596   18.5827 C.ar    1  UNL1       -0.0000
     13 C           4.2085   -4.8878   19.7285 C.ar    1  UNL1       -0.0003
     14 C           3.9755   -4.1801   21.0304 C.ar    1  UNL1       -0.0042
     15 C           6.8236   -2.8657   26.0101 C.3     1  UNL1        0.1972
     16 N           6.8934   -4.0491   26.9293 N.ar    1  UNL1       -0.2530
     17 C           6.9850   -5.4865   26.5105 C.ar    1  UNL1        0.4224
     18 O           7.0229   -5.9930   25.0991 O.2     1  UNL1       -0.2226
     19 O           7.0320   -6.3285   27.7510 O.2     1  UNL1       -0.4068
     20 C           6.9695   -5.4115   28.9364 C.ar    1  UNL1        0.1661
     21 C           6.9796   -5.6773   30.4126 C.ar    1  UNL1        0.0400
     22 C           6.9039   -4.5342   31.3809 C.ar    1  UNL1        0.0146
     23 C           6.8182   -3.1254   30.8730 C.ar    1  UNL1        0.0593
     24 CL          6.7426   -1.9824   31.8415 Cl      1  UNL1       -0.0822
     25 C           6.8082   -2.8597   29.3968 C.ar    1  UNL1        0.0319
     26 C           6.8838   -4.0027   28.4285 C.ar    1  UNL1        0.1013
     27 C           6.1645   -3.2970   23.5342 C.3     1  UNL1        0.0924
     28 N           7.2223   -3.0950   22.4902 N.3     1  UNL1       -0.2713
     29 C           7.7214   -4.1324   21.5286 C.3     1  UNL1        0.0722
     30 C           8.7744   -3.4989   20.6684 C.3     1  UNL1        0.0188
     31 C           8.9261   -2.0698   21.0984 C.3     1  UNL1        0.0188
     32 C           7.9668   -1.8202   22.2244 C.3     1  UNL1        0.0722
@<TRIPOS>BOND
     1     1     2    2
     2     2    15    1
     3    15    16    1
     4    16    17   ar
     5    17    18    2
     6    17    19   ar
     7    19    20   ar
     8    20    21   ar
     9    21    22   ar
    10    22    23   ar
    11    23    24    1
    12    23    25   ar
    13    25    26   ar
    14     2     3   am
    15     3     4    1
    16     4     5    1
    17     5     6    1
    18     6     7    1
    19     7     9    1
    20     9    10   ar
    21    10    11   ar
    22    11    12   ar
    23    12    13   ar
    24    13    14   ar
    25     7     8    1
    26     8    27    1
    27    27    28    1
    28    28    29    1
    29    29    30    1
    30    30    31    1
    31    31    32    1
    32    26    16   ar
    33     8     3    1
    34    32    28    1
    35    26    20   ar
    36    14     9   ar
@<TRIPOS>MOLECULE
*****
 32 36 0 0 0
SMALL
GASTEIGER

@<TRIPOS>ATOM
      1 O           1.0123    2.0685   24.6295 O.2     1  UNL1       -0.2728
      2 C           2.0093    1.2056   23.9140 C.2     1  UNL1        0.2489
      3 N           1.7253    0.7294   22.5203 N.am    1  UNL1       -0.2779
      4 C           0.4445    1.1160   21.8420 C.3     1  UNL1        0.0935
      5 C           0.1606    0.6397   20.4482 C.3     1  UNL1        0.0219
      6 C           1.1574   -0.2231   19.7327 C.3     1  UNL1        0.0078
      7 C           2.4382   -0.6096   20.4111 C.3     1  UNL1        0.0419
      8 C           2.7222   -0.1334   21.8048 C.3     1  UNL1        0.0953
      9 C           3.4351   -1.4723   19.6957 C.ar    1  UNL1       -0.0209
     10 C           3.5388   -2.9315   20.0273 C.ar    1  UNL1       -0.0042
     11 C           4.5358   -3.7943   19.3118 C.ar    1  UNL1       -0.0003
     12 C           5.4290   -3.1978   18.2648 C.ar    1  UNL1       -0.0000
     13 C           5.3254   -1.7386   17.9332 C.ar    1  UNL1       -0.0003
     14 C           4.3284   -0.8759   18.6486 C.ar    1  UNL1       -0.0042
     15 C           3.2900    0.8192   24.5924 C.3     1  UNL1        0.1972
     16 N           3.2552    0.0218   25.8624 N.ar    1  UNL1       -0.2530
     17 C           3.8470   -1.3417   26.0640 C.ar    1  UNL1        0.4224
     18 O           4.5775   -2.1473   25.0309 O.2     1  UNL1       -0.2226
     19 O           3.5800   -1.7581   27.4800 O.2     1  UNL1       -0.4068
     20 C           2.8232   -0.6520   28.1537 C.ar    1  UNL1        0.1661
     21 C           2.2909   -0.5044   29.5483 C.ar    1  UNL1        0.0400
     22 C           1.5579    0.7433   29.9431 C.ar    1  UNL1        0.0146
     23 C           1.3572    1.8434   28.9433 C.ar    1  UNL1        0.0593
     24 CL          0.6242    3.0912   29.3382 Cl      1  UNL1       -0.0822
     25 C           1.8895    1.6958   27.5488 C.ar    1  UNL1        0.0319
     26 C           2.6225    0.4481   27.1539 C.ar    1  UNL1        0.1013
     27 C           4.0030   -0.5199   22.4831 C.3     1  UNL1        0.0924
     28 N           5.3190   -0.1214   21.8838 N.3     1  UNL1       -0.2713
     29 C           6.4953   -1.0249   21.6595 C.3     1  UNL1        0.0722
     30 C           7.5932   -0.2115   21.0407 C.3     1  UNL1        0.0188
     31 C           7.0955    1.1947   20.8824 C.3     1  UNL1        0.0188
     32 C           5.6899    1.2503   21.4035 C.3     1  UNL1        0.0722
@<TRIPOS>BOND
     1     1     2    2
     2     2    15    1
     3    15    16    1
     4    16    17   ar
     5    17    18    2
     6    17    19   ar
     7    19    20   ar
     8    20    21   ar
     9    21    22   ar
    10    22    23   ar
    11    23    24    1
    12    23    25   ar
    13    25    26   ar
    14     2     3   am
    15     3     4    1
    16     4     5    1
    17     5     6    1
    18     6     7    1
    19     7     9    1
    20     9    10   ar
    21    10    11   ar
    22    11    12   ar
    23    12    13   ar
    24    13    14   ar
    25     7     8    1
    26     8    27    1
    27    27    28    1
    28    28    29    1
    29    29    30    1
    30    30    31    1
    31    31    32    1
    32    26    16   ar
    33     8     3    1
    34    32    28    1
    35    26    20   ar
    36    14     9   ar
@<TRIPOS>MOLECULE
*****
 32 36 0 0 0
SMALL
GASTEIGER

@<TRIPOS>ATOM
      1 O           6.9518   -4.7992   22.4625 O.2     1  UNL1       -0.2728
      2 C           5.9366   -3.6952   22.4342 C.2     1  UNL1        0.2489
      3 N           5.3357   -3.2623   21.1298 N.am    1  UNL1       -0.2779
      4 C           5.7499   -3.9333   19.8538 C.3     1  UNL1        0.0935
      5 C           5.1489   -3.5004   18.5494 C.3     1  UNL1        0.0219
      6 C           4.1338   -2.3965   18.5210 C.3     1  UNL1        0.0078
      7 C           3.7197   -1.7254   19.7970 C.3     1  UNL1        0.0419
      8 C           4.3206   -2.1583   21.1014 C.3     1  UNL1        0.0953
      9 C           2.7046   -0.6215   19.7687 C.ar    1  UNL1       -0.0209
     10 C           3.0724    0.7216   19.2112 C.ar    1  UNL1       -0.0042
     11 C           2.0572    1.8256   19.1829 C.ar    1  UNL1       -0.0003
     12 C           0.6742    1.5864   19.7121 C.ar    1  UNL1       -0.0000
     13 C           0.3063    0.2433   20.2695 C.ar    1  UNL1       -0.0003
     14 C           1.3215   -0.8606   20.2978 C.ar    1  UNL1       -0.0042
     15 C           5.5225   -3.0242   23.7102 C.3     1  UNL1        0.1972
     16 N           6.4992   -2.8960   24.8415 N.ar    1  UNL1       -0.2530
     17 C           7.0885   -1.6165   25.3567 C.ar    1  UNL1        0.4224
     18 O           6.8047   -0.2405   24.8312 O.2     1  UNL1       -0.2226
     19 O           8.0115   -1.9545   26.4898 O.2     1  UNL1       -0.4068
     20 C           7.9925   -3.4430   26.6748 C.ar    1  UNL1        0.1661
     21 C           8.7056   -4.3436   27.6393 C.ar    1  UNL1        0.0400
     22 C           8.4840   -5.8261   27.5851 C.ar    1  UNL1        0.0146
     23 C           7.5493   -6.4080   26.5663 C.ar    1  UNL1        0.0593
     24 CL          7.3278   -7.8906   26.5121 Cl      1  UNL1       -0.0822
     25 C           6.8363   -5.5073   25.6019 C.ar    1  UNL1        0.0319
     26 C           7.0579   -4.0248   25.6561 C.ar    1  UNL1        0.1013
     27 C           3.9064   -1.4873   22.3774 C.3     1  UNL1        0.0924
     28 N           4.0564   -0.0023   22.5268 N.3     1  UNL1       -0.2713
     29 C           3.0392    0.9320   23.1119 C.3     1  UNL1        0.0722
     30 C           3.6039    2.3209   23.0642 C.3     1  UNL1        0.0188
     31 C           4.9702    2.2448   22.4496 C.3     1  UNL1        0.0188
     32 C           5.2498    0.8090   22.1175 C.3     1  UNL1        0.0722
@<TRIPOS>BOND
     1     1     2    2
     2     2    15    1
     3    15    16    1
     4    16    17   ar
     5    17    18    2
     6    17    19   ar
     7    19    20   ar
     8    20    21   ar
     9    21    22   ar
    10    22    23   ar
    11    23    24    1
    12    23    25   ar
    13    25    26   ar
    14     2     3   am
    15     3     4    1
    16     4     5    1
    17     5     6    1
    18     6     7    1
    19     7     9    1
    20     9    10   ar
    21    10    11   ar
    22    11    12   ar
    23    12    13   ar
    24    13    14   ar
    25     7     8    1
    26     8    27    1
    27    27    28    1
    28    28    29    1
    29    29    30    1
    30    30    31    1
    31    31    32    1
    32    26    16   ar
    33     8     3    1
    34    32    28    1
    35    26    20   ar
    36    14     9   ar
