@<TRIPOS>MOLECULE
*****
 34 36 0 0 0
SMALL
GASTEIGER

@<TRIPOS>ATOM
      1 N          -5.0937  -17.4428   23.2058 N.ar    1  UNL1       -0.2869
      2 C          -5.8448  -16.4728   24.0688 C.ar    1  UNL1        0.2573
      3 O          -5.1105  -15.6472   25.0835 O.2     1  UNL1       -0.2673
      4 C          -7.3300  -16.3282   23.9172 C.ar    1  UNL1        0.0366
      5 C          -8.0643  -17.1536   22.9026 C.ar    1  UNL1        0.0050
      6 C          -7.3132  -18.1238   22.0395 C.ar    1  UNL1        0.0158
      7 C          -8.0474  -18.9492   21.0249 C.ar    1  UNL1        0.0053
      8 C          -7.2963  -19.9193   20.1619 C.ar    1  UNL1        0.0715
      9 C          -5.8111  -20.0639   20.3136 C.ar    1  UNL1        0.0053
     10 C          -5.0768  -19.2385   21.3282 C.ar    1  UNL1        0.0172
     11 C          -5.8279  -18.2684   22.1912 C.ar    1  UNL1        0.0629
     12 C          -9.5496  -17.0090   22.7510 C.ar    1  UNL1        0.0344
     13 C         -10.4736  -17.8502   23.5808 C.ar    1  UNL1        0.0144
     14 C         -11.9589  -17.7056   23.4292 C.ar    1  UNL1        0.0579
     15 CL        -12.8829  -18.5468   24.2591 Cl      1  UNL1       -0.0822
     16 C         -12.5202  -16.7198   22.4477 C.ar    1  UNL1        0.0145
     17 C         -11.5961  -15.8786   21.6179 C.ar    1  UNL1        0.0375
     18 C         -10.1108  -16.0232   21.7695 C.ar    1  UNL1        0.1336
     19 O          -9.1868  -15.1821   20.9397 O.3     1  UNL1       -0.5055
     20 H          -9.5374  -14.5663   20.3266 H       1  UNL1        0.2922
     21 C          -8.0306  -20.7448   19.1473 C.3     1  UNL1        0.4186
     22 F          -8.7648  -21.5703   18.1326 F       1  UNL1       -0.1659
     23 F          -9.1132  -19.7084   19.0874 F       1  UNL1       -0.1659
     24 F          -6.9480  -21.7813   19.2071 F       1  UNL1       -0.1659
     25 C          -3.6084  -17.5875   23.3575 C.3     1  UNL1        0.1938
     26 N          -1.5532  -17.7984   21.7821 N.am    1  UNL1       -0.3272
     27 C          -2.6883  -16.9887   22.3351 C.2     1  UNL1        0.2426
     28 O          -2.9034  -15.5804   21.8659 O.2     1  UNL1       -0.2732
     29 H          -0.9493  -17.4055   21.1112 H       1  UNL1        0.1450
     30 H          -1.4120  -18.7228   22.0901 H       1  UNL1        0.1450
     31 C          -8.0811  -15.3580   24.7803 C.3     1  UNL1        0.0629
     32 C          -8.1831  -15.5922   26.2583 C.3     1  UNL1        0.1420
     33 O          -7.2221  -14.9185   27.1924 O.3     1  UNL1       -0.3816
     34 H          -6.3271  -15.2579   27.0356 H       1  UNL1        0.2105
@<TRIPOS>BOND
     1    26    27   am
     2    27    28    2
     3    27    25    1
     4    25     1    1
     5     1     2   ar
     6     2     3    2
     7     2     4   ar
     8     4    31    1
     9    31    32    1
    10    32    33    1
    11     4     5   ar
    12     5    12    1
    13    12    13   ar
    14    13    14   ar
    15    14    15    1
    16    14    16   ar
    17    16    17   ar
    18    17    18   ar
    19    18    19    1
    20     5     6   ar
    21     6     7   ar
    22     7     8   ar
    23     8    21    1
    24    21    22    1
    25    21    23    1
    26    21    24    1
    27     8     9   ar
    28     9    10   ar
    29    10    11   ar
    30    11     1   ar
    31    18    12   ar
    32    11     6   ar
    33    26    29    1
    34    26    30    1
    35    33    34    1
    36    19    20    1
@<TRIPOS>MOLECULE
*****
 34 36 0 0 0
SMALL
GASTEIGER

@<TRIPOS>ATOM
      1 N          -4.4679  -17.7889   22.5371 N.ar    1  UNL1       -0.2869
      2 C          -5.0751  -18.5490   21.3954 C.ar    1  UNL1        0.2573
      3 O          -4.1912  -19.1978   20.3718 O.2     1  UNL1       -0.2673
      4 C          -6.5663  -18.6602   21.2772 C.ar    1  UNL1        0.0366
      5 C          -7.4503  -18.0115   22.3007 C.ar    1  UNL1        0.0050
      6 C          -6.8431  -17.2514   23.4425 C.ar    1  UNL1        0.0158
      7 C          -7.7270  -16.6026   24.4661 C.ar    1  UNL1        0.0053
      8 C          -7.1198  -15.8426   25.6078 C.ar    1  UNL1        0.0715
      9 C          -5.6286  -15.7314   25.7260 C.ar    1  UNL1        0.0053
     10 C          -4.7446  -16.3801   24.7024 C.ar    1  UNL1        0.0172
     11 C          -5.3519  -17.1401   23.5607 C.ar    1  UNL1        0.0629
     12 C          -8.9415  -18.1227   22.1825 C.ar    1  UNL1        0.0344
     13 C          -9.7173  -17.0645   21.4558 C.ar    1  UNL1        0.0144
     14 C         -11.2085  -17.1757   21.3376 C.ar    1  UNL1        0.0579
     15 CL        -11.9843  -16.1174   20.6109 Cl      1  UNL1       -0.0822
     16 C         -11.9239  -18.3453   21.9461 C.ar    1  UNL1        0.0145
     17 C         -11.1481  -19.4036   22.6729 C.ar    1  UNL1        0.0375
     18 C          -9.6569  -19.2924   22.7911 C.ar    1  UNL1        0.1336
     19 O          -8.8811  -20.3506   23.5178 O.3     1  UNL1       -0.5055
     20 H          -9.3279  -21.0812   23.8979 H       1  UNL1        0.2922
     21 C          -8.0038  -15.1938   26.6314 C.3     1  UNL1        0.4186
     22 F          -8.8877  -14.5450   27.6550 F       1  UNL1       -0.1659
     23 F          -6.8576  -15.1576   27.5983 F       1  UNL1       -0.1659
     24 F          -9.1500  -15.2300   25.6646 F       1  UNL1       -0.1659
     25 C          -2.9767  -17.6777   22.6553 C.3     1  UNL1        0.1938
     26 N          -0.9636  -16.9598   21.1781 N.am    1  UNL1       -0.3272
     27 C          -2.2404  -16.6197   21.8880 C.2     1  UNL1        0.2426
     28 O          -2.7810  -15.2217   21.8307 O.2     1  UNL1       -0.2732
     29 H          -0.4803  -16.2655   20.6745 H       1  UNL1        0.1450
     30 H          -0.6088  -17.8774   21.2157 H       1  UNL1        0.1450
     31 C          -7.1735  -19.4203   20.1354 C.3     1  UNL1        0.0629
     32 C          -7.1046  -20.9185   20.1107 C.3     1  UNL1        0.1420
     33 O          -5.7747  -21.6092   20.1748 O.3     1  UNL1       -0.3816
     34 H          -5.2679  -21.4101   19.3721 H       1  UNL1        0.2105
@<TRIPOS>BOND
     1    26    27   am
     2    27    28    2
     3    27    25    1
     4    25     1    1
     5     1     2   ar
     6     2     3    2
     7     2     4   ar
     8     4    31    1
     9    31    32    1
    10    32    33    1
    11     4     5   ar
    12     5    12    1
    13    12    13   ar
    14    13    14   ar
    15    14    15    1
    16    14    16   ar
    17    16    17   ar
    18    17    18   ar
    19    18    19    1
    20     5     6   ar
    21     6     7   ar
    22     7     8   ar
    23     8    21    1
    24    21    22    1
    25    21    23    1
    26    21    24    1
    27     8     9   ar
    28     9    10   ar
    29    10    11   ar
    30    11     1   ar
    31    18    12   ar
    32    11     6   ar
    33    26    29    1
    34    26    30    1
    35    33    34    1
    36    19    20    1
@<TRIPOS>MOLECULE
*****
 34 36 0 0 0
SMALL
GASTEIGER

@<TRIPOS>ATOM
      1 N          -5.4031  -18.7697   21.6686 N.ar    1  UNL1       -0.2869
      2 C          -6.5236  -19.2947   20.8209 C.ar    1  UNL1        0.2573
      3 O          -6.2292  -20.2219   19.6790 O.2     1  UNL1       -0.2673
      4 C          -7.9385  -18.8927   21.1149 C.ar    1  UNL1        0.0366
      5 C          -8.2328  -17.9656   22.2568 C.ar    1  UNL1        0.0050
      6 C          -7.1123  -17.4405   23.1046 C.ar    1  UNL1        0.0158
      7 C          -7.4066  -16.5134   24.2464 C.ar    1  UNL1        0.0053
      8 C          -6.2861  -15.9883   25.0941 C.ar    1  UNL1        0.0715
      9 C          -4.8712  -16.3903   24.8000 C.ar    1  UNL1        0.0053
     10 C          -4.5769  -17.3174   23.6582 C.ar    1  UNL1        0.0172
     11 C          -5.6974  -17.8425   22.8105 C.ar    1  UNL1        0.0629
     12 C          -9.6477  -17.5636   22.5509 C.ar    1  UNL1        0.0344
     13 C         -10.4904  -18.4009   23.4667 C.ar    1  UNL1        0.0144
     14 C         -11.9053  -17.9988   23.7607 C.ar    1  UNL1        0.0579
     15 CL        -12.7480  -18.8362   24.6766 Cl      1  UNL1       -0.0822
     16 C         -12.4775  -16.7595   23.1390 C.ar    1  UNL1        0.0145
     17 C         -11.6348  -15.9221   22.2232 C.ar    1  UNL1        0.0375
     18 C         -10.2199  -16.3241   21.9291 C.ar    1  UNL1        0.1336
     19 O          -9.3772  -15.4868   21.0133 O.3     1  UNL1       -0.5055
     20 H          -9.7346  -14.7126   20.6249 H       1  UNL1        0.2922
     21 C          -6.5804  -15.0612   26.2360 C.3     1  UNL1        0.4186
     22 F          -6.8748  -14.1341   27.3778 F       1  UNL1       -0.1659
     23 F          -8.0004  -15.5438   26.2618 F       1  UNL1       -0.1659
     24 F          -5.1605  -14.5785   26.2102 F       1  UNL1       -0.1659
     25 C          -3.9882  -19.1717   21.3745 C.3     1  UNL1        0.1938
     26 N          -2.6722  -17.0725   20.5923 N.am    1  UNL1       -0.3272
     27 C          -3.2066  -18.4472   20.3189 C.2     1  UNL1        0.2426
     28 O          -2.9595  -19.0973   18.9899 O.2     1  UNL1       -0.2732
     29 H          -2.1592  -16.5970   19.8995 H       1  UNL1        0.1450
     30 H          -2.8343  -16.6458   21.4646 H       1  UNL1        0.1450
     31 C          -9.0590  -19.4178   20.2671 C.3     1  UNL1        0.0629
     32 C          -8.8782  -19.5517   18.7841 C.3     1  UNL1        0.1420
     33 O          -8.8850  -20.9097   18.1474 O.3     1  UNL1       -0.3816
     34 H          -8.1134  -21.4131   18.4510 H       1  UNL1        0.2105
@<TRIPOS>BOND
     1    26    27   am
     2    27    28    2
     3    27    25    1
     4    25     1    1
     5     1     2   ar
     6     2     3    2
     7     2     4   ar
     8     4    31    1
     9    31    32    1
    10    32    33    1
    11     4     5   ar
    12     5    12    1
    13    12    13   ar
    14    13    14   ar
    15    14    15    1
    16    14    16   ar
    17    16    17   ar
    18    17    18   ar
    19    18    19    1
    20     5     6   ar
    21     6     7   ar
    22     7     8   ar
    23     8    21    1
    24    21    22    1
    25    21    23    1
    26    21    24    1
    27     8     9   ar
    28     9    10   ar
    29    10    11   ar
    30    11     1   ar
    31    18    12   ar
    32    11     6   ar
    33    26    29    1
    34    26    30    1
    35    33    34    1
    36    19    20    1
@<TRIPOS>MOLECULE
*****
 34 36 0 0 0
SMALL
GASTEIGER

@<TRIPOS>ATOM
      1 N          -4.6719  -19.1021   21.1894 N.ar    1  UNL1       -0.2869
      2 C          -5.7760  -19.8402   20.4922 C.ar    1  UNL1        0.2573
      3 O          -5.4551  -20.7919   19.3780 O.2     1  UNL1       -0.2673
      4 C          -7.2010  -19.6266   20.9091 C.ar    1  UNL1        0.0366
      5 C          -7.5219  -18.6749   22.0232 C.ar    1  UNL1        0.0050
      6 C          -6.4177  -17.9368   22.7205 C.ar    1  UNL1        0.0158
      7 C          -6.7386  -16.9851   23.8346 C.ar    1  UNL1        0.0053
      8 C          -5.6345  -16.2470   24.5318 C.ar    1  UNL1        0.0715
      9 C          -4.2095  -16.4606   24.1150 C.ar    1  UNL1        0.0053
     10 C          -3.8887  -17.4123   23.0009 C.ar    1  UNL1        0.0172
     11 C          -4.9928  -18.1504   22.3036 C.ar    1  UNL1        0.0629
     12 C          -8.9469  -18.4613   22.4401 C.ar    1  UNL1        0.0344
     13 C          -9.6960  -17.2540   21.9593 C.ar    1  UNL1        0.0144
     14 C         -11.1210  -17.0404   22.3762 C.ar    1  UNL1        0.0579
     15 CL        -11.8701  -15.8330   21.8954 Cl      1  UNL1       -0.0822
     16 C         -11.7968  -18.0340   23.2738 C.ar    1  UNL1        0.0145
     17 C         -11.0477  -19.2414   23.7546 C.ar    1  UNL1        0.0375
     18 C          -9.6227  -19.4550   23.3377 C.ar    1  UNL1        0.1336
     19 O          -8.8736  -20.6623   23.8185 O.3     1  UNL1       -0.5055
     20 H          -9.2957  -21.2831   24.3792 H       1  UNL1        0.2922
     21 C          -5.9554  -15.2953   25.6460 C.3     1  UNL1        0.4186
     22 F          -6.2763  -14.3436   26.7601 F       1  UNL1       -0.1659
     23 F          -7.0870  -14.7318   24.8387 F       1  UNL1       -0.1659
     24 F          -4.8237  -15.8588   26.4533 F       1  UNL1       -0.1659
     25 C          -3.2469  -19.3158   20.7726 C.3     1  UNL1        0.1938
     26 N          -3.4867  -17.4493   18.9812 N.am    1  UNL1       -0.3272
     27 C          -2.6393  -18.4513   19.7079 C.2     1  UNL1        0.2426
     28 O          -1.1844  -18.5888   19.3698 O.2     1  UNL1       -0.2732
     29 H          -3.0879  -16.8819   18.2824 H       1  UNL1        0.1450
     30 H          -4.4416  -17.3591   19.2031 H       1  UNL1        0.1450
     31 C          -8.3051  -20.3647   20.2118 C.3     1  UNL1        0.0629
     32 C          -9.0580  -19.7065   19.0938 C.3     1  UNL1        0.1420
     33 O         -10.5060  -19.3564   19.2690 O.3     1  UNL1       -0.3816
     34 H         -11.0268  -20.1698   19.3586 H       1  UNL1        0.2105
@<TRIPOS>BOND
     1    26    27   am
     2    27    28    2
     3    27    25    1
     4    25     1    1
     5     1     2   ar
     6     2     3    2
     7     2     4   ar
     8     4    31    1
     9    31    32    1
    10    32    33    1
    11     4     5   ar
    12     5    12    1
    13    12    13   ar
    14    13    14   ar
    15    14    15    1
    16    14    16   ar
    17    16    17   ar
    18    17    18   ar
    19    18    19    1
    20     5     6   ar
    21     6     7   ar
    22     7     8   ar
    23     8    21    1
    24    21    22    1
    25    21    23    1
    26    21    24    1
    27     8     9   ar
    28     9    10   ar
    29    10    11   ar
    30    11     1   ar
    31    18    12   ar
    32    11     6   ar
    33    26    29    1
    34    26    30    1
    35    33    34    1
    36    19    20    1
@<TRIPOS>MOLECULE
*****
 34 36 0 0 0
SMALL
GASTEIGER

@<TRIPOS>ATOM
      1 N         -10.4968  -17.8574   22.2299 N.ar    1  UNL1       -0.2869
      2 C         -10.2657  -18.8790   21.1562 C.ar    1  UNL1        0.2573
      3 O         -11.4334  -19.5068   20.4543 O.2     1  UNL1       -0.2673
      4 C          -8.8669  -19.2730   20.7843 C.ar    1  UNL1        0.0366
      5 C          -7.6993  -18.6453   21.4861 C.ar    1  UNL1        0.0050
      6 C          -7.9304  -17.6236   22.5599 C.ar    1  UNL1        0.0158
      7 C          -6.7627  -16.9959   23.2617 C.ar    1  UNL1        0.0053
      8 C          -6.9938  -15.9743   24.3354 C.ar    1  UNL1        0.0715
      9 C          -8.3926  -15.5804   24.7073 C.ar    1  UNL1        0.0053
     10 C          -9.5602  -16.2081   24.0055 C.ar    1  UNL1        0.0172
     11 C          -9.3291  -17.2297   22.9318 C.ar    1  UNL1        0.0629
     12 C          -6.3005  -19.0392   21.1143 C.ar    1  UNL1        0.0344
     13 C          -5.5298  -18.2209   20.1212 C.ar    1  UNL1        0.0144
     14 C          -4.1310  -18.6148   19.7493 C.ar    1  UNL1        0.0579
     15 CL         -3.3603  -17.7964   18.7562 Cl      1  UNL1       -0.0822
     16 C          -3.5030  -19.8271   20.3705 C.ar    1  UNL1        0.0145
     17 C          -4.2738  -20.6455   21.3636 C.ar    1  UNL1        0.0375
     18 C          -5.6725  -20.2516   21.7355 C.ar    1  UNL1        0.1336
     19 O          -6.4433  -21.0699   22.7286 O.3     1  UNL1       -0.5055
     20 H          -6.0510  -21.8272   23.1167 H       1  UNL1        0.2922
     21 C          -5.8262  -15.3466   25.0373 C.3     1  UNL1        0.4186
     22 F          -4.6586  -14.7189   25.7391 F       1  UNL1       -0.1659
     23 F          -6.6024  -15.3379   26.3207 F       1  UNL1       -0.1659
     24 F          -5.0500  -15.3553   23.7538 F       1  UNL1       -0.1659
     25 C         -11.8956  -17.4635   22.6018 C.3     1  UNL1        0.1938
     26 N         -11.7964  -18.9168   24.7531 N.am    1  UNL1       -0.3272
     27 C         -12.5928  -18.1543   23.7361 C.2     1  UNL1        0.2426
     28 O         -14.0865  -18.0827   23.8534 O.2     1  UNL1       -0.2732
     29 H         -12.2540  -19.3703   25.4976 H       1  UNL1        0.1450
     30 H         -10.8160  -18.9638   24.6761 H       1  UNL1        0.1450
     31 C          -8.6359  -20.2947   19.7106 C.3     1  UNL1        0.0629
     32 C          -9.0675  -20.0130   18.3020 C.3     1  UNL1        0.1420
     33 O          -9.1273  -21.1268   17.2990 O.3     1  UNL1       -0.3816
     34 H          -8.2316  -21.4590   17.1310 H       1  UNL1        0.2105
@<TRIPOS>BOND
     1    26    27   am
     2    27    28    2
     3    27    25    1
     4    25     1    1
     5     1     2   ar
     6     2     3    2
     7     2     4   ar
     8     4    31    1
     9    31    32    1
    10    32    33    1
    11     4     5   ar
    12     5    12    1
    13    12    13   ar
    14    13    14   ar
    15    14    15    1
    16    14    16   ar
    17    16    17   ar
    18    17    18   ar
    19    18    19    1
    20     5     6   ar
    21     6     7   ar
    22     7     8   ar
    23     8    21    1
    24    21    22    1
    25    21    23    1
    26    21    24    1
    27     8     9   ar
    28     9    10   ar
    29    10    11   ar
    30    11     1   ar
    31    18    12   ar
    32    11     6   ar
    33    26    29    1
    34    26    30    1
    35    33    34    1
    36    19    20    1
