@<TRIPOS>MOLECULE
*****
 37 41 0 0 0
SMALL
GASTEIGER

@<TRIPOS>ATOM
      1 C           4.4751    0.0805   22.5943 C.ar    1  UNL1        0.1391
      2 C           4.0674    1.4957   22.3095 C.ar    1  UNL1        0.0369
      3 C           2.8293    2.0608   22.9401 C.ar    1  UNL1        0.0031
      4 C           1.9989    1.2108   23.8554 C.ar    1  UNL1        0.0002
      5 C           2.4065   -0.2043   24.1402 C.ar    1  UNL1        0.0031
      6 C           3.6447   -0.7695   23.5096 C.ar    1  UNL1        0.0369
      7 C           0.7607    1.7760   24.4860 C.ar    1  UNL1        0.0001
      8 C           0.4656    1.5070   25.9319 C.ar    1  UNL1        0.0015
      9 C          -0.7725    2.0721   26.5624 C.ar    1  UNL1        0.0191
     10 C          -1.7155    2.9064   25.7471 C.ar    1  UNL1        0.0813
     11 N          -2.9537    3.4716   26.3777 N.ar    1  UNL1       -0.2442
     12 CA         -3.8967    4.3059   25.5624 C.ar    1  UNL1        0.0952
     13 C          -3.6016    4.5749   24.1165 C.ar    1  UNL1        0.0203
     14 C          -2.3634    4.0097   23.4860 C.ar    1  UNL1        0.0031
     15 C          -1.4204    3.1755   24.3013 C.ar    1  UNL1        0.0177
     16 C          -0.1823    2.6103   23.6707 C.ar    1  UNL1        0.0015
     17 C          -5.1348    4.8710   26.1929 C.2     1  UNL1        0.0905
     18 O          -6.3557    5.1190   25.3575 O.co2   1  UNL1       -0.5430
     19 OXT        -5.1521    5.1883   27.6589 O.co2   1  UNL1       -0.5430
     20 O           5.7132   -0.4846   21.9637 O.3     1  UNL1       -0.4705
     21 C           6.3137    0.1818   20.7614 C.3     1  UNL1        0.2364
     22 C           7.3111   -1.0221   18.5933 C.ar    1  UNL1        0.1534
     23 O           6.7334   -1.5547   17.3155 O.2     1  UNL1       -0.3580
     24 N           5.2525   -1.3172   17.3420 N.ar    1  UNL1       -0.0775
     25 C           4.9151   -0.6378   18.6360 C.ar    1  UNL1        0.1237
     26 C           6.1873   -0.4554   19.4093 C.ar    1  UNL1        0.0749
     27 C           3.5457   -0.2150   19.0789 C.ar    1  UNL1        0.0419
     28 C           3.0720    1.1842   18.8189 C.ar    1  UNL1        0.0600
     29 CL          3.9676    2.1608   18.1159 Cl      1  UNL1       -0.0822
     30 C           1.7026    1.6069   19.2618 C.ar    1  UNL1        0.0115
     31 C           0.8070    0.6304   19.9647 C.ar    1  UNL1        0.0017
     32 C           1.2807   -0.7689   20.2248 C.ar    1  UNL1        0.0115
     33 C           2.6501   -1.1916   19.7819 C.ar    1  UNL1        0.0600
     34 CL          3.1237   -2.5908   20.0420 Cl      1  UNL1       -0.0822
     35 C           9.5344    0.2288   19.0852 C.3     1  UNL1        0.0080
     36 C           8.7585   -1.0511   18.9860 C.3     1  UNL1        0.0600
     37 C           9.4300   -2.3598   19.2795 C.3     1  UNL1        0.0080
@<TRIPOS>UNITY_ATOM_ATTR
18 1
charge -1
@<TRIPOS>BOND
     1    35    36    1
     2    36    37    1
     3    36    22    1
     4    22    23   ar
     5    23    24   ar
     6    24    25   ar
     7    25    27    1
     8    27    28   ar
     9    28    29    1
    10    28    30   ar
    11    30    31   ar
    12    31    32   ar
    13    32    33   ar
    14    33    34    1
    15    25    26   ar
    16    26    21    1
    17    21    20    1
    18    20     1    1
    19     1     2   ar
    20     2     3   ar
    21     3     4   ar
    22     4     7    1
    23     7     8   ar
    24     8     9   ar
    25     9    10   ar
    26    10    11   ar
    27    11    12   ar
    28    12    17    1
    29    17    18   ar
    30    17    19   ar
    31    12    13   ar
    32    13    14   ar
    33    14    15   ar
    34    15    16   ar
    35     4     5   ar
    36     5     6   ar
    37    26    22   ar
    38     6     1   ar
    39    33    27   ar
    40    16     7   ar
    41    15    10   ar
@<TRIPOS>MOLECULE
*****
 37 41 0 0 0
SMALL
GASTEIGER

@<TRIPOS>ATOM
      1 C           4.4655   -0.0753   22.6035 C.ar    1  UNL1        0.1391
      2 C           4.0390    1.3192   22.2519 C.ar    1  UNL1        0.0369
      3 C           2.8206    1.9149   22.8926 C.ar    1  UNL1        0.0031
      4 C           2.0287    1.1162   23.8851 C.ar    1  UNL1        0.0002
      5 C           2.4552   -0.2782   24.2368 C.ar    1  UNL1        0.0031
      6 C           3.6736   -0.8740   23.5960 C.ar    1  UNL1        0.0369
      7 C           0.8103    1.7120   24.5259 C.ar    1  UNL1        0.0001
      8 C           0.5819    1.5486   25.9993 C.ar    1  UNL1        0.0015
      9 C          -0.6365    2.1444   26.6400 C.ar    1  UNL1        0.0191
     10 C          -1.6265    2.9036   25.8073 C.ar    1  UNL1        0.0813
     11 N          -2.8449    3.4994   26.4481 N.ar    1  UNL1       -0.2442
     12 CA         -3.8349    4.2587   25.6153 C.ar    1  UNL1        0.0952
     13 C          -3.6065    4.4221   24.1418 C.ar    1  UNL1        0.0203
     14 C          -2.3881    3.8263   23.5011 C.ar    1  UNL1        0.0031
     15 C          -1.3981    3.0671   24.3338 C.ar    1  UNL1        0.0177
     16 C          -0.1797    2.4713   23.6931 C.ar    1  UNL1        0.0015
     17 C          -5.0533    4.8544   26.2560 C.2     1  UNL1        0.0905
     18 O          -6.2692    5.1469   25.4277 O.co2   1  UNL1       -0.5430
     19 OXT        -5.0558    5.1578   27.7251 O.co2   1  UNL1       -0.5430
     20 O           5.6839   -0.6710   21.9628 O.3     1  UNL1       -0.4705
     21 C           6.3200    0.0075   20.7859 C.3     1  UNL1        0.2364
     22 C           7.3299   -1.1928   18.6215 C.ar    1  UNL1        0.1534
     23 O           6.7675   -1.6794   17.3189 O.2     1  UNL1       -0.3580
     24 N           5.2963   -1.3866   17.3111 N.ar    1  UNL1       -0.0775
     25 C           4.9496   -0.7191   18.6089 C.ar    1  UNL1        0.1237
     26 C           6.2065   -0.5993   19.4188 C.ar    1  UNL1        0.0749
     27 C           3.5856   -0.2532   19.0238 C.ar    1  UNL1        0.0419
     28 C           2.6598   -1.1890   19.7429 C.ar    1  UNL1        0.0600
     29 CL          3.0981   -2.5910   20.0471 Cl      1  UNL1       -0.0822
     30 C           1.2958   -0.7230   20.1579 C.ar    1  UNL1        0.0115
     31 C           0.8574    0.6788   19.8538 C.ar    1  UNL1        0.0017
     32 C           1.7832    1.6148   19.1346 C.ar    1  UNL1        0.0115
     33 C           3.1472    1.1488   18.7197 C.ar    1  UNL1        0.0600
     34 CL          4.0729    2.0847   18.0006 Cl      1  UNL1       -0.0822
     35 C           9.5360   -0.0345   19.3576 C.3     1  UNL1        0.0080
     36 C           8.7642   -1.2838   19.0515 C.3     1  UNL1        0.0600
     37 C           9.4265   -2.6238   19.1754 C.3     1  UNL1        0.0080
@<TRIPOS>UNITY_ATOM_ATTR
18 1
charge -1
@<TRIPOS>BOND
     1    35    36    1
     2    36    37    1
     3    36    22    1
     4    22    23   ar
     5    23    24   ar
     6    24    25   ar
     7    25    27    1
     8    27    28   ar
     9    28    29    1
    10    28    30   ar
    11    30    31   ar
    12    31    32   ar
    13    32    33   ar
    14    33    34    1
    15    25    26   ar
    16    26    21    1
    17    21    20    1
    18    20     1    1
    19     1     2   ar
    20     2     3   ar
    21     3     4   ar
    22     4     7    1
    23     7     8   ar
    24     8     9   ar
    25     9    10   ar
    26    10    11   ar
    27    11    12   ar
    28    12    17    1
    29    17    18   ar
    30    17    19   ar
    31    12    13   ar
    32    13    14   ar
    33    14    15   ar
    34    15    16   ar
    35     4     5   ar
    36     5     6   ar
    37    26    22   ar
    38     6     1   ar
    39    33    27   ar
    40    16     7   ar
    41    15    10   ar
@<TRIPOS>MOLECULE
*****
 37 41 0 0 0
SMALL
GASTEIGER

@<TRIPOS>ATOM
      1 C           4.1601    0.3447   22.3442 C.ar    1  UNL1        0.1391
      2 C           3.0246   -0.4653   22.8962 C.ar    1  UNL1        0.0369
      3 C           1.7234    0.2000   23.2340 C.ar    1  UNL1        0.0031
      4 C           1.5576    1.6754   23.0199 C.ar    1  UNL1        0.0002
      5 C           2.6929    2.4854   22.4679 C.ar    1  UNL1        0.0031
      6 C           3.9942    1.8201   22.1301 C.ar    1  UNL1        0.0369
      7 C           0.2563    2.3407   23.3577 C.ar    1  UNL1        0.0001
      8 C          -0.5704    2.9655   22.2732 C.ar    1  UNL1        0.0015
      9 C          -1.8716    3.6308   22.6111 C.ar    1  UNL1        0.0191
     10 C          -2.3462    3.6712   24.0334 C.ar    1  UNL1        0.0813
     11 N          -3.6475    4.3365   24.3713 N.ar    1  UNL1       -0.2442
     12 CA         -4.1221    4.3769   25.7936 C.ar    1  UNL1        0.0952
     13 C          -3.2954    3.7520   26.8782 C.ar    1  UNL1        0.0203
     14 C          -1.9942    3.0867   26.5403 C.ar    1  UNL1        0.0031
     15 C          -1.5196    3.0463   25.1179 C.ar    1  UNL1        0.0177
     16 C          -0.2183    2.3811   24.7801 C.ar    1  UNL1        0.0015
     17 C          -5.4233    5.0422   26.1315 C.2     1  UNL1        0.0905
     18 O          -5.6945    5.4887   27.5376 O.co2   1  UNL1       -0.5430
     19 OXT        -6.4534    5.2610   25.0632 O.co2   1  UNL1       -0.5430
     20 O           5.4613   -0.3206   22.0064 O.3     1  UNL1       -0.4705
     21 C           6.1196   -0.0531   20.6855 C.3     1  UNL1        0.2364
     22 C           6.5187   -2.0834   18.9931 C.ar    1  UNL1        0.1534
     23 O           5.8138   -2.6034   17.7754 O.2     1  UNL1       -0.3580
     24 N           4.6244   -1.7263   17.5184 N.ar    1  UNL1       -0.0775
     25 C           4.5941   -0.6643   18.5772 C.ar    1  UNL1        0.1237
     26 C           5.7649   -0.8849   19.4886 C.ar    1  UNL1        0.0749
     27 C           3.5725    0.4269   18.7026 C.ar    1  UNL1        0.0419
     28 C           2.2142    0.1220   19.2609 C.ar    1  UNL1        0.0600
     29 CL          1.8773   -1.2741   19.6939 Cl      1  UNL1       -0.0822
     30 C           1.1925    1.2132   19.3863 C.ar    1  UNL1        0.0115
     31 C           1.5293    2.6092   18.9533 C.ar    1  UNL1        0.0017
     32 C           2.8878    2.9141   18.3949 C.ar    1  UNL1        0.0115
     33 C           3.9094    1.8230   18.2695 C.ar    1  UNL1        0.0600
     34 CL          5.2677    2.1279   17.7112 Cl      1  UNL1       -0.0822
     35 C           9.1095   -2.2403   19.1064 C.3     1  UNL1        0.0080
     36 C           7.7595   -2.6604   19.6074 C.3     1  UNL1        0.0600
     37 C           7.6504   -3.6575   20.7226 C.3     1  UNL1        0.0080
@<TRIPOS>UNITY_ATOM_ATTR
18 1
charge -1
@<TRIPOS>BOND
     1    35    36    1
     2    36    37    1
     3    36    22    1
     4    22    23   ar
     5    23    24   ar
     6    24    25   ar
     7    25    27    1
     8    27    28   ar
     9    28    29    1
    10    28    30   ar
    11    30    31   ar
    12    31    32   ar
    13    32    33   ar
    14    33    34    1
    15    25    26   ar
    16    26    21    1
    17    21    20    1
    18    20     1    1
    19     1     2   ar
    20     2     3   ar
    21     3     4   ar
    22     4     7    1
    23     7     8   ar
    24     8     9   ar
    25     9    10   ar
    26    10    11   ar
    27    11    12   ar
    28    12    17    1
    29    17    18   ar
    30    17    19   ar
    31    12    13   ar
    32    13    14   ar
    33    14    15   ar
    34    15    16   ar
    35     4     5   ar
    36     5     6   ar
    37    26    22   ar
    38     6     1   ar
    39    33    27   ar
    40    16     7   ar
    41    15    10   ar
@<TRIPOS>MOLECULE
*****
 37 41 0 0 0
SMALL
GASTEIGER

@<TRIPOS>ATOM
      1 C           5.3250    1.0257   21.2837 C.ar    1  UNL1        0.1391
      2 C           6.3409    0.1266   20.6437 C.ar    1  UNL1        0.0369
      3 C           6.7815   -1.1249   21.3434 C.ar    1  UNL1        0.0031
      4 C           6.2063   -1.4773   22.6831 C.ar    1  UNL1        0.0002
      5 C           5.1904   -0.5783   23.3231 C.ar    1  UNL1        0.0031
      6 C           4.7498    0.6733   22.6234 C.ar    1  UNL1        0.0369
      7 C           6.6470   -2.7289   23.3828 C.ar    1  UNL1        0.0001
      8 C           7.3070   -3.8295   22.6063 C.ar    1  UNL1        0.0015
      9 C           7.7476   -5.0810   23.3060 C.ar    1  UNL1        0.0191
     10 C           7.5282   -5.2318   24.7822 C.ar    1  UNL1        0.0813
     11 N           7.9689   -6.4834   25.4819 N.ar    1  UNL1       -0.2442
     12 CA          7.7495   -6.6342   26.9581 C.ar    1  UNL1        0.0952
     13 C           7.0894   -5.5335   27.7346 C.ar    1  UNL1        0.0203
     14 C           6.6488   -4.2820   27.0349 C.ar    1  UNL1        0.0031
     15 C           6.8682   -4.1312   25.5587 C.ar    1  UNL1        0.0177
     16 C           6.4276   -2.8797   24.8590 C.ar    1  UNL1        0.0015
     17 C           8.1901   -7.8857   27.6578 C.2     1  UNL1        0.0905
     18 O           7.7378   -9.2247   27.1555 O.co2   1  UNL1       -0.5430
     19 OXT         9.0831   -7.7981   28.8599 O.co2   1  UNL1       -0.5430
     20 O           4.8844    2.2772   20.5840 O.3     1  UNL1       -0.4705
     21 C           4.4623    2.2232   19.1456 C.3     1  UNL1        0.2364
     22 C           1.9586    2.8877   18.4859 C.ar    1  UNL1        0.1534
     23 O           0.7020    2.1245   18.1882 O.2     1  UNL1       -0.3580
     24 N           1.0084    0.6612   18.3111 N.ar    1  UNL1       -0.0775
     25 C           2.4542    0.5201   18.6847 C.ar    1  UNL1        0.1237
     26 C           3.0415    1.8961   18.7927 C.ar    1  UNL1        0.0749
     27 C           3.1846   -0.7705   18.9106 C.ar    1  UNL1        0.0419
     28 C           2.9836   -1.5326   20.1867 C.ar    1  UNL1        0.0600
     29 CL          2.0521   -1.0042   21.2371 Cl      1  UNL1       -0.0822
     30 C           3.7139   -2.8232   20.4126 C.ar    1  UNL1        0.0115
     31 C           4.6453   -3.3516   19.3623 C.ar    1  UNL1        0.0017
     32 C           4.8464   -2.5894   18.0861 C.ar    1  UNL1        0.0115
     33 C           4.1161   -1.2989   17.8602 C.ar    1  UNL1        0.0600
     34 CL          4.3171   -0.5368   16.5841 Cl      1  UNL1       -0.0822
     35 C           2.7417    5.0650   17.3044 C.3     1  UNL1        0.0080
     36 C           2.1063    4.3804   18.4781 C.3     1  UNL1        0.0600
     37 C           1.6187    5.1884   19.6439 C.3     1  UNL1        0.0080
@<TRIPOS>UNITY_ATOM_ATTR
18 1
charge -1
@<TRIPOS>BOND
     1    35    36    1
     2    36    37    1
     3    36    22    1
     4    22    23   ar
     5    23    24   ar
     6    24    25   ar
     7    25    27    1
     8    27    28   ar
     9    28    29    1
    10    28    30   ar
    11    30    31   ar
    12    31    32   ar
    13    32    33   ar
    14    33    34    1
    15    25    26   ar
    16    26    21    1
    17    21    20    1
    18    20     1    1
    19     1     2   ar
    20     2     3   ar
    21     3     4   ar
    22     4     7    1
    23     7     8   ar
    24     8     9   ar
    25     9    10   ar
    26    10    11   ar
    27    11    12   ar
    28    12    17    1
    29    17    18   ar
    30    17    19   ar
    31    12    13   ar
    32    13    14   ar
    33    14    15   ar
    34    15    16   ar
    35     4     5   ar
    36     5     6   ar
    37    26    22   ar
    38     6     1   ar
    39    33    27   ar
    40    16     7   ar
    41    15    10   ar
@<TRIPOS>MOLECULE
*****
 37 41 0 0 0
SMALL
GASTEIGER

@<TRIPOS>ATOM
      1 C           2.2634    1.1731   22.2442 C.ar    1  UNL1        0.1391
      2 C           1.8756    0.5264   23.5410 C.ar    1  UNL1        0.0369
      3 C           0.7603    1.1023   24.3622 C.ar    1  UNL1        0.0031
      4 C           0.0327    2.3248   23.8868 C.ar    1  UNL1        0.0002
      5 C           0.4204    2.9715   22.5901 C.ar    1  UNL1        0.0031
      6 C           1.5358    2.3956   21.7688 C.ar    1  UNL1        0.0369
      7 C          -1.0826    2.9007   24.7081 C.ar    1  UNL1        0.0001
      8 C          -1.0914    2.7146   26.1965 C.ar    1  UNL1        0.0015
      9 C          -2.2067    3.2905   27.0177 C.ar    1  UNL1        0.0191
     10 C          -3.3132    4.0524   26.3506 C.ar    1  UNL1        0.0813
     11 N          -4.4285    4.6282   27.1719 N.ar    1  UNL1       -0.2442
     12 CA         -5.5351    5.3901   26.5047 C.ar    1  UNL1        0.0952
     13 C          -5.5263    5.5762   25.0163 C.ar    1  UNL1        0.0203
     14 C          -4.4110    5.0003   24.1951 C.ar    1  UNL1        0.0031
     15 C          -3.3044    4.2384   24.8622 C.ar    1  UNL1        0.0177
     16 C          -2.1891    3.6626   24.0410 C.ar    1  UNL1        0.0015
     17 C          -6.6504    5.9660   27.3260 C.2     1  UNL1        0.0905
     18 O          -7.9783    6.2538   26.6906 O.co2   1  UNL1       -0.5430
     19 OXT        -6.4378    6.2540   28.7827 O.co2   1  UNL1       -0.5430
     20 O           3.3786    0.5972   21.4230 O.3     1  UNL1       -0.4705
     21 C           3.2087   -0.7363   20.7575 C.3     1  UNL1        0.2364
     22 C           4.3673   -2.2711   18.9009 C.ar    1  UNL1        0.1534
     23 O           4.8394   -2.0590   17.4930 O.2     1  UNL1       -0.3580
     24 N           4.5598   -0.6332   17.1203 N.ar    1  UNL1       -0.0775
     25 C           3.9149    0.0358   18.2978 C.ar    1  UNL1        0.1237
     26 C           3.7960   -0.9764   19.3983 C.ar    1  UNL1        0.0749
     27 C           3.4675    1.4661   18.3632 C.ar    1  UNL1        0.0419
     28 C           2.0051    1.7970   18.3250 C.ar    1  UNL1        0.0600
     29 CL          0.9898    0.6977   18.2213 Cl      1  UNL1       -0.0822
     30 C           1.5577    3.2272   18.3905 C.ar    1  UNL1        0.0115
     31 C           2.5729    4.3266   18.4942 C.ar    1  UNL1        0.0017
     32 C           4.0354    3.9957   18.5324 C.ar    1  UNL1        0.0115
     33 C           4.4828    2.5654   18.4670 C.ar    1  UNL1        0.0600
     34 CL          5.9453    2.2346   18.5052 Cl      1  UNL1       -0.0822
     35 C           3.4628   -4.6510   19.4185 C.3     1  UNL1        0.0080
     36 C           4.4518   -3.5529   19.6755 C.3     1  UNL1        0.0600
     37 C           5.5251   -3.7366   20.7071 C.3     1  UNL1        0.0080
@<TRIPOS>UNITY_ATOM_ATTR
18 1
charge -1
@<TRIPOS>BOND
     1    35    36    1
     2    36    37    1
     3    36    22    1
     4    22    23   ar
     5    23    24   ar
     6    24    25   ar
     7    25    27    1
     8    27    28   ar
     9    28    29    1
    10    28    30   ar
    11    30    31   ar
    12    31    32   ar
    13    32    33   ar
    14    33    34    1
    15    25    26   ar
    16    26    21    1
    17    21    20    1
    18    20     1    1
    19     1     2   ar
    20     2     3   ar
    21     3     4   ar
    22     4     7    1
    23     7     8   ar
    24     8     9   ar
    25     9    10   ar
    26    10    11   ar
    27    11    12   ar
    28    12    17    1
    29    17    18   ar
    30    17    19   ar
    31    12    13   ar
    32    13    14   ar
    33    14    15   ar
    34    15    16   ar
    35     4     5   ar
    36     5     6   ar
    37    26    22   ar
    38     6     1   ar
    39    33    27   ar
    40    16     7   ar
    41    15    10   ar
@<TRIPOS>MOLECULE
*****
 37 41 0 0 0
SMALL
GASTEIGER

@<TRIPOS>ATOM
      1 C           2.9204    1.3552   21.7484 C.ar    1  UNL1        0.1391
      2 C           2.9565    2.8340   21.9976 C.ar    1  UNL1        0.0369
      3 C           1.7327    3.5396   22.5019 C.ar    1  UNL1        0.0031
      4 C           0.4729    2.7666   22.7572 C.ar    1  UNL1        0.0002
      5 C           0.4368    1.2879   22.5081 C.ar    1  UNL1        0.0031
      6 C           1.6606    0.5822   22.0037 C.ar    1  UNL1        0.0369
      7 C          -0.7509    3.4723   23.2616 C.ar    1  UNL1        0.0001
      8 C          -1.4458    4.4806   22.3954 C.ar    1  UNL1        0.0015
      9 C          -2.6695    5.1863   22.8998 C.ar    1  UNL1        0.0191
     10 C          -3.1984    4.8836   24.2705 C.ar    1  UNL1        0.0813
     11 N          -4.4222    5.5893   24.7749 N.ar    1  UNL1       -0.2442
     12 CA         -4.9511    5.2867   26.1455 C.ar    1  UNL1        0.0952
     13 C          -4.2561    4.2783   27.0118 C.ar    1  UNL1        0.0203
     14 C          -3.0324    3.5726   26.5074 C.ar    1  UNL1        0.0031
     15 C          -2.5035    3.8753   25.1367 C.ar    1  UNL1        0.0177
     16 C          -1.2798    3.1696   24.6323 C.ar    1  UNL1        0.0015
     17 C          -6.1748    5.9923   26.6499 C.2     1  UNL1        0.0905
     18 O          -6.9951    6.8317   25.7159 O.co2   1  UNL1       -0.5430
     19 OXT        -6.5783    5.8586   28.0885 O.co2   1  UNL1       -0.5430
     20 O           4.1442    0.6496   21.2441 O.3     1  UNL1       -0.4705
     21 C           4.0301   -0.7306   20.6679 C.3     1  UNL1        0.2364
     22 C           4.8160   -2.2148   18.5883 C.ar    1  UNL1        0.1534
     23 O           4.9090   -1.9999   17.1067 O.2     1  UNL1       -0.3580
     24 N           4.4330   -0.6088   16.8094 N.ar    1  UNL1       -0.0775
     25 C           4.0459    0.0360   18.1072 C.ar    1  UNL1        0.1237
     26 C           4.2825   -0.9566   19.2066 C.ar    1  UNL1        0.0749
     27 C           3.5153    1.4288   18.2759 C.ar    1  UNL1        0.0419
     28 C           4.4600    2.5936   18.2998 C.ar    1  UNL1        0.0600
     29 CL          5.9355    2.3656   18.1550 Cl      1  UNL1       -0.0822
     30 C           3.9293    3.9864   18.4685 C.ar    1  UNL1        0.0115
     31 C           2.4539    4.2144   18.6133 C.ar    1  UNL1        0.0017
     32 C           1.5091    3.0496   18.5894 C.ar    1  UNL1        0.0115
     33 C           2.0397    1.6568   18.4207 C.ar    1  UNL1        0.0600
     34 CL          1.0950    0.4920   18.3968 Cl      1  UNL1       -0.0822
     35 C           4.3238   -4.6875   19.2157 C.3     1  UNL1        0.0080
     36 C           5.1906   -3.4680   19.3227 C.3     1  UNL1        0.0600
     37 C           6.4319   -3.5016   20.1641 C.3     1  UNL1        0.0080
@<TRIPOS>UNITY_ATOM_ATTR
18 1
charge -1
@<TRIPOS>BOND
     1    35    36    1
     2    36    37    1
     3    36    22    1
     4    22    23   ar
     5    23    24   ar
     6    24    25   ar
     7    25    27    1
     8    27    28   ar
     9    28    29    1
    10    28    30   ar
    11    30    31   ar
    12    31    32   ar
    13    32    33   ar
    14    33    34    1
    15    25    26   ar
    16    26    21    1
    17    21    20    1
    18    20     1    1
    19     1     2   ar
    20     2     3   ar
    21     3     4   ar
    22     4     7    1
    23     7     8   ar
    24     8     9   ar
    25     9    10   ar
    26    10    11   ar
    27    11    12   ar
    28    12    17    1
    29    17    18   ar
    30    17    19   ar
    31    12    13   ar
    32    13    14   ar
    33    14    15   ar
    34    15    16   ar
    35     4     5   ar
    36     5     6   ar
    37    26    22   ar
    38     6     1   ar
    39    33    27   ar
    40    16     7   ar
    41    15    10   ar
@<TRIPOS>MOLECULE
*****
 37 41 0 0 0
SMALL
GASTEIGER

@<TRIPOS>ATOM
      1 C          -2.2748    4.7980   22.8495 C.ar    1  UNL1        0.1391
      2 C          -1.5518    3.7204   23.6019 C.ar    1  UNL1        0.0369
      3 C          -0.6527    2.7686   22.8700 C.ar    1  UNL1        0.0031
      4 C          -0.4766    2.8944   21.3857 C.ar    1  UNL1        0.0002
      5 C          -1.1996    3.9719   20.6333 C.ar    1  UNL1        0.0031
      6 C          -2.0987    4.9238   21.3652 C.ar    1  UNL1        0.0369
      7 C           0.4225    1.9425   20.6538 C.ar    1  UNL1        0.0001
      8 C           0.5580    2.0350   19.1628 C.ar    1  UNL1        0.0015
      9 C           1.4571    1.0832   18.4310 C.ar    1  UNL1        0.0191
     10 C           2.2207    0.0389   19.1902 C.ar    1  UNL1        0.0813
     11 N           3.1199   -0.9130   18.4582 N.ar    1  UNL1       -0.2442
     12 CA          3.8835   -1.9572   19.2174 C.ar    1  UNL1        0.0952
     13 C           3.7480   -2.0497   20.7085 C.ar    1  UNL1        0.0203
     14 C           2.8489   -1.0978   21.4403 C.ar    1  UNL1        0.0031
     15 C           2.0853   -0.0536   20.6811 C.ar    1  UNL1        0.0177
     16 C           1.1862    0.8983   21.4130 C.ar    1  UNL1        0.0015
     17 C           4.7826   -2.9091   18.4856 C.2     1  UNL1        0.0905
     18 O           5.8345   -2.3820   17.5552 O.co2   1  UNL1       -0.5430
     19 OXT         4.6298   -4.3880   18.6842 O.co2   1  UNL1       -0.5430
     20 O          -3.1739    5.7498   23.5814 O.3     1  UNL1       -0.4705
     21 C          -4.4395    6.2319   22.9368 C.3     1  UNL1        0.2364
     22 C          -6.3706    5.4272   24.6007 C.ar    1  UNL1        0.1534
     23 O          -7.6627    4.6815   24.4446 O.2     1  UNL1       -0.3580
     24 N          -7.8333    4.3491   22.9918 N.ar    1  UNL1       -0.0775
     25 C          -6.6467    4.8894   22.2502 C.ar    1  UNL1        0.1237
     26 C          -5.7427    5.5557   23.2445 C.ar    1  UNL1        0.0749
     27 C          -6.4064    4.7823   20.7734 C.ar    1  UNL1        0.0419
     28 C          -5.4805    3.7303   20.2386 C.ar    1  UNL1        0.0600
     29 CL         -4.7949    2.7854   21.1805 Cl      1  UNL1       -0.0822
     30 C          -5.2402    3.6231   18.7619 C.ar    1  UNL1        0.0115
     31 C          -5.9258    4.5680   17.8199 C.ar    1  UNL1        0.0017
     32 C          -6.8517    5.6200   18.3548 C.ar    1  UNL1        0.0115
     33 C          -7.0920    5.7271   19.8315 C.ar    1  UNL1        0.0600
     34 CL         -8.0179    6.7791   20.3663 Cl      1  UNL1       -0.0822
     35 C          -4.9604    5.0652   26.7525 C.3     1  UNL1        0.0080
     36 C          -5.8055    5.9523   25.8873 C.3     1  UNL1        0.0600
     37 C          -6.0857    7.3643   26.3085 C.3     1  UNL1        0.0080
@<TRIPOS>UNITY_ATOM_ATTR
18 1
charge -1
@<TRIPOS>BOND
     1    35    36    1
     2    36    37    1
     3    36    22    1
     4    22    23   ar
     5    23    24   ar
     6    24    25   ar
     7    25    27    1
     8    27    28   ar
     9    28    29    1
    10    28    30   ar
    11    30    31   ar
    12    31    32   ar
    13    32    33   ar
    14    33    34    1
    15    25    26   ar
    16    26    21    1
    17    21    20    1
    18    20     1    1
    19     1     2   ar
    20     2     3   ar
    21     3     4   ar
    22     4     7    1
    23     7     8   ar
    24     8     9   ar
    25     9    10   ar
    26    10    11   ar
    27    11    12   ar
    28    12    17    1
    29    17    18   ar
    30    17    19   ar
    31    12    13   ar
    32    13    14   ar
    33    14    15   ar
    34    15    16   ar
    35     4     5   ar
    36     5     6   ar
    37    26    22   ar
    38     6     1   ar
    39    33    27   ar
    40    16     7   ar
    41    15    10   ar
@<TRIPOS>MOLECULE
*****
 37 41 0 0 0
SMALL
GASTEIGER

@<TRIPOS>ATOM
      1 C           4.4278   -0.9013   24.4345 C.ar    1  UNL1        0.1391
      2 C           3.3940   -0.5656   23.4008 C.ar    1  UNL1        0.0369
      3 C           2.1497    0.1727   23.7966 C.ar    1  UNL1        0.0031
      4 C           1.9392    0.5752   25.2261 C.ar    1  UNL1        0.0002
      5 C           2.9729    0.2395   26.2599 C.ar    1  UNL1        0.0031
      6 C           4.2173   -0.4988   25.8641 C.ar    1  UNL1        0.0369
      7 C           0.6948    1.3135   25.6219 C.ar    1  UNL1        0.0001
      8 C           0.2083    1.2573   27.0397 C.ar    1  UNL1        0.0015
      9 C          -1.0360    1.9955   27.4354 C.ar    1  UNL1        0.0191
     10 C          -1.7938    2.7900   26.4134 C.ar    1  UNL1        0.0813
     11 N          -3.0381    3.5283   26.8092 N.ar    1  UNL1       -0.2442
     12 CA         -3.7959    4.3228   25.7871 C.ar    1  UNL1        0.0952
     13 C          -3.3093    4.3790   24.3693 C.ar    1  UNL1        0.0203
     14 C          -2.0650    3.6407   23.9736 C.ar    1  UNL1        0.0031
     15 C          -1.3073    2.8462   24.9956 C.ar    1  UNL1        0.0177
     16 C          -0.0630    2.1080   24.5999 C.ar    1  UNL1        0.0015
     17 C          -5.0402    5.0611   26.1828 C.2     1  UNL1        0.0905
     18 O          -6.1080    5.3311   25.1645 O.co2   1  UNL1       -0.5430
     19 OXT        -5.2168    5.5293   27.5970 O.co2   1  UNL1       -0.5430
     20 O           5.6721   -1.6396   24.0387 O.3     1  UNL1       -0.4705
     21 C           5.6594   -3.1368   23.9495 C.3     1  UNL1        0.2364
     22 C           7.5753   -4.8294   23.1685 C.ar    1  UNL1        0.1534
     23 O           8.1287   -5.2675   21.8449 O.2     1  UNL1       -0.3580
     24 N           7.3799   -4.5419   20.7665 N.ar    1  UNL1       -0.0775
     25 C           6.3638   -3.6555   21.4236 C.ar    1  UNL1        0.1237
     26 C           6.4846   -3.8332   22.9081 C.ar    1  UNL1        0.0749
     27 C           5.3967   -2.7504   20.7197 C.ar    1  UNL1        0.0419
     28 C           4.1061   -3.2996   20.1881 C.ar    1  UNL1        0.0600
     29 CL          3.7825   -4.7542   20.3604 Cl      1  UNL1       -0.0822
     30 C           3.1390   -2.3945   19.4842 C.ar    1  UNL1        0.0115
     31 C           3.4625   -0.9400   19.3119 C.ar    1  UNL1        0.0017
     32 C           4.7532   -0.3907   19.8436 C.ar    1  UNL1        0.0115
     33 C           5.7203   -1.2958   20.5474 C.ar    1  UNL1        0.0600
     34 CL          7.0108   -0.7465   21.0790 Cl      1  UNL1       -0.0822
     35 C           8.7672   -4.3697   25.4309 C.3     1  UNL1        0.0080
     36 C           8.0325   -5.3042   24.5160 C.3     1  UNL1        0.0600
     37 C           7.7550   -6.7133   24.9486 C.3     1  UNL1        0.0080
@<TRIPOS>UNITY_ATOM_ATTR
18 1
charge -1
@<TRIPOS>BOND
     1    35    36    1
     2    36    37    1
     3    36    22    1
     4    22    23   ar
     5    23    24   ar
     6    24    25   ar
     7    25    27    1
     8    27    28   ar
     9    28    29    1
    10    28    30   ar
    11    30    31   ar
    12    31    32   ar
    13    32    33   ar
    14    33    34    1
    15    25    26   ar
    16    26    21    1
    17    21    20    1
    18    20     1    1
    19     1     2   ar
    20     2     3   ar
    21     3     4   ar
    22     4     7    1
    23     7     8   ar
    24     8     9   ar
    25     9    10   ar
    26    10    11   ar
    27    11    12   ar
    28    12    17    1
    29    17    18   ar
    30    17    19   ar
    31    12    13   ar
    32    13    14   ar
    33    14    15   ar
    34    15    16   ar
    35     4     5   ar
    36     5     6   ar
    37    26    22   ar
    38     6     1   ar
    39    33    27   ar
    40    16     7   ar
    41    15    10   ar
@<TRIPOS>MOLECULE
*****
 37 41 0 0 0
SMALL
GASTEIGER

@<TRIPOS>ATOM
      1 C           1.7065    0.0391   28.3640 C.ar    1  UNL1        0.1391
      2 C           2.0558    0.5770   27.0079 C.ar    1  UNL1        0.0369
      3 C           1.0677    1.4205   26.2584 C.ar    1  UNL1        0.0031
      4 C          -0.2698    1.7262   26.8647 C.ar    1  UNL1        0.0002
      5 C          -0.6191    1.1883   28.2207 C.ar    1  UNL1        0.0031
      6 C           0.3691    0.3447   28.9703 C.ar    1  UNL1        0.0369
      7 C          -1.2580    2.5698   26.1150 C.ar    1  UNL1        0.0001
      8 C          -1.0518    2.8480   24.6556 C.ar    1  UNL1        0.0015
      9 C          -2.0399    3.6915   23.9060 C.ar    1  UNL1        0.0191
     10 C          -3.2343    4.2568   24.6159 C.ar    1  UNL1        0.0813
     11 N          -4.2225    5.1004   23.8662 N.ar    1  UNL1       -0.2442
     12 CA         -5.4169    5.6657   24.5761 C.ar    1  UNL1        0.0952
     13 C          -5.6231    5.3874   26.0356 C.ar    1  UNL1        0.0203
     14 C          -4.6349    4.5439   26.7852 C.ar    1  UNL1        0.0031
     15 C          -3.4406    3.9786   26.0753 C.ar    1  UNL1        0.0177
     16 C          -2.4524    3.1350   26.8249 C.ar    1  UNL1        0.0015
     17 C          -6.4051    6.5092   23.8265 C.2     1  UNL1        0.0905
     18 O          -7.8357    6.5648   24.2740 O.co2   1  UNL1       -0.5430
     19 OXT        -5.9627    7.2973   22.6292 O.co2   1  UNL1       -0.5430
     20 O           2.6947   -0.8045   29.1136 O.3     1  UNL1       -0.4705
     21 C           2.6982   -0.8010   30.6135 C.3     1  UNL1        0.2364
     22 C           4.8195   -0.5701   32.2236 C.ar    1  UNL1        0.1534
     23 O           5.6163    0.5772   32.7702 O.2     1  UNL1       -0.3580
     24 N           5.0193    1.8487   32.2437 N.ar    1  UNL1       -0.0775
     25 C           3.8536    1.4871   31.3717 C.ar    1  UNL1        0.1237
     26 C           3.7300   -0.0077   31.3593 C.ar    1  UNL1        0.0749
     27 C           2.9671    2.4512   30.6406 C.ar    1  UNL1        0.0419
     28 C           3.3951    3.0062   29.3145 C.ar    1  UNL1        0.0600
     29 CL          4.7099    2.5970   28.7193 Cl      1  UNL1       -0.0822
     30 C           2.5086    3.9703   28.5833 C.ar    1  UNL1        0.0115
     31 C           1.1939    4.3794   29.1784 C.ar    1  UNL1        0.0017
     32 C           0.7658    3.8245   30.5046 C.ar    1  UNL1        0.0115
     33 C           1.6523    2.8604   31.2357 C.ar    1  UNL1        0.0600
     34 CL          1.2242    2.3055   32.5618 Cl      1  UNL1       -0.0822
     35 C           6.1108   -2.7652   31.7100 C.3     1  UNL1        0.0080
     36 C           5.0683   -2.0244   32.4938 C.3     1  UNL1        0.0600
     37 C           4.2747   -2.7380   33.5478 C.3     1  UNL1        0.0080
@<TRIPOS>UNITY_ATOM_ATTR
18 1
charge -1
@<TRIPOS>BOND
     1    35    36    1
     2    36    37    1
     3    36    22    1
     4    22    23   ar
     5    23    24   ar
     6    24    25   ar
     7    25    27    1
     8    27    28   ar
     9    28    29    1
    10    28    30   ar
    11    30    31   ar
    12    31    32   ar
    13    32    33   ar
    14    33    34    1
    15    25    26   ar
    16    26    21    1
    17    21    20    1
    18    20     1    1
    19     1     2   ar
    20     2     3   ar
    21     3     4   ar
    22     4     7    1
    23     7     8   ar
    24     8     9   ar
    25     9    10   ar
    26    10    11   ar
    27    11    12   ar
    28    12    17    1
    29    17    18   ar
    30    17    19   ar
    31    12    13   ar
    32    13    14   ar
    33    14    15   ar
    34    15    16   ar
    35     4     5   ar
    36     5     6   ar
    37    26    22   ar
    38     6     1   ar
    39    33    27   ar
    40    16     7   ar
    41    15    10   ar
