@<TRIPOS>MOLECULE
*****
 35 40 0 0 0
SMALL
GASTEIGER

@<TRIPOS>ATOM
      1 N          -8.8061  -17.9038   21.3622 N.3     1  UNL1       -0.2679
      2 C         -10.2429  -17.4746   21.3248 C.3     1  UNL1        0.0978
      3 C         -10.7559  -16.6717   20.1664 C.3     1  UNL1        0.0224
      4 C         -12.1928  -16.2424   20.1291 C.3     1  UNL1        0.0065
      5 C         -13.1165  -16.6161   21.2502 C.3     1  UNL1        0.0277
      6 C         -12.6034  -17.4190   22.4087 C.ar    1  UNL1       -0.0073
      7 C         -13.5271  -17.7927   23.5299 C.ar    1  UNL1       -0.0015
      8 C         -13.0141  -18.5956   24.6884 C.ar    1  UNL1        0.0203
      9 C         -11.5773  -19.0248   24.7257 C.ar    1  UNL1        0.0985
     10 N         -10.6536  -18.6512   23.6046 N.ar    1  UNL1       -0.2471
     11 C         -11.1667  -17.8482   22.4461 C.ar    1  UNL1        0.0695
     12 C          -7.7200  -16.8778   21.4954 C.3     1  UNL1        0.0886
     13 C          -6.9327  -14.8495   28.0158 C.ar    1  UNL1       -0.0003
     14 C          -8.3935  -15.0408   27.7341 C.ar    1  UNL1       -0.0003
     15 C          -8.8432  -15.4847   26.3736 C.ar    1  UNL1       -0.0045
     16 C          -7.8320  -15.7373   25.2949 C.ar    1  UNL1       -0.0234
     17 C          -6.3712  -15.5461   25.5767 C.ar    1  UNL1       -0.0103
     18 C          -5.9216  -15.1021   26.9371 C.ar    1  UNL1       -0.0032
     19 C          -5.3599  -15.7987   24.4980 C.3     1  UNL1        0.0953
     20 N          -5.8095  -16.2426   23.1375 N.3     1  UNL1       -0.2934
     21 C          -7.2704  -16.4339   22.8558 C.3     1  UNL1        0.0748
     22 C          -8.2816  -16.1812   23.9345 C.3     1  UNL1        0.0432
     23 H          -5.3547  -17.1371   22.9544 H       1  UNL1        0.1236
     24 C          -8.4554  -19.3591   21.2663 C.3     1  UNL1        0.0738
     25 C          -7.6108  -19.9985   22.3283 C.3     1  UNL1        0.0347
     26 C          -6.3913  -20.7834   21.9452 C.3     1  UNL1        0.0736
     27 N          -5.1326  -20.0687   21.5515 N.3     1  UNL1       -0.2703
     28 C          -4.6566  -20.1160   20.1298 C.3     1  UNL1        0.0897
     29 C          -3.3979  -19.4013   19.7362 C.3     1  UNL1        0.0896
     30 N          -2.6152  -18.6394   20.7642 N.3     1  UNL1       -0.2716
     31 C          -3.0912  -18.5921   22.1859 C.3     1  UNL1        0.0896
     32 C          -4.3499  -19.3068   22.5795 C.3     1  UNL1        0.0897
     33 C          -1.3565  -17.9247   20.3705 C.3     1  UNL1        0.0577
     34 C           0.0131  -17.9472   19.7593 C.3     1  UNL1        0.0173
     35 C          -0.5460  -16.6646   20.2999 C.3     1  UNL1        0.0173
@<TRIPOS>BOND
     1    13    14   ar
     2    14    15   ar
     3    15    16   ar
     4    16    17   ar
     5    17    18   ar
     6    17    19    1
     7    19    20    1
     8    20    21    1
     9    21    12    1
    10    12     1    1
    11     1    24    1
    12    24    25    1
    13    25    26    1
    14    26    27    1
    15    27    28    1
    16    28    29    1
    17    29    30    1
    18    30    33    1
    19    33    34    1
    20    34    35    1
    21    30    31    1
    22    31    32    1
    23     2     1    1
    24     2     3    1
    25     3     4    1
    26     4     5    1
    27     5     6    1
    28     6     7   ar
    29     7     8   ar
    30     8     9   ar
    31     9    10   ar
    32    10    11   ar
    33    21    22    1
    34    18    13   ar
    35    32    27    1
    36    11     2    1
    37    22    16    1
    38    35    33    1
    39    11     6   ar
    40    20    23    1
@<TRIPOS>MOLECULE
*****
 35 40 0 0 0
SMALL
GASTEIGER

@<TRIPOS>ATOM
      1 N          -8.3675  -18.5020   21.2832 N.3     1  UNL1       -0.2679
      2 C          -9.3012  -18.9379   22.3731 C.3     1  UNL1        0.0978
      3 C          -8.8933  -20.0289   23.3184 C.3     1  UNL1        0.0224
      4 C          -9.8271  -20.4648   24.4083 C.3     1  UNL1        0.0065
      5 C         -11.1688  -19.8099   24.5530 C.3     1  UNL1        0.0277
      6 C         -11.5767  -18.7190   23.6077 C.ar    1  UNL1       -0.0073
      7 C         -12.9183  -18.0640   23.7524 C.ar    1  UNL1       -0.0015
      8 C         -13.3262  -16.9731   22.8071 C.ar    1  UNL1        0.0203
      9 C         -12.3925  -16.5371   21.7172 C.ar    1  UNL1        0.0985
     10 N         -11.0508  -17.1921   21.5725 N.ar    1  UNL1       -0.2471
     11 C         -10.6429  -18.2830   22.5178 C.ar    1  UNL1        0.0695
     12 C          -7.6225  -17.2059   21.4075 C.3     1  UNL1        0.0886
     13 C          -6.9002  -14.8906   27.8393 C.ar    1  UNL1       -0.0003
     14 C          -8.3612  -15.0128   27.5226 C.ar    1  UNL1       -0.0003
     15 C          -8.7979  -15.5003   26.1729 C.ar    1  UNL1       -0.0045
     16 C          -7.7735  -15.8656   25.1399 C.ar    1  UNL1       -0.0234
     17 C          -6.3125  -15.7434   25.4566 C.ar    1  UNL1       -0.0103
     18 C          -5.8758  -15.2560   26.8063 C.ar    1  UNL1       -0.0032
     19 C          -5.2880  -16.1088   24.4236 C.3     1  UNL1        0.0953
     20 N          -5.7247  -16.5963   23.0739 N.3     1  UNL1       -0.2934
     21 C          -7.1858  -16.7184   22.7572 C.3     1  UNL1        0.0748
     22 C          -8.2102  -16.3531   23.7902 C.3     1  UNL1        0.0432
     23 H          -5.3180  -17.5234   22.9499 H       1  UNL1        0.1236
     24 C          -8.1786  -19.3620   20.0688 C.3     1  UNL1        0.0738
     25 C          -7.1450  -20.4491   20.0730 C.3     1  UNL1        0.0347
     26 C          -6.0973  -20.4837   21.1459 C.3     1  UNL1        0.0736
     27 N          -4.7803  -19.7987   20.9305 N.3     1  UNL1       -0.2703
     28 C          -3.7983  -19.6894   22.0591 C.3     1  UNL1        0.0897
     29 C          -2.4814  -19.0044   21.8436 C.3     1  UNL1        0.0896
     30 N          -2.1465  -18.4287   20.4996 N.3     1  UNL1       -0.2716
     31 C          -3.1284  -18.5380   19.3710 C.3     1  UNL1        0.0896
     32 C          -4.4454  -19.2230   19.5865 C.3     1  UNL1        0.0897
     33 C          -0.8294  -17.7437   20.2842 C.3     1  UNL1        0.0577
     34 C           0.6551  -17.8167   20.0828 C.3     1  UNL1        0.0173
     35 C          -0.0330  -16.4843   20.1124 C.3     1  UNL1        0.0173
@<TRIPOS>BOND
     1    13    14   ar
     2    14    15   ar
     3    15    16   ar
     4    16    17   ar
     5    17    18   ar
     6    17    19    1
     7    19    20    1
     8    20    21    1
     9    21    12    1
    10    12     1    1
    11     1    24    1
    12    24    25    1
    13    25    26    1
    14    26    27    1
    15    27    28    1
    16    28    29    1
    17    29    30    1
    18    30    33    1
    19    33    34    1
    20    34    35    1
    21    30    31    1
    22    31    32    1
    23     2     1    1
    24     2     3    1
    25     3     4    1
    26     4     5    1
    27     5     6    1
    28     6     7   ar
    29     7     8   ar
    30     8     9   ar
    31     9    10   ar
    32    10    11   ar
    33    21    22    1
    34    18    13   ar
    35    32    27    1
    36    11     2    1
    37    22    16    1
    38    35    33    1
    39    11     6   ar
    40    20    23    1
@<TRIPOS>MOLECULE
*****
 35 40 0 0 0
SMALL
GASTEIGER

@<TRIPOS>ATOM
      1 N          -7.4505  -20.0296   21.9548 N.3     1  UNL1       -0.2679
      2 C          -8.3017  -19.4841   23.0629 C.3     1  UNL1        0.0978
      3 C          -9.2279  -20.3938   23.8145 C.3     1  UNL1        0.0224
      4 C         -10.0791  -19.8483   24.9227 C.3     1  UNL1        0.0065
      5 C         -10.0041  -18.3932   25.2792 C.3     1  UNL1        0.0277
      6 C          -9.0779  -17.4836   24.5277 C.ar    1  UNL1       -0.0073
      7 C          -9.0030  -16.0286   24.8842 C.ar    1  UNL1       -0.0015
      8 C          -8.0768  -15.1189   24.1327 C.ar    1  UNL1        0.0203
      9 C          -7.2256  -15.6644   23.0246 C.ar    1  UNL1        0.0985
     10 N          -7.3006  -17.1194   22.6680 N.ar    1  UNL1       -0.2471
     11 C          -8.2268  -18.0290   23.4196 C.ar    1  UNL1        0.0695
     12 C          -6.0407  -20.4593   22.2340 C.3     1  UNL1        0.0886
     13 C          -0.6721  -16.6967   20.1674 C.ar    1  UNL1       -0.0003
     14 C          -0.9644  -17.7441   19.1343 C.ar    1  UNL1       -0.0003
     15 C          -2.0966  -18.7061   19.3410 C.ar    1  UNL1       -0.0045
     16 C          -2.9365  -18.6207   20.5808 C.ar    1  UNL1       -0.0234
     17 C          -2.6442  -17.5733   21.6140 C.ar    1  UNL1       -0.0103
     18 C          -1.5120  -16.6113   21.4073 C.ar    1  UNL1       -0.0032
     19 C          -3.4841  -17.4879   22.8539 C.3     1  UNL1        0.0953
     20 N          -4.6163  -18.4499   23.0606 N.3     1  UNL1       -0.2934
     21 C          -4.9085  -19.4973   22.0273 C.3     1  UNL1        0.0748
     22 C          -4.0687  -19.5827   20.7875 C.3     1  UNL1        0.0432
     23 H          -5.4633  -17.8906   23.1607 H       1  UNL1        0.1236
     24 C          -8.0090  -20.1453   20.5675 C.3     1  UNL1        0.0738
     25 C          -8.0916  -18.9325   19.6887 C.3     1  UNL1        0.0347
     26 C          -9.4104  -18.2513   19.4725 C.3     1  UNL1        0.0736
     27 N         -10.4424  -18.2523   20.5611 N.3     1  UNL1       -0.2703
     28 C         -11.1467  -19.5255   20.9257 C.3     1  UNL1        0.0897
     29 C         -12.1787  -19.5264   22.0143 C.3     1  UNL1        0.0896
     30 N         -12.5064  -18.2542   22.7382 N.3     1  UNL1       -0.2716
     31 C         -11.8021  -16.9810   22.3735 C.3     1  UNL1        0.0896
     32 C         -10.7702  -16.9801   21.2850 C.3     1  UNL1        0.0897
     33 C         -13.5384  -18.2552   23.8268 C.3     1  UNL1        0.0577
     34 C         -14.9762  -18.2780   24.2537 C.3     1  UNL1        0.0173
     35 C         -13.8881  -18.2341   25.2853 C.3     1  UNL1        0.0173
@<TRIPOS>BOND
     1    13    14   ar
     2    14    15   ar
     3    15    16   ar
     4    16    17   ar
     5    17    18   ar
     6    17    19    1
     7    19    20    1
     8    20    21    1
     9    21    12    1
    10    12     1    1
    11     1    24    1
    12    24    25    1
    13    25    26    1
    14    26    27    1
    15    27    28    1
    16    28    29    1
    17    29    30    1
    18    30    33    1
    19    33    34    1
    20    34    35    1
    21    30    31    1
    22    31    32    1
    23     2     1    1
    24     2     3    1
    25     3     4    1
    26     4     5    1
    27     5     6    1
    28     6     7   ar
    29     7     8   ar
    30     8     9   ar
    31     9    10   ar
    32    10    11   ar
    33    21    22    1
    34    18    13   ar
    35    32    27    1
    36    11     2    1
    37    22    16    1
    38    35    33    1
    39    11     6   ar
    40    20    23    1
@<TRIPOS>MOLECULE
*****
 35 40 0 0 0
SMALL
GASTEIGER

@<TRIPOS>ATOM
      1 N          -6.2630  -18.5696   21.1076 N.3     1  UNL1       -0.2679
      2 C          -4.8565  -18.4850   21.6220 C.3     1  UNL1        0.0978
      3 C          -4.5818  -18.6582   23.0864 C.3     1  UNL1        0.0224
      4 C          -3.1752  -18.5736   23.6007 C.3     1  UNL1        0.0065
      5 C          -2.0435  -18.3158   22.6507 C.3     1  UNL1        0.0277
      6 C          -2.3182  -18.1426   21.1862 C.ar    1  UNL1       -0.0073
      7 C          -1.1865  -17.8848   20.2362 C.ar    1  UNL1       -0.0015
      8 C          -1.4613  -17.7116   18.7718 C.ar    1  UNL1        0.0203
      9 C          -2.8677  -17.7962   18.2574 C.ar    1  UNL1        0.0985
     10 N          -3.9995  -18.0540   19.2075 N.ar    1  UNL1       -0.2471
     11 C          -3.7247  -18.2272   20.6719 C.ar    1  UNL1        0.0695
     12 C          -7.2220  -17.4435   21.3573 C.3     1  UNL1        0.0886
     13 C          -7.6952  -15.1424   27.8173 C.ar    1  UNL1       -0.0003
     14 C          -6.3655  -14.7427   27.2499 C.ar    1  UNL1       -0.0003
     15 C          -6.0049  -15.1230   25.8444 C.ar    1  UNL1       -0.0045
     16 C          -6.9740  -15.9029   25.0063 C.ar    1  UNL1       -0.0234
     17 C          -8.3037  -16.3026   25.5738 C.ar    1  UNL1       -0.0103
     18 C          -8.6643  -15.9224   26.9793 C.ar    1  UNL1       -0.0032
     19 C          -9.2730  -17.0827   24.7357 C.3     1  UNL1        0.0953
     20 N          -8.9124  -17.4629   23.3302 N.3     1  UNL1       -0.2934
     21 C          -7.5826  -17.0632   22.7628 C.3     1  UNL1        0.0748
     22 C          -6.6134  -16.2832   23.6009 C.3     1  UNL1        0.0432
     23 H          -9.6252  -17.0578   22.7235 H       1  UNL1        0.1236
     24 C          -6.7106  -19.7803   20.3436 C.3     1  UNL1        0.0738
     25 C          -7.4526  -19.6189   19.0500 C.3     1  UNL1        0.0347
     26 C          -8.9069  -19.9771   18.9697 C.3     1  UNL1        0.0736
     27 N          -9.8425  -19.5653   20.0675 N.3     1  UNL1       -0.2703
     28 C          -9.9343  -20.3838   21.3212 C.3     1  UNL1        0.0897
     29 C         -10.8698  -19.9719   22.4189 C.3     1  UNL1        0.0896
     30 N         -11.7136  -18.7416   22.2630 N.3     1  UNL1       -0.2716
     31 C         -11.6218  -17.9231   21.0094 C.3     1  UNL1        0.0896
     32 C         -10.6863  -18.3350   19.9116 C.3     1  UNL1        0.0897
     33 C         -12.6492  -18.3297   23.3609 C.3     1  UNL1        0.0577
     34 C         -13.7268  -17.4232   23.8773 C.3     1  UNL1        0.0173
     35 C         -13.1919  -18.5230   24.7458 C.3     1  UNL1        0.0173
@<TRIPOS>BOND
     1    13    14   ar
     2    14    15   ar
     3    15    16   ar
     4    16    17   ar
     5    17    18   ar
     6    17    19    1
     7    19    20    1
     8    20    21    1
     9    21    12    1
    10    12     1    1
    11     1    24    1
    12    24    25    1
    13    25    26    1
    14    26    27    1
    15    27    28    1
    16    28    29    1
    17    29    30    1
    18    30    33    1
    19    33    34    1
    20    34    35    1
    21    30    31    1
    22    31    32    1
    23     2     1    1
    24     2     3    1
    25     3     4    1
    26     4     5    1
    27     5     6    1
    28     6     7   ar
    29     7     8   ar
    30     8     9   ar
    31     9    10   ar
    32    10    11   ar
    33    21    22    1
    34    18    13   ar
    35    32    27    1
    36    11     2    1
    37    22    16    1
    38    35    33    1
    39    11     6   ar
    40    20    23    1
@<TRIPOS>MOLECULE
*****
 35 40 0 0 0
SMALL
GASTEIGER

@<TRIPOS>ATOM
      1 N          -8.5158  -16.2777   23.9349 N.3     1  UNL1       -0.2679
      2 C          -9.6095  -17.2897   24.1063 C.3     1  UNL1        0.0978
      3 C          -9.4847  -18.3594   25.1504 C.3     1  UNL1        0.0224
      4 C         -10.5785  -19.3715   25.3217 C.3     1  UNL1        0.0065
      5 C         -11.7971  -19.3138   24.4491 C.3     1  UNL1        0.0277
      6 C         -11.9220  -18.2441   23.4050 C.ar    1  UNL1       -0.0073
      7 C         -13.1406  -18.1864   22.5324 C.ar    1  UNL1       -0.0015
      8 C         -13.2655  -17.1166   21.4883 C.ar    1  UNL1        0.0203
      9 C         -12.1717  -16.1046   21.3169 C.ar    1  UNL1        0.0985
     10 N         -10.9531  -16.1623   22.1896 N.ar    1  UNL1       -0.2471
     11 C         -10.8282  -17.2320   23.2336 C.ar    1  UNL1        0.0695
     12 C          -7.7110  -16.2501   22.6694 C.3     1  UNL1        0.0886
     13 C          -7.4632  -21.8619   18.7074 C.ar    1  UNL1       -0.0003
     14 C          -8.7047  -21.0855   18.3820 C.ar    1  UNL1       -0.0003
     15 C          -9.0025  -19.8079   19.1093 C.ar    1  UNL1       -0.0045
     16 C          -8.0589  -19.3066   20.1620 C.ar    1  UNL1       -0.0234
     17 C          -6.8174  -20.0830   20.4875 C.ar    1  UNL1       -0.0103
     18 C          -6.5196  -21.3606   19.7602 C.ar    1  UNL1       -0.0032
     19 C          -5.8737  -19.5818   21.5403 C.3     1  UNL1        0.0953
     20 N          -6.1716  -18.3042   22.2676 N.3     1  UNL1       -0.2934
     21 C          -7.4131  -17.5278   21.9421 C.3     1  UNL1        0.0748
     22 C          -8.3567  -18.0290   20.8893 C.3     1  UNL1        0.0432
     23 H          -5.3820  -17.6800   22.1018 H       1  UNL1        0.1236
     24 C          -8.2268  -15.2931   25.0291 C.3     1  UNL1        0.0738
     25 C          -7.3591  -15.6909   26.1861 C.3     1  UNL1        0.0347
     26 C          -5.8910  -15.3839   26.1630 C.3     1  UNL1        0.0736
     27 N          -5.0370  -15.8878   25.0374 N.3     1  UNL1       -0.2703
     28 C          -4.3632  -17.2234   25.1471 C.3     1  UNL1        0.0897
     29 C          -3.5092  -17.7273   24.0216 C.3     1  UNL1        0.0896
     30 N          -3.3291  -16.8956   22.7864 N.3     1  UNL1       -0.2716
     31 C          -4.0029  -15.5599   22.6767 C.3     1  UNL1        0.0896
     32 C          -4.8568  -15.0561   23.8022 C.3     1  UNL1        0.0897
     33 C          -2.4751  -17.3995   21.6609 C.3     1  UNL1        0.0577
     34 C          -2.0259  -18.5219   20.7730 C.3     1  UNL1        0.0173
     35 C          -1.4451  -17.1499   20.5993 C.3     1  UNL1        0.0173
@<TRIPOS>BOND
     1    13    14   ar
     2    14    15   ar
     3    15    16   ar
     4    16    17   ar
     5    17    18   ar
     6    17    19    1
     7    19    20    1
     8    20    21    1
     9    21    12    1
    10    12     1    1
    11     1    24    1
    12    24    25    1
    13    25    26    1
    14    26    27    1
    15    27    28    1
    16    28    29    1
    17    29    30    1
    18    30    33    1
    19    33    34    1
    20    34    35    1
    21    30    31    1
    22    31    32    1
    23     2     1    1
    24     2     3    1
    25     3     4    1
    26     4     5    1
    27     5     6    1
    28     6     7   ar
    29     7     8   ar
    30     8     9   ar
    31     9    10   ar
    32    10    11   ar
    33    21    22    1
    34    18    13   ar
    35    32    27    1
    36    11     2    1
    37    22    16    1
    38    35    33    1
    39    11     6   ar
    40    20    23    1
@<TRIPOS>MOLECULE
*****
 35 40 0 0 0
SMALL
GASTEIGER

@<TRIPOS>ATOM
      1 N           7.7811   -2.8754   20.4936 N.3     1  UNL1       -0.2679
      2 C           6.3073   -2.8093   20.2227 C.3     1  UNL1        0.0978
      3 C           5.7338   -3.5004   19.0213 C.3     1  UNL1        0.0224
      4 C           4.2599   -3.4342   18.7504 C.3     1  UNL1        0.0065
      5 C           3.3596   -2.6769   19.6810 C.3     1  UNL1        0.0277
      6 C           3.9331   -1.9858   20.8824 C.ar    1  UNL1       -0.0073
      7 C           3.0328   -1.2285   21.8129 C.ar    1  UNL1       -0.0015
      8 C           3.6064   -0.5374   23.0143 C.ar    1  UNL1        0.0203
      9 C           5.0802   -0.6035   23.2852 C.ar    1  UNL1        0.0985
     10 N           5.9805   -1.3608   22.3547 N.ar    1  UNL1       -0.2471
     11 C           5.4069   -2.0520   21.1533 C.ar    1  UNL1        0.0695
     12 C           8.4737   -4.2047   20.5543 C.3     1  UNL1        0.0886
     13 C           7.3198   -7.0757   26.6924 C.ar    1  UNL1       -0.0003
     14 C           6.7731   -5.6789   26.6930 C.ar    1  UNL1       -0.0003
     15 C           6.8945   -4.8254   25.4656 C.ar    1  UNL1       -0.0045
     16 C           7.5627   -5.3686   24.2374 C.ar    1  UNL1       -0.0234
     17 C           8.1094   -6.7654   24.2367 C.ar    1  UNL1       -0.0103
     18 C           7.9880   -7.6189   25.4642 C.ar    1  UNL1       -0.0032
     19 C           8.7776   -7.3086   23.0085 C.3     1  UNL1        0.0953
     20 N           8.8990   -6.4551   21.7811 N.3     1  UNL1       -0.2934
     21 C           8.3522   -5.0583   21.7818 C.3     1  UNL1        0.0748
     22 C           7.6841   -4.5150   23.0099 C.3     1  UNL1        0.0432
     23 H           8.4283   -6.9552   21.0269 H       1  UNL1        0.1236
     24 C           8.5625   -1.6124   20.7038 C.3     1  UNL1        0.0738
     25 C           9.2297   -0.9408   19.5403 C.3     1  UNL1        0.0347
     26 C           8.6616    0.3299   18.9812 C.3     1  UNL1        0.0736
     27 N           7.1753    0.5100   18.8886 N.3     1  UNL1       -0.2703
     28 C           6.4467    1.2865   19.9451 C.3     1  UNL1        0.0897
     29 C           4.9604    1.4666   19.8524 C.3     1  UNL1        0.0896
     30 N           4.2028    0.8702   18.7034 N.3     1  UNL1       -0.2716
     31 C           4.9314    0.0937   17.6469 C.3     1  UNL1        0.0896
     32 C           6.4177   -0.0864   17.7396 C.3     1  UNL1        0.0897
     33 C           2.7165    1.0504   18.6108 C.3     1  UNL1        0.0577
     34 C           1.3376    0.4625   18.5576 C.3     1  UNL1        0.0173
     35 C           1.5212    1.9502   18.5036 C.3     1  UNL1        0.0173
@<TRIPOS>BOND
     1    13    14   ar
     2    14    15   ar
     3    15    16   ar
     4    16    17   ar
     5    17    18   ar
     6    17    19    1
     7    19    20    1
     8    20    21    1
     9    21    12    1
    10    12     1    1
    11     1    24    1
    12    24    25    1
    13    25    26    1
    14    26    27    1
    15    27    28    1
    16    28    29    1
    17    29    30    1
    18    30    33    1
    19    33    34    1
    20    34    35    1
    21    30    31    1
    22    31    32    1
    23     2     1    1
    24     2     3    1
    25     3     4    1
    26     4     5    1
    27     5     6    1
    28     6     7   ar
    29     7     8   ar
    30     8     9   ar
    31     9    10   ar
    32    10    11   ar
    33    21    22    1
    34    18    13   ar
    35    32    27    1
    36    11     2    1
    37    22    16    1
    38    35    33    1
    39    11     6   ar
    40    20    23    1
@<TRIPOS>MOLECULE
*****
 35 40 0 0 0
SMALL
GASTEIGER

@<TRIPOS>ATOM
      1 N           7.1686   -4.0508   23.4583 N.3     1  UNL1       -0.2679
      2 C           7.6506   -5.2673   24.1916 C.3     1  UNL1        0.0978
      3 C           8.3499   -6.3648   23.4456 C.3     1  UNL1        0.0224
      4 C           8.8318   -7.5813   24.1790 C.3     1  UNL1        0.0065
      5 C           8.6145   -7.7003   25.6583 C.3     1  UNL1        0.0277
      6 C           7.9153   -6.6029   26.4044 C.ar    1  UNL1       -0.0073
      7 C           7.6980   -6.7219   27.8837 C.ar    1  UNL1       -0.0015
      8 C           6.9987   -5.6244   28.6298 C.ar    1  UNL1        0.0203
      9 C           6.5167   -4.4080   27.8965 C.ar    1  UNL1        0.0985
     10 N           6.7340   -4.2889   26.4171 N.ar    1  UNL1       -0.2471
     11 C           7.4333   -5.3864   25.6711 C.ar    1  UNL1        0.0695
     12 C           5.7530   -3.9831   22.9669 C.3     1  UNL1        0.0886
     13 C           1.3753    1.2759   23.6218 C.ar    1  UNL1       -0.0003
     14 C           1.4263    0.8558   22.1828 C.ar    1  UNL1       -0.0003
     15 C           2.3120   -0.2801   21.7640 C.ar    1  UNL1       -0.0045
     16 C           3.1468   -0.9958   22.7842 C.ar    1  UNL1       -0.0234
     17 C           3.0957   -0.5757   24.2233 C.ar    1  UNL1       -0.0103
     18 C           2.2100    0.5601   24.6421 C.ar    1  UNL1       -0.0032
     19 C           3.9305   -1.2914   25.2436 C.3     1  UNL1        0.0953
     20 N           4.8163   -2.4272   24.8248 N.3     1  UNL1       -0.2934
     21 C           4.8672   -2.8473   23.3857 C.3     1  UNL1        0.0748
     22 C           4.0325   -2.1316   22.3654 C.3     1  UNL1        0.0432
     23 H           4.5206   -3.2439   25.3596 H       1  UNL1        0.1236
     24 C           8.1023   -2.9020   23.2164 C.3     1  UNL1        0.0738
     25 C           9.0076   -2.9103   22.0205 C.3     1  UNL1        0.0347
     26 C           8.4409   -3.1497   20.6524 C.3     1  UNL1        0.0736
     27 N           7.3030   -2.3087   20.1542 N.3     1  UNL1       -0.2703
     28 C           6.2045   -2.9350   19.3475 C.3     1  UNL1        0.0897
     29 C           5.0668   -2.0940   18.8493 C.3     1  UNL1        0.0896
     30 N           5.0276   -0.6266   19.1580 N.3     1  UNL1       -0.2716
     31 C           6.1261   -0.0003   19.9647 C.3     1  UNL1        0.0896
     32 C           7.2638   -0.8413   20.4629 C.3     1  UNL1        0.0897
     33 C           3.8897    0.2144   18.6598 C.3     1  UNL1        0.0577
     34 C           3.2886    1.5637   18.3994 C.3     1  UNL1        0.0173
     35 C           2.5202    0.3217   18.0573 C.3     1  UNL1        0.0173
@<TRIPOS>BOND
     1    13    14   ar
     2    14    15   ar
     3    15    16   ar
     4    16    17   ar
     5    17    18   ar
     6    17    19    1
     7    19    20    1
     8    20    21    1
     9    21    12    1
    10    12     1    1
    11     1    24    1
    12    24    25    1
    13    25    26    1
    14    26    27    1
    15    27    28    1
    16    28    29    1
    17    29    30    1
    18    30    33    1
    19    33    34    1
    20    34    35    1
    21    30    31    1
    22    31    32    1
    23     2     1    1
    24     2     3    1
    25     3     4    1
    26     4     5    1
    27     5     6    1
    28     6     7   ar
    29     7     8   ar
    30     8     9   ar
    31     9    10   ar
    32    10    11   ar
    33    21    22    1
    34    18    13   ar
    35    32    27    1
    36    11     2    1
    37    22    16    1
    38    35    33    1
    39    11     6   ar
    40    20    23    1
@<TRIPOS>MOLECULE
*****
 35 40 0 0 0
SMALL
GASTEIGER

@<TRIPOS>ATOM
      1 N           7.3101   -3.6662   20.9496 N.3     1  UNL1       -0.2679
      2 C           7.0891   -3.8030   22.4268 C.3     1  UNL1        0.0978
      3 C           6.3675   -2.7251   23.1802 C.3     1  UNL1        0.0224
      4 C           6.1465   -2.8620   24.6576 C.3     1  UNL1        0.0065
      5 C           6.6471   -4.0766   25.3815 C.3     1  UNL1        0.0277
      6 C           7.3687   -5.1544   24.6281 C.ar    1  UNL1       -0.0073
      7 C           7.8693   -6.3690   25.3520 C.ar    1  UNL1       -0.0015
      8 C           8.5909   -7.4468   24.5986 C.ar    1  UNL1        0.0203
      9 C           8.8119   -7.3101   23.1213 C.ar    1  UNL1        0.0985
     10 N           8.3113   -6.0954   22.3974 N.ar    1  UNL1       -0.2471
     11 C           7.5897   -5.0176   23.1508 C.ar    1  UNL1        0.0695
     12 C           6.2210   -4.0448   19.9900 C.3     1  UNL1        0.0886
     13 C           1.3364    0.6054   18.6614 C.ar    1  UNL1       -0.0003
     14 C           1.0845    0.0005   20.0107 C.ar    1  UNL1       -0.0003
     15 C           2.0110   -1.0505   20.5463 C.ar    1  UNL1       -0.0045
     16 C           3.1895   -1.4966   19.7326 C.ar    1  UNL1       -0.0234
     17 C           3.4414   -0.8917   18.3833 C.ar    1  UNL1       -0.0103
     18 C           2.5148    0.1593   17.8477 C.ar    1  UNL1       -0.0032
     19 C           4.6199   -1.3379   17.5695 C.3     1  UNL1        0.0953
     20 N           5.5464   -2.3889   18.1051 N.3     1  UNL1       -0.2934
     21 C           5.2945   -2.9938   19.4544 C.3     1  UNL1        0.0748
     22 C           4.1160   -2.5477   20.2681 C.3     1  UNL1        0.0432
     23 H           6.4768   -1.9721   18.1383 H       1  UNL1        0.1236
     24 C           8.6201   -3.1507   20.4317 C.3     1  UNL1        0.0738
     25 C           8.6612   -2.3392   19.1709 C.3     1  UNL1        0.0347
     26 C           8.8448   -0.8522   19.2418 C.3     1  UNL1        0.0736
     27 N           7.6559    0.0420   19.4344 N.3     1  UNL1       -0.2703
     28 C           6.8871    0.0007   20.7217 C.3     1  UNL1        0.0897
     29 C           5.6983    0.8948   20.9143 C.3     1  UNL1        0.0896
     30 N           5.2783    1.8304   19.8196 N.3     1  UNL1       -0.2716
     31 C           6.0471    1.8717   18.5323 C.3     1  UNL1        0.0896
     32 C           7.2359    0.9776   18.3397 C.3     1  UNL1        0.0897
     33 C           4.0894    2.7245   20.0123 C.3     1  UNL1        0.0577
     34 C           2.9225    3.1737   20.8408 C.3     1  UNL1        0.0173
     35 C           3.1972    3.8241   19.5174 C.3     1  UNL1        0.0173
@<TRIPOS>BOND
     1    13    14   ar
     2    14    15   ar
     3    15    16   ar
     4    16    17   ar
     5    17    18   ar
     6    17    19    1
     7    19    20    1
     8    20    21    1
     9    21    12    1
    10    12     1    1
    11     1    24    1
    12    24    25    1
    13    25    26    1
    14    26    27    1
    15    27    28    1
    16    28    29    1
    17    29    30    1
    18    30    33    1
    19    33    34    1
    20    34    35    1
    21    30    31    1
    22    31    32    1
    23     2     1    1
    24     2     3    1
    25     3     4    1
    26     4     5    1
    27     5     6    1
    28     6     7   ar
    29     7     8   ar
    30     8     9   ar
    31     9    10   ar
    32    10    11   ar
    33    21    22    1
    34    18    13   ar
    35    32    27    1
    36    11     2    1
    37    22    16    1
    38    35    33    1
    39    11     6   ar
    40    20    23    1
@<TRIPOS>MOLECULE
*****
 35 40 0 0 0
SMALL
GASTEIGER

@<TRIPOS>ATOM
      1 N           7.0421   -3.4541   20.2841 N.3     1  UNL1       -0.2679
      2 C           6.9573   -2.0031   19.9136 C.3     1  UNL1        0.0978
      3 C           7.5767   -1.5178   18.6365 C.3     1  UNL1        0.0224
      4 C           7.4919   -0.0667   18.2660 C.3     1  UNL1        0.0065
      5 C           6.7877    0.8989   19.1724 C.3     1  UNL1        0.0277
      6 C           6.1683    0.4136   20.4494 C.ar    1  UNL1       -0.0073
      7 C           5.4642    1.3792   21.3558 C.ar    1  UNL1       -0.0015
      8 C           4.8448    0.8938   22.6329 C.ar    1  UNL1        0.0203
      9 C           4.9296   -0.5572   23.0035 C.ar    1  UNL1        0.0985
     10 N           5.6337   -1.5228   22.0970 N.ar    1  UNL1       -0.2471
     11 C           6.2531   -1.0374   20.8200 C.ar    1  UNL1        0.0695
     12 C           8.3183   -4.0129   20.8403 C.3     1  UNL1        0.0886
     13 C           7.5034   -7.4225   26.7530 C.ar    1  UNL1       -0.0003
     14 C           6.8901   -6.0599   26.8834 C.ar    1  UNL1       -0.0003
     15 C           6.9304   -5.1054   25.7270 C.ar    1  UNL1       -0.0045
     16 C           7.5841   -5.5136   24.4401 C.ar    1  UNL1       -0.0234
     17 C           8.1974   -6.8762   24.3097 C.ar    1  UNL1       -0.0103
     18 C           8.1571   -7.8307   25.4661 C.ar    1  UNL1       -0.0032
     19 C           8.8510   -7.2845   23.0227 C.3     1  UNL1        0.0953
     20 N           8.8913   -6.3300   21.8663 N.3     1  UNL1       -0.2934
     21 C           8.2780   -4.9673   21.9968 C.3     1  UNL1        0.0748
     22 C           7.6244   -4.5591   23.2836 C.3     1  UNL1        0.0432
     23 H           8.4212   -6.7912   21.0874 H       1  UNL1        0.1236
     24 C           5.8507   -4.3465   20.0986 C.3     1  UNL1        0.0738
     25 C           4.9050   -4.1077   18.9591 C.3     1  UNL1        0.0347
     26 C           3.5503   -3.5188   19.2196 C.3     1  UNL1        0.0736
     27 N           3.3280   -2.0450   19.0507 N.3     1  UNL1       -0.2703
     28 C           2.5498   -1.2810   20.0806 C.3     1  UNL1        0.0897
     29 C           2.3276    0.1927   19.9118 C.3     1  UNL1        0.0896
     30 N           2.8835    0.9025   18.7130 N.3     1  UNL1       -0.2716
     31 C           3.6617    0.1386   17.6831 C.3     1  UNL1        0.0896
     32 C           3.8840   -1.3352   17.8520 C.3     1  UNL1        0.0897
     33 C           2.6613    2.3764   18.5441 C.3     1  UNL1        0.0577
     34 C           1.7751    3.5797   18.6734 C.3     1  UNL1        0.0173
     35 C           3.1625    3.7258   18.1224 C.3     1  UNL1        0.0173
@<TRIPOS>BOND
     1    13    14   ar
     2    14    15   ar
     3    15    16   ar
     4    16    17   ar
     5    17    18   ar
     6    17    19    1
     7    19    20    1
     8    20    21    1
     9    21    12    1
    10    12     1    1
    11     1    24    1
    12    24    25    1
    13    25    26    1
    14    26    27    1
    15    27    28    1
    16    28    29    1
    17    29    30    1
    18    30    33    1
    19    33    34    1
    20    34    35    1
    21    30    31    1
    22    31    32    1
    23     2     1    1
    24     2     3    1
    25     3     4    1
    26     4     5    1
    27     5     6    1
    28     6     7   ar
    29     7     8   ar
    30     8     9   ar
    31     9    10   ar
    32    10    11   ar
    33    21    22    1
    34    18    13   ar
    35    32    27    1
    36    11     2    1
    37    22    16    1
    38    35    33    1
    39    11     6   ar
    40    20    23    1
