@<TRIPOS>MOLECULE
*****
 23 24 0 0 0
SMALL
GASTEIGER

@<TRIPOS>ATOM
      1 C          -4.3065  -18.9451   22.2587 C.ar    1  UNL1        0.1387
      2 C          -5.6691  -19.3911   21.8178 C.ar    1  UNL1        0.0370
      3 C          -6.8837  -18.6178   22.2378 C.ar    1  UNL1        0.0061
      4 C          -6.7359  -17.3984   23.0988 C.ar    1  UNL1        0.0342
      5 C          -7.9506  -16.6250   23.5188 C.ar    1  UNL1        0.1386
      6 C          -7.8027  -15.4056   24.3797 C.ar    1  UNL1        0.0369
      7 C          -6.4400  -14.9596   24.8206 C.ar    1  UNL1        0.0031
      8 C          -5.2253  -15.7329   24.4006 C.ar    1  UNL1        0.0003
      9 C          -5.3733  -16.9524   23.5396 C.ar    1  UNL1        0.0059
     10 C          -4.1586  -17.7257   23.1196 C.ar    1  UNL1        0.0370
     11 C          -2.3019  -19.2818   20.6406 C.3     1  UNL1        0.2525
     12 O          -3.0918  -19.7185   21.8386 O.3     1  UNL1       -0.4714
     13 O          -9.3131  -17.0710   23.0779 O.3     1  UNL1       -0.4728
     14 C         -10.2155  -17.7866   24.0390 C.3     1  UNL1        0.2358
     15 C         -10.2429  -19.2861   24.0675 C.3     1  UNL1        0.1697
     16 O         -10.2698  -20.0109   25.3804 O.3     1  UNL1       -0.3793
     17 H         -10.2657  -19.3667   26.1056 H       1  UNL1        0.2106
     18 C         -10.2434  -20.0607   22.7830 C.3     1  UNL1        0.1020
     19 N         -11.1431  -19.6453   21.6570 N.3     1  UNL1       -0.2964
     20 H         -11.8374  -19.0117   22.0532 H       1  UNL1        0.1233
     21 C         -10.5694  -18.9602   20.4522 C.3     1  UNL1        0.0541
     22 C          -9.4449  -19.5979   19.6913 C.3     1  UNL1        0.0171
     23 C         -11.1202  -17.6376   20.0082 C.3     1  UNL1        0.0171
@<TRIPOS>BOND
     1    11    12    1
     2    12     1    1
     3     1     2   ar
     4     2     3   ar
     5     3     4   ar
     6     4     5   ar
     7     5    13    1
     8    13    14    1
     9    14    15    1
    10    15    16    1
    11    15    18    1
    12    18    19    1
    13    19    21    1
    14    21    22    1
    15    21    23    1
    16     5     6   ar
    17     6     7   ar
    18     7     8   ar
    19     8     9   ar
    20     9    10   ar
    21    10     1   ar
    22     9     4   ar
    23    16    17    1
    24    19    20    1
@<TRIPOS>MOLECULE
*****
 23 24 0 0 0
SMALL
GASTEIGER

@<TRIPOS>ATOM
      1 C          -3.7654  -18.7801   22.2062 C.ar    1  UNL1        0.1387
      2 C          -5.0390  -19.3938   21.7053 C.ar    1  UNL1        0.0370
      3 C          -6.3594  -18.7784   22.0627 C.ar    1  UNL1        0.0061
      4 C          -6.4062  -17.5492   22.9211 C.ar    1  UNL1        0.0342
      5 C          -7.7266  -16.9337   23.2785 C.ar    1  UNL1        0.1386
      6 C          -7.7733  -15.7046   24.1369 C.ar    1  UNL1        0.0369
      7 C          -6.4996  -15.0907   24.6379 C.ar    1  UNL1        0.0031
      8 C          -5.1792  -15.7062   24.2805 C.ar    1  UNL1        0.0003
      9 C          -5.1325  -16.9354   23.4220 C.ar    1  UNL1        0.0059
     10 C          -3.8121  -17.5509   23.0646 C.ar    1  UNL1        0.0370
     11 C          -1.7066  -18.9308   20.6286 C.3     1  UNL1        0.2525
     12 O          -2.4450  -19.3955   21.8488 O.3     1  UNL1       -0.4714
     13 O          -9.0003  -17.5475   22.7775 O.3     1  UNL1       -0.4728
     14 C         -10.3215  -17.0606   23.2945 C.3     1  UNL1        0.2358
     15 C         -11.3206  -16.4593   22.3509 C.3     1  UNL1        0.1697
     16 O         -12.1266  -15.2665   22.7721 O.3     1  UNL1       -0.3793
     17 H         -11.8807  -15.0127   23.6754 H       1  UNL1        0.2106
     18 C         -11.5136  -17.0510   20.9861 C.3     1  UNL1        0.1020
     19 N         -10.3413  -17.6180   20.2418 N.3     1  UNL1       -0.2964
     20 H          -9.5023  -17.2405   20.6822 H       1  UNL1        0.1233
     21 C         -10.1544  -19.1039   20.1567 C.3     1  UNL1        0.0541
     22 C         -10.9783  -20.0140   21.0186 C.3     1  UNL1        0.0171
     23 C          -9.1436  -19.6796   19.2097 C.3     1  UNL1        0.0171
@<TRIPOS>BOND
     1    11    12    1
     2    12     1    1
     3     1     2   ar
     4     2     3   ar
     5     3     4   ar
     6     4     5   ar
     7     5    13    1
     8    13    14    1
     9    14    15    1
    10    15    16    1
    11    15    18    1
    12    18    19    1
    13    19    21    1
    14    21    22    1
    15    21    23    1
    16     5     6   ar
    17     6     7   ar
    18     7     8   ar
    19     8     9   ar
    20     9    10   ar
    21    10     1   ar
    22     9     4   ar
    23    16    17    1
    24    19    20    1
@<TRIPOS>MOLECULE
*****
 23 24 0 0 0
SMALL
GASTEIGER

@<TRIPOS>ATOM
      1 C          -3.0739  -18.8475   21.8595 C.ar    1  UNL1        0.1387
      2 C          -4.2456  -19.4832   21.1716 C.ar    1  UNL1        0.0370
      3 C          -5.6359  -18.9960   21.4541 C.ar    1  UNL1        0.0061
      4 C          -5.8546  -17.8733   22.4244 C.ar    1  UNL1        0.0342
      5 C          -7.2449  -17.3862   22.7068 C.ar    1  UNL1        0.1386
      6 C          -7.4636  -16.2634   23.6771 C.ar    1  UNL1        0.0369
      7 C          -6.2919  -15.6277   24.3650 C.ar    1  UNL1        0.0031
      8 C          -4.9016  -16.1148   24.0826 C.ar    1  UNL1        0.0003
      9 C          -4.6830  -17.2376   23.1122 C.ar    1  UNL1        0.0059
     10 C          -3.2927  -17.7247   22.8298 C.ar    1  UNL1        0.0370
     11 C          -0.9067  -18.7612   20.4293 C.3     1  UNL1        0.2525
     12 O          -1.6836  -19.3346   21.5771 O.3     1  UNL1       -0.4714
     13 O          -8.4165  -18.0218   22.0189 O.3     1  UNL1       -0.4728
     14 C          -9.6106  -17.1921   21.6504 C.3     1  UNL1        0.2358
     15 C         -10.9719  -17.8197   21.5955 C.3     1  UNL1        0.1697
     16 O         -12.1903  -16.9952   21.8879 O.3     1  UNL1       -0.3793
     17 H         -11.9234  -16.0853   22.0926 H       1  UNL1        0.2106
     18 C         -11.1147  -19.2719   21.2480 C.3     1  UNL1        0.1020
     19 N         -11.1882  -20.3001   22.3377 N.3     1  UNL1       -0.2964
     20 H         -10.6980  -21.1268   21.9961 H       1  UNL1        0.1233
     21 C         -10.6287  -19.9951   23.6956 C.3     1  UNL1        0.0541
     22 C          -9.3404  -20.6258   24.1348 C.3     1  UNL1        0.0171
     23 C         -11.3572  -19.0596   24.6142 C.3     1  UNL1        0.0171
@<TRIPOS>BOND
     1    11    12    1
     2    12     1    1
     3     1     2   ar
     4     2     3   ar
     5     3     4   ar
     6     4     5   ar
     7     5    13    1
     8    13    14    1
     9    14    15    1
    10    15    16    1
    11    15    18    1
    12    18    19    1
    13    19    21    1
    14    21    22    1
    15    21    23    1
    16     5     6   ar
    17     6     7   ar
    18     7     8   ar
    19     8     9   ar
    20     9    10   ar
    21    10     1   ar
    22     9     4   ar
    23    16    17    1
    24    19    20    1
@<TRIPOS>MOLECULE
*****
 23 24 0 0 0
SMALL
GASTEIGER

@<TRIPOS>ATOM
      1 C         -18.0155   -7.8236   18.8717 C.ar    1  UNL1        0.1387
      2 C         -16.8402   -8.7453   18.7338 C.ar    1  UNL1        0.0370
      3 C         -15.4490   -8.2219   18.9355 C.ar    1  UNL1        0.0061
      4 C         -15.2331   -6.7770   19.2750 C.ar    1  UNL1        0.0342
      5 C         -13.8419   -6.2536   19.4766 C.ar    1  UNL1        0.1386
      6 C         -13.6260   -4.8086   19.8161 C.ar    1  UNL1        0.0369
      7 C         -14.8014   -3.8869   19.9540 C.ar    1  UNL1        0.0031
      8 C         -16.1926   -4.4102   19.7524 C.ar    1  UNL1        0.0003
      9 C         -16.4084   -5.8553   19.4129 C.ar    1  UNL1        0.0059
     10 C         -17.7996   -6.3786   19.2112 C.ar    1  UNL1        0.0370
     11 C         -19.6275   -9.6094   17.8908 C.3     1  UNL1        0.2525
     12 O         -19.4067   -8.3469   18.6701 O.3     1  UNL1       -0.4714
     13 O         -12.6665   -7.1753   19.3387 O.3     1  UNL1       -0.4728
     14 C         -11.9106   -7.2384   18.0447 C.3     1  UNL1        0.2358
     15 C         -10.4335   -7.4994   18.0509 C.3     1  UNL1        0.1697
     16 O          -9.8957   -8.7794   17.4832 O.3     1  UNL1       -0.3793
     17 H         -10.6303   -9.3221   17.1566 H       1  UNL1        0.2106
     18 C          -9.4942   -6.4804   18.6248 C.3     1  UNL1        0.1020
     19 N         -10.0191   -5.1543   19.0895 N.3     1  UNL1       -0.2964
     20 H          -9.4411   -4.8696   19.8802 H       1  UNL1        0.1233
     21 C         -10.0617   -3.9912   18.1432 C.3     1  UNL1        0.0541
     22 C         -10.8489   -2.7645   18.4977 C.3     1  UNL1        0.0171
     23 C          -9.3173   -4.0548   16.8426 C.3     1  UNL1        0.0171
@<TRIPOS>BOND
     1    11    12    1
     2    12     1    1
     3     1     2   ar
     4     2     3   ar
     5     3     4   ar
     6     4     5   ar
     7     5    13    1
     8    13    14    1
     9    14    15    1
    10    15    16    1
    11    15    18    1
    12    18    19    1
    13    19    21    1
    14    21    22    1
    15    21    23    1
    16     5     6   ar
    17     6     7   ar
    18     7     8   ar
    19     8     9   ar
    20     9    10   ar
    21    10     1   ar
    22     9     4   ar
    23    16    17    1
    24    19    20    1
@<TRIPOS>MOLECULE
*****
 23 24 0 0 0
SMALL
GASTEIGER

@<TRIPOS>ATOM
      1 C         -16.9017   -8.1950   18.4218 C.ar    1  UNL1        0.1387
      2 C         -15.6170   -8.8653   18.0341 C.ar    1  UNL1        0.0370
      3 C         -14.3077   -8.1748   18.2771 C.ar    1  UNL1        0.0061
      4 C         -14.2830   -6.8142   18.9078 C.ar    1  UNL1        0.0342
      5 C         -12.9737   -6.1237   19.1508 C.ar    1  UNL1        0.1386
      6 C         -12.9491   -4.7630   19.7815 C.ar    1  UNL1        0.0369
      7 C         -14.2338   -4.0927   20.1692 C.ar    1  UNL1        0.0031
      8 C         -15.5431   -4.7831   19.9263 C.ar    1  UNL1        0.0003
      9 C         -15.5677   -6.1439   19.2955 C.ar    1  UNL1        0.0059
     10 C         -16.8770   -6.8343   19.0525 C.ar    1  UNL1        0.0370
     11 C         -18.2503  -10.3724   17.9858 C.3     1  UNL1        0.2525
     12 O         -18.2110   -8.8854   18.1788 O.3     1  UNL1       -0.4714
     13 O         -11.6891   -6.7940   18.7631 O.3     1  UNL1       -0.4728
     14 C         -10.3766   -6.1906   19.1670 C.3     1  UNL1        0.2358
     15 C          -9.8789   -4.9514   18.4838 C.3     1  UNL1        0.1697
     16 O          -9.4788   -3.7560   19.2968 O.3     1  UNL1       -0.3793
     17 H          -9.6021   -3.9500   20.2392 H       1  UNL1        0.2106
     18 C          -9.7814   -4.9076   16.9877 C.3     1  UNL1        0.1020
     19 N         -11.0046   -5.1331   16.1494 N.3     1  UNL1       -0.2964
     20 H         -11.4104   -6.0184   16.4528 H       1  UNL1        0.1233
     21 C         -12.1142   -4.1237   16.1549 C.3     1  UNL1        0.0541
     22 C         -13.5356   -4.5708   15.9825 C.3     1  UNL1        0.0171
     23 C         -11.8023   -2.6674   16.3329 C.3     1  UNL1        0.0171
@<TRIPOS>BOND
     1    11    12    1
     2    12     1    1
     3     1     2   ar
     4     2     3   ar
     5     3     4   ar
     6     4     5   ar
     7     5    13    1
     8    13    14    1
     9    14    15    1
    10    15    16    1
    11    15    18    1
    12    18    19    1
    13    19    21    1
    14    21    22    1
    15    21    23    1
    16     5     6   ar
    17     6     7   ar
    18     7     8   ar
    19     8     9   ar
    20     9    10   ar
    21    10     1   ar
    22     9     4   ar
    23    16    17    1
    24    19    20    1
@<TRIPOS>MOLECULE
*****
 23 24 0 0 0
SMALL
GASTEIGER

@<TRIPOS>ATOM
      1 C           4.0026   -1.3769   24.2477 C.ar    1  UNL1        0.1387
      2 C           3.1856   -0.3575   23.5106 C.ar    1  UNL1        0.0370
      3 C           2.9484   -0.5092   22.0373 C.ar    1  UNL1        0.0061
      4 C           3.5280   -1.6805   21.3010 C.ar    1  UNL1        0.0342
      5 C           3.2908   -1.8322   19.8277 C.ar    1  UNL1        0.1386
      6 C           3.8704   -3.0035   19.0914 C.ar    1  UNL1        0.0369
      7 C           4.6874   -4.0230   19.8285 C.ar    1  UNL1        0.0031
      8 C           4.9247   -3.8712   21.3018 C.ar    1  UNL1        0.0003
      9 C           4.3450   -2.6999   22.0381 C.ar    1  UNL1        0.0059
     10 C           4.5822   -2.5481   23.5114 C.ar    1  UNL1        0.0370
     11 C           5.6390   -1.0959   26.2459 C.3     1  UNL1        0.2525
     12 O           4.2398   -1.2251   25.7210 O.3     1  UNL1       -0.4714
     13 O           2.4738   -0.8128   19.0907 O.3     1  UNL1       -0.4728
     14 C           3.1326    0.1060   18.1048 C.3     1  UNL1        0.2358
     15 C           4.1121   -0.4406   17.1089 C.3     1  UNL1        0.1697
     16 O           3.6514   -1.4020   16.0537 O.3     1  UNL1       -0.3793
     17 H           2.7003   -1.5628   16.1560 H       1  UNL1        0.2106
     18 C           5.5524   -0.0258   17.1682 C.3     1  UNL1        0.1020
     19 N           6.6229   -1.0583   17.3630 N.3     1  UNL1       -0.2964
     20 H           7.4035   -0.7899   16.7639 H       1  UNL1        0.1233
     21 C           7.1901   -1.3018   18.7301 C.3     1  UNL1        0.0541
     22 C           8.2024   -2.3888   18.9394 C.3     1  UNL1        0.0171
     23 C           6.7451   -0.4583   19.8879 C.3     1  UNL1        0.0171
@<TRIPOS>BOND
     1    11    12    1
     2    12     1    1
     3     1     2   ar
     4     2     3   ar
     5     3     4   ar
     6     4     5   ar
     7     5    13    1
     8    13    14    1
     9    14    15    1
    10    15    16    1
    11    15    18    1
    12    18    19    1
    13    19    21    1
    14    21    22    1
    15    21    23    1
    16     5     6   ar
    17     6     7   ar
    18     7     8   ar
    19     8     9   ar
    20     9    10   ar
    21    10     1   ar
    22     9     4   ar
    23    16    17    1
    24    19    20    1
@<TRIPOS>MOLECULE
*****
 23 24 0 0 0
SMALL
GASTEIGER

@<TRIPOS>ATOM
      1 C           5.2712   -2.0192   23.4276 C.ar    1  UNL1        0.1387
      2 C           6.1133   -1.0989   22.5946 C.ar    1  UNL1        0.0370
      3 C           6.2205   -1.3146   21.1141 C.ar    1  UNL1        0.0061
      4 C           5.4856   -2.4506   20.4665 C.ar    1  UNL1        0.0342
      5 C           5.5928   -2.6662   18.9860 C.ar    1  UNL1        0.1386
      6 C           4.8578   -3.8022   18.3384 C.ar    1  UNL1        0.0369
      7 C           4.0156   -4.7225   19.1713 C.ar    1  UNL1        0.0031
      8 C           3.9084   -4.5068   20.6519 C.ar    1  UNL1        0.0003
      9 C           4.6434   -3.3708   21.2995 C.ar    1  UNL1        0.0059
     10 C           4.5362   -3.1551   22.7800 C.ar    1  UNL1        0.0370
     11 C           3.8938   -1.2659   25.4977 C.3     1  UNL1        0.2525
     12 O           5.1640   -1.8035   24.9081 O.3     1  UNL1       -0.4714
     13 O           6.4349   -1.7460   18.1530 O.3     1  UNL1       -0.4728
     14 C           5.8304   -0.5088   17.5581 C.3     1  UNL1        0.2358
     15 C           4.3584   -0.4550   17.2747 C.3     1  UNL1        0.1697
     16 O           3.7688   -1.3229   16.2029 O.3     1  UNL1       -0.3793
     17 H           4.4704   -1.8534   15.7940 H       1  UNL1        0.2106
     18 C           3.4760    0.4668   18.0632 C.3     1  UNL1        0.1020
     19 N           3.6965    0.6376   19.5371 N.3     1  UNL1       -0.2964
     20 H           3.6462    1.6382   19.7283 H       1  UNL1        0.1233
     21 C           2.7810   -0.0367   20.5154 C.3     1  UNL1        0.0541
     22 C           2.7601    0.4037   21.9492 C.3     1  UNL1        0.0171
     23 C           1.8866   -1.1514   20.0601 C.3     1  UNL1        0.0171
@<TRIPOS>BOND
     1    11    12    1
     2    12     1    1
     3     1     2   ar
     4     2     3   ar
     5     3     4   ar
     6     4     5   ar
     7     5    13    1
     8    13    14    1
     9    14    15    1
    10    15    16    1
    11    15    18    1
    12    18    19    1
    13    19    21    1
    14    21    22    1
    15    21    23    1
    16     5     6   ar
    17     6     7   ar
    18     7     8   ar
    19     8     9   ar
    20     9    10   ar
    21    10     1   ar
    22     9     4   ar
    23    16    17    1
    24    19    20    1
@<TRIPOS>MOLECULE
*****
 23 24 0 0 0
SMALL
GASTEIGER

@<TRIPOS>ATOM
      1 C           5.2807   -3.6616   22.1021 C.ar    1  UNL1        0.1387
      2 C           5.0157   -3.6489   20.6258 C.ar    1  UNL1        0.0370
      3 C           4.0857   -2.6283   20.0395 C.ar    1  UNL1        0.0061
      4 C           3.4208   -1.6206   20.9295 C.ar    1  UNL1        0.0342
      5 C           2.4908   -0.6001   20.3433 C.ar    1  UNL1        0.1386
      6 C           1.8258    0.4077   21.2333 C.ar    1  UNL1        0.0369
      7 C           2.0908    0.3949   22.7097 C.ar    1  UNL1        0.0031
      8 C           3.0208   -0.6256   23.2960 C.ar    1  UNL1        0.0003
      9 C           3.6858   -1.6334   22.4059 C.ar    1  UNL1        0.0059
     10 C           4.6157   -2.6539   22.9921 C.ar    1  UNL1        0.0370
     11 C           6.9045   -4.4051   23.9890 C.3     1  UNL1        0.2525
     12 O           6.2106   -4.6822   22.6884 O.3     1  UNL1       -0.4714
     13 O           2.2258   -0.5873   18.8670 O.3     1  UNL1       -0.4728
     14 C           3.0205    0.3150   17.9701 C.3     1  UNL1        0.2358
     15 C           4.0693   -0.2611   17.0655 C.3     1  UNL1        0.1697
     16 O           3.7545   -1.4592   16.2197 O.3     1  UNL1       -0.3793
     17 H           2.8374   -1.7337   16.3766 H       1  UNL1        0.2106
     18 C           5.4329    0.3611   17.0067 C.3     1  UNL1        0.1020
     19 N           6.6553   -0.4964   17.1495 N.3     1  UNL1       -0.2964
     20 H           7.4369    0.0399   16.7727 H       1  UNL1        0.1233
     21 C           7.0767   -0.9819   18.5048 C.3     1  UNL1        0.0541
     22 C           6.8473   -0.1238   19.7136 C.3     1  UNL1        0.0171
     23 C           7.7276   -2.3253   18.6513 C.3     1  UNL1        0.0171
@<TRIPOS>BOND
     1    11    12    1
     2    12     1    1
     3     1     2   ar
     4     2     3   ar
     5     3     4   ar
     6     4     5   ar
     7     5    13    1
     8    13    14    1
     9    14    15    1
    10    15    16    1
    11    15    18    1
    12    18    19    1
    13    19    21    1
    14    21    22    1
    15    21    23    1
    16     5     6   ar
    17     6     7   ar
    18     7     8   ar
    19     8     9   ar
    20     9    10   ar
    21    10     1   ar
    22     9     4   ar
    23    16    17    1
    24    19    20    1
@<TRIPOS>MOLECULE
*****
 23 24 0 0 0
SMALL
GASTEIGER

@<TRIPOS>ATOM
      1 C         -15.2714   -7.5287   18.5511 C.ar    1  UNL1        0.1387
      2 C         -14.8196   -7.1946   17.1603 C.ar    1  UNL1        0.0370
      3 C         -14.1256   -5.8926   16.8896 C.ar    1  UNL1        0.0061
      4 C         -13.8834   -4.9248   18.0096 C.ar    1  UNL1        0.0342
      5 C         -13.1894   -3.6228   17.7389 C.ar    1  UNL1        0.1386
      6 C         -12.9472   -2.6549   18.8589 C.ar    1  UNL1        0.0369
      7 C         -13.3990   -2.9890   20.2498 C.ar    1  UNL1        0.0031
      8 C         -14.0930   -4.2909   20.5205 C.ar    1  UNL1        0.0003
      9 C         -14.3352   -5.2588   19.4004 C.ar    1  UNL1        0.0059
     10 C         -15.0292   -6.5608   19.6711 C.ar    1  UNL1        0.0370
     11 C         -16.8312   -8.9804   20.0375 C.3     1  UNL1        0.2525
     12 O         -15.9654   -8.8306   18.8218 O.3     1  UNL1       -0.4714
     13 O         -12.7376   -3.2888   16.3482 O.3     1  UNL1       -0.4728
     14 C         -11.8997   -2.0687   16.1045 C.3     1  UNL1        0.2358
     15 C         -10.5031   -1.9974   16.6472 C.3     1  UNL1        0.1697
     16 O         -10.0722   -0.8093   17.4551 O.3     1  UNL1       -0.3793
     17 H         -10.8108   -0.1852   17.5316 H       1  UNL1        0.2106
     18 C          -9.5375   -3.1142   16.3820 C.3     1  UNL1        0.1020
     19 N         -10.0168   -4.5355   16.3804 N.3     1  UNL1       -0.2964
     20 H          -9.3879   -5.0576   15.7703 H       1  UNL1        0.1233
     21 C         -10.1035   -5.2993   17.6685 C.3     1  UNL1        0.0541
     22 C          -9.7435   -4.6310   18.9623 C.3     1  UNL1        0.0171
     23 C         -10.5500   -6.7312   17.6628 C.3     1  UNL1        0.0171
@<TRIPOS>BOND
     1    11    12    1
     2    12     1    1
     3     1     2   ar
     4     2     3   ar
     5     3     4   ar
     6     4     5   ar
     7     5    13    1
     8    13    14    1
     9    14    15    1
    10    15    16    1
    11    15    18    1
    12    18    19    1
    13    19    21    1
    14    21    22    1
    15    21    23    1
    16     5     6   ar
    17     6     7   ar
    18     7     8   ar
    19     8     9   ar
    20     9    10   ar
    21    10     1   ar
    22     9     4   ar
    23    16    17    1
    24    19    20    1
