@<TRIPOS>MOLECULE
*****
 33 35 0 0 0
SMALL
GASTEIGER

@<TRIPOS>ATOM
      1 N          -6.8026  -19.4593   20.8879 N.pl3   1  UNL1       -0.3046
      2 C          -6.1525  -19.9351   22.1531 C.3     1  UNL1        0.1081
      3 C          -4.6568  -19.9573   22.2654 C.3     1  UNL1        0.0938
      4 N          -3.8113  -19.5037   21.1125 N.3     1  UNL1       -0.2698
      5 C          -4.4615  -19.0278   19.8472 C.3     1  UNL1        0.0938
      6 C          -5.9571  -19.0057   19.7349 C.3     1  UNL1        0.1081
      7 C         -10.6365  -19.2742   21.8962 C.ar    1  UNL1        0.0515
      8 C         -11.2894  -19.3928   20.5510 C.ar    1  UNL1        0.0148
      9 C         -10.4468  -19.5335   19.3181 C.ar    1  UNL1        0.0025
     10 C          -8.9512  -19.5557   19.4303 C.ar    1  UNL1        0.0146
     11 C          -8.2982  -19.4371   20.7755 C.ar    1  UNL1        0.0492
     12 C          -9.1409  -19.2964   22.0085 C.ar    1  UNL1        0.0292
     13 C         -13.4727  -18.0308   24.3781 C.3     1  UNL1        0.0949
     14 C         -12.6300  -18.1715   23.1452 C.2     1  UNL1        0.2266
     15 O         -12.9382  -17.3503   21.9283 O.2     1  UNL1       -0.2748
     16 N         -11.4792  -19.1335   23.1291 N.am    1  UNL1       -0.2839
     17 H         -11.2769  -19.6724   23.9277 H       1  UNL1        0.1549
     18 C          -2.3157  -19.5258   21.2247 C.3     1  UNL1        0.0722
     19 C          -1.4936  -18.5061   20.4939 C.3     1  UNL1        0.0188
     20 C          -1.4059  -17.1014   21.0131 C.3     1  UNL1        0.0203
     21 C          -2.1929  -16.6993   22.2251 C.3     1  UNL1        0.0915
     22 N          -3.3443  -15.7476   22.0898 N.3     1  UNL1       -0.1794
     23 H          -3.8241  -15.9873   21.2222 H       1  UNL1        0.1488
     24 S          -4.3928  -15.6817   23.1606 S.O2    1  UNL1        0.0602
     25 O          -4.7838  -14.3111   22.6933 O.2     1  UNL1       -0.1530
     26 O          -4.0017  -17.0524   23.6279 O.2     1  UNL1       -0.1530
     27 C          -5.4412  -15.6158   24.2313 C.ar    1  UNL1        0.1219
     28 C          -6.8935  -15.5800   23.8577 C.ar    1  UNL1        0.0196
     29 C          -7.9419  -15.5141   24.9285 C.ar    1  UNL1       -0.0029
     30 C          -7.5380  -15.4841   26.3728 C.ar    1  UNL1       -0.0218
     31 C          -8.5864  -15.4182   27.4435 C.3     1  UNL1        0.0310
     32 C          -6.0857  -15.5199   26.7463 C.ar    1  UNL1       -0.0029
     33 C          -5.0373  -15.5858   25.6756 C.ar    1  UNL1        0.0196
@<TRIPOS>BOND
     1    13    14    1
     2    14    15    2
     3    14    16   am
     4    16     7    1
     5     7     8   ar
     6     8     9   ar
     7     9    10   ar
     8    10    11   ar
     9    11     1    1
    10     1     2    1
    11     2     3    1
    12     3     4    1
    13     4    18    1
    14    18    19    1
    15    19    20    1
    16    20    21    1
    17    21    22    1
    18    22    24    1
    19    24    25    2
    20    24    26    2
    21    24    27    1
    22    27    28   ar
    23    28    29   ar
    24    29    30   ar
    25    30    31    1
    26    30    32   ar
    27    32    33   ar
    28     4     5    1
    29     5     6    1
    30    11    12   ar
    31    12     7   ar
    32     6     1    1
    33    33    27   ar
    34    16    17    1
    35    22    23    1
@<TRIPOS>MOLECULE
*****
 33 35 0 0 0
SMALL
GASTEIGER

@<TRIPOS>ATOM
      1 N          -6.5700  -19.3885   21.3983 N.pl3   1  UNL1       -0.3046
      2 C          -5.5827  -19.8685   22.4205 C.3     1  UNL1        0.1081
      3 C          -4.1170  -19.8772   22.1014 C.3     1  UNL1        0.0938
      4 N          -3.6387  -19.4059   20.7601 N.3     1  UNL1       -0.2698
      5 C          -4.6260  -18.9260   19.7379 C.3     1  UNL1        0.0938
      6 C          -6.0916  -18.9173   20.0570 C.3     1  UNL1        0.1081
      7 C         -10.4583  -18.6351   21.1462 C.ar    1  UNL1        0.0515
      8 C         -10.9669  -19.3623   22.3554 C.ar    1  UNL1        0.0148
      9 C         -10.0099  -20.0983   23.2457 C.ar    1  UNL1        0.0025
     10 C          -8.5443  -20.1070   22.9266 C.ar    1  UNL1        0.0146
     11 C          -8.0357  -19.3798   21.7174 C.ar    1  UNL1        0.0492
     12 C          -8.9926  -18.6438   20.8272 C.ar    1  UNL1        0.0292
     13 C         -12.2813  -15.6714   19.2375 C.3     1  UNL1        0.0949
     14 C         -11.3243  -16.4074   20.1278 C.2     1  UNL1        0.2266
     15 O         -10.2764  -15.6516   20.8898 O.2     1  UNL1       -0.2748
     16 N         -11.4152  -17.8991   20.2560 N.am    1  UNL1       -0.2839
     17 H         -12.1030  -18.3951   19.7558 H       1  UNL1        0.1549
     18 C          -2.1731  -19.4146   20.4410 C.3     1  UNL1        0.0722
     19 C          -1.5107  -18.1721   19.9241 C.3     1  UNL1        0.0188
     20 C          -1.3270  -16.9887   20.8275 C.3     1  UNL1        0.0203
     21 C          -2.2170  -16.8116   22.0218 C.3     1  UNL1        0.0915
     22 N          -3.2113  -15.6891   22.0563 N.3     1  UNL1       -0.1794
     23 H          -3.6879  -15.6900   21.1545 H       1  UNL1        0.1488
     24 S          -4.2785  -15.6645   23.1101 S.O2    1  UNL1        0.0602
     25 O          -4.7074  -14.3048   22.6440 O.2     1  UNL1       -0.1530
     26 O          -3.8497  -17.0242   23.5761 O.2     1  UNL1       -0.1530
     27 C          -5.3458  -15.6399   24.1638 C.ar    1  UNL1        0.1219
     28 C          -6.7862  -15.7978   23.7762 C.ar    1  UNL1        0.0196
     29 C          -7.8534  -15.7732   24.8301 C.ar    1  UNL1       -0.0029
     30 C          -7.4802  -15.5906   26.2713 C.ar    1  UNL1       -0.0218
     31 C          -8.5474  -15.5660   27.3251 C.3     1  UNL1        0.0310
     32 C          -6.0398  -15.4327   26.6589 C.ar    1  UNL1       -0.0029
     33 C          -4.9726  -15.4573   25.6052 C.ar    1  UNL1        0.0196
@<TRIPOS>BOND
     1    13    14    1
     2    14    15    2
     3    14    16   am
     4    16     7    1
     5     7     8   ar
     6     8     9   ar
     7     9    10   ar
     8    10    11   ar
     9    11     1    1
    10     1     2    1
    11     2     3    1
    12     3     4    1
    13     4    18    1
    14    18    19    1
    15    19    20    1
    16    20    21    1
    17    21    22    1
    18    22    24    1
    19    24    25    2
    20    24    26    2
    21    24    27    1
    22    27    28   ar
    23    28    29   ar
    24    29    30   ar
    25    30    31    1
    26    30    32   ar
    27    32    33   ar
    28     4     5    1
    29     5     6    1
    30    11    12   ar
    31    12     7   ar
    32     6     1    1
    33    33    27   ar
    34    16    17    1
    35    22    23    1
@<TRIPOS>MOLECULE
*****
 33 35 0 0 0
SMALL
GASTEIGER

@<TRIPOS>ATOM
      1 N          -7.8006  -19.6925   21.1067 N.pl3   1  UNL1       -0.3046
      2 C          -8.3756  -19.6457   22.4913 C.3     1  UNL1        0.1081
      3 C          -9.8515  -19.4600   22.6847 C.3     1  UNL1        0.0938
      4 N         -10.7523  -19.3211   21.4934 N.3     1  UNL1       -0.2698
      5 C         -10.1773  -19.3679   20.1088 C.3     1  UNL1        0.0938
      6 C          -8.7014  -19.5536   19.9155 C.3     1  UNL1        0.1081
      7 C          -3.8859  -19.0686   21.2966 C.ar    1  UNL1        0.0515
      8 C          -3.3730  -20.2494   20.5267 C.ar    1  UNL1        0.0148
      9 C          -4.3360  -21.2445   19.9502 C.ar    1  UNL1        0.0025
     10 C          -5.8118  -21.0589   20.1435 C.ar    1  UNL1        0.0146
     11 C          -6.3247  -19.8781   20.9134 C.ar    1  UNL1        0.0492
     12 C          -5.3617  -18.8830   21.4899 C.ar    1  UNL1        0.0292
     13 C          -1.3760  -16.0072   21.5770 C.3     1  UNL1        0.0949
     14 C          -2.3390  -17.0024   21.0004 C.2     1  UNL1        0.2266
     15 O          -2.7181  -16.9263   19.5510 O.2     1  UNL1       -0.2748
     16 N          -2.9229  -18.0735   21.8732 N.am    1  UNL1       -0.2839
     17 H          -2.6741  -18.1234   22.8244 H       1  UNL1        0.1549
     18 C         -12.2282  -19.1354   21.6867 C.3     1  UNL1        0.0722
     19 C         -12.8357  -17.7703   21.5562 C.3     1  UNL1        0.0188
     20 C         -12.3439  -16.8285   20.4973 C.3     1  UNL1        0.0203
     21 C         -11.3001  -15.8042   20.8307 C.3     1  UNL1        0.0915
     22 N          -9.8600  -16.2092   20.9406 N.3     1  UNL1       -0.1794
     23 H          -9.3482  -15.6694   20.2427 H       1  UNL1        0.1488
     24 S          -9.1302  -16.0395   22.2401 S.O2    1  UNL1        0.0602
     25 O         -10.4373  -16.0526   22.9758 O.2     1  UNL1       -0.1530
     26 O          -7.8231  -16.0263   21.5044 O.2     1  UNL1       -0.1530
     27 C          -8.4005  -15.8697   23.5396 C.ar    1  UNL1        0.1219
     28 C          -6.9231  -15.6102   23.5418 C.ar    1  UNL1        0.0196
     29 C          -6.1934  -15.4404   24.8413 C.ar    1  UNL1       -0.0029
     30 C          -6.9410  -15.5302   26.1386 C.ar    1  UNL1       -0.0218
     31 C          -6.2113  -15.3604   27.4380 C.3     1  UNL1        0.0310
     32 C          -8.4184  -15.7897   26.1364 C.ar    1  UNL1       -0.0029
     33 C          -9.1481  -15.9595   24.8369 C.ar    1  UNL1        0.0196
@<TRIPOS>BOND
     1    13    14    1
     2    14    15    2
     3    14    16   am
     4    16     7    1
     5     7     8   ar
     6     8     9   ar
     7     9    10   ar
     8    10    11   ar
     9    11     1    1
    10     1     2    1
    11     2     3    1
    12     3     4    1
    13     4    18    1
    14    18    19    1
    15    19    20    1
    16    20    21    1
    17    21    22    1
    18    22    24    1
    19    24    25    2
    20    24    26    2
    21    24    27    1
    22    27    28   ar
    23    28    29   ar
    24    29    30   ar
    25    30    31    1
    26    30    32   ar
    27    32    33   ar
    28     4     5    1
    29     5     6    1
    30    11    12   ar
    31    12     7   ar
    32     6     1    1
    33    33    27   ar
    34    16    17    1
    35    22    23    1
@<TRIPOS>MOLECULE
*****
 33 35 0 0 0
SMALL
GASTEIGER

@<TRIPOS>ATOM
      1 N          -6.5092  -19.1336   21.4551 N.pl3   1  UNL1       -0.3046
      2 C          -7.1594  -19.1627   20.1037 C.3     1  UNL1        0.1081
      3 C          -8.6354  -19.4035   19.9865 C.3     1  UNL1        0.0938
      4 N          -9.4610  -19.6153   21.2208 N.3     1  UNL1       -0.2698
      5 C          -8.8107  -19.5863   22.5723 C.3     1  UNL1        0.0938
      6 C          -7.3348  -19.3455   22.6894 C.3     1  UNL1        0.1081
      7 C          -2.6918  -18.6896   20.4649 C.ar    1  UNL1        0.0515
      8 C          -2.0815  -18.4111   21.8065 C.ar    1  UNL1        0.0148
      9 C          -2.9471  -18.3734   23.0310 C.ar    1  UNL1        0.0025
     10 C          -4.4230  -18.6142   22.9139 C.ar    1  UNL1        0.0146
     11 C          -5.0333  -18.8928   21.5723 C.ar    1  UNL1        0.0492
     12 C          -4.1677  -18.9305   20.3478 C.ar    1  UNL1        0.0292
     13 C          -1.1619  -17.7567   16.9239 C.3     1  UNL1        0.0949
     14 C          -2.0275  -17.7190   18.1484 C.2     1  UNL1        0.2266
     15 O          -3.0943  -16.6729   18.2807 O.2     1  UNL1       -0.2748
     16 N          -1.8262  -18.7274   19.2404 N.am    1  UNL1       -0.2839
     17 H          -1.1260  -19.4139   19.1536 H       1  UNL1        0.1549
     18 C         -10.9369  -19.8562   21.1037 C.3     1  UNL1        0.0722
     19 C         -11.7984  -18.8832   20.3548 C.3     1  UNL1        0.0188
     20 C         -12.3436  -17.6725   21.0528 C.3     1  UNL1        0.0203
     21 C         -11.6218  -16.3613   20.9539 C.3     1  UNL1        0.0915
     22 N         -10.1223  -16.3306   20.9301 N.3     1  UNL1       -0.1794
     23 H          -9.8533  -15.5703   20.3055 H       1  UNL1        0.1488
     24 S          -9.3558  -16.1357   22.2047 S.O2    1  UNL1        0.0602
     25 O         -10.6296  -16.2508   22.9883 O.2     1  UNL1       -0.1530
     26 O          -8.0820  -16.0205   21.4210 O.2     1  UNL1       -0.1530
     27 C          -8.5893  -15.9408   23.4792 C.ar    1  UNL1        0.1219
     28 C          -7.1804  -15.4279   23.4362 C.ar    1  UNL1        0.0196
     29 C          -6.4139  -15.2330   24.7108 C.ar    1  UNL1       -0.0029
     30 C          -7.0564  -15.5510   26.0284 C.ar    1  UNL1       -0.0218
     31 C          -6.2899  -15.3562   27.3029 C.3     1  UNL1        0.0310
     32 C          -8.4653  -16.0639   26.0714 C.ar    1  UNL1       -0.0029
     33 C          -9.2318  -16.2588   24.7969 C.ar    1  UNL1        0.0196
@<TRIPOS>BOND
     1    13    14    1
     2    14    15    2
     3    14    16   am
     4    16     7    1
     5     7     8   ar
     6     8     9   ar
     7     9    10   ar
     8    10    11   ar
     9    11     1    1
    10     1     2    1
    11     2     3    1
    12     3     4    1
    13     4    18    1
    14    18    19    1
    15    19    20    1
    16    20    21    1
    17    21    22    1
    18    22    24    1
    19    24    25    2
    20    24    26    2
    21    24    27    1
    22    27    28   ar
    23    28    29   ar
    24    29    30   ar
    25    30    31    1
    26    30    32   ar
    27    32    33   ar
    28     4     5    1
    29     5     6    1
    30    11    12   ar
    31    12     7   ar
    32     6     1    1
    33    33    27   ar
    34    16    17    1
    35    22    23    1
@<TRIPOS>MOLECULE
*****
 33 35 0 0 0
SMALL
GASTEIGER

@<TRIPOS>ATOM
      1 N          -4.4604  -16.6415   23.5032 N.pl3   1  UNL1       -0.3046
      2 C          -4.0509  -18.0837   23.4547 C.3     1  UNL1        0.1081
      3 C          -2.8823  -18.5037   22.6132 C.3     1  UNL1        0.0938
      4 N          -2.1232  -17.4815   21.8203 N.3     1  UNL1       -0.2698
      5 C          -2.5327  -16.0392   21.8688 C.3     1  UNL1        0.0938
      6 C          -3.7013  -15.6193   22.7102 C.3     1  UNL1        0.1081
      7 C          -8.1899  -15.8940   24.6355 C.ar    1  UNL1        0.0515
      8 C          -7.9662  -15.3816   26.0274 C.ar    1  UNL1        0.0148
      9 C          -6.5739  -15.2892   26.5779 C.ar    1  UNL1        0.0025
     10 C          -5.4053  -15.7092   25.7365 C.ar    1  UNL1        0.0146
     11 C          -5.6290  -16.2216   24.3446 C.ar    1  UNL1        0.0492
     12 C          -7.0213  -16.3140   23.7942 C.ar    1  UNL1        0.0292
     13 C         -11.1903  -16.1772   22.0534 C.3     1  UNL1        0.0949
     14 C          -9.7980  -16.0847   22.6039 C.2     1  UNL1        0.2266
     15 O          -8.6216  -16.0905   21.6733 O.2     1  UNL1       -0.2748
     16 N          -9.5821  -15.9865   24.0850 N.am    1  UNL1       -0.2839
     17 H         -10.3542  -15.9827   24.6959 H       1  UNL1        0.1549
     18 C          -0.9546  -17.9014   20.9789 C.3     1  UNL1        0.0722
     19 C          -1.0538  -17.8584   19.4828 C.3     1  UNL1        0.0188
     20 C          -2.1586  -18.5930   18.7829 C.3     1  UNL1        0.0203
     21 C          -3.5535  -18.5504   19.3328 C.3     1  UNL1        0.0915
     22 N          -4.2619  -19.8261   19.6803 N.3     1  UNL1       -0.1794
     23 H          -3.6842  -20.3048   20.3713 H       1  UNL1        0.1488
     24 S          -5.6549  -19.7834   20.2351 S.O2    1  UNL1        0.0602
     25 O          -5.6000  -18.2846   20.2572 O.2     1  UNL1       -0.1530
     26 O          -5.7097  -21.2822   20.2130 O.2     1  UNL1       -0.1530
     27 C          -7.0478  -19.7406   20.7900 C.ar    1  UNL1        0.1219
     28 C          -7.2719  -19.8839   22.2662 C.ar    1  UNL1        0.0196
     29 C          -8.6649  -19.8411   22.8210 C.ar    1  UNL1       -0.0029
     30 C          -9.8338  -19.6550   21.8996 C.ar    1  UNL1       -0.0218
     31 C         -11.2267  -19.6122   22.4544 C.3     1  UNL1        0.0310
     32 C          -9.6097  -19.5116   20.4234 C.ar    1  UNL1       -0.0029
     33 C          -8.2168  -19.5544   19.8685 C.ar    1  UNL1        0.0196
@<TRIPOS>BOND
     1    13    14    1
     2    14    15    2
     3    14    16   am
     4    16     7    1
     5     7     8   ar
     6     8     9   ar
     7     9    10   ar
     8    10    11   ar
     9    11     1    1
    10     1     2    1
    11     2     3    1
    12     3     4    1
    13     4    18    1
    14    18    19    1
    15    19    20    1
    16    20    21    1
    17    21    22    1
    18    22    24    1
    19    24    25    2
    20    24    26    2
    21    24    27    1
    22    27    28   ar
    23    28    29   ar
    24    29    30   ar
    25    30    31    1
    26    30    32   ar
    27    32    33   ar
    28     4     5    1
    29     5     6    1
    30    11    12   ar
    31    12     7   ar
    32     6     1    1
    33    33    27   ar
    34    16    17    1
    35    22    23    1
@<TRIPOS>MOLECULE
*****
 33 35 0 0 0
SMALL
GASTEIGER

@<TRIPOS>ATOM
      1 N          -9.7954  -16.8755   23.3032 N.pl3   1  UNL1       -0.3046
      2 C          -9.8418  -17.9951   24.3002 C.3     1  UNL1        0.1081
      3 C          -9.2813  -17.7968   25.6774 C.3     1  UNL1        0.0938
      4 N          -8.6745  -16.4787   26.0575 N.3     1  UNL1       -0.2698
      5 C          -8.6280  -15.3590   25.0604 C.3     1  UNL1        0.0938
      6 C          -9.1885  -15.5574   23.6833 C.3     1  UNL1        0.1081
      7 C         -10.6548  -18.5510   19.8098 C.ar    1  UNL1        0.0515
      8 C         -11.4766  -17.4706   19.1717 C.ar    1  UNL1        0.0148
      9 C         -11.7381  -16.1917   19.9108 C.ar    1  UNL1        0.0025
     10 C         -11.1777  -15.9934   21.2879 C.ar    1  UNL1        0.0146
     11 C         -10.3558  -17.0738   21.9260 C.ar    1  UNL1        0.0492
     12 C         -10.0944  -18.3526   21.1869 C.ar    1  UNL1        0.0292
     13 C          -8.7349  -21.4620   17.9149 C.3     1  UNL1        0.0949
     14 C          -8.9963  -20.1831   18.6540 C.2     1  UNL1        0.2266
     15 O          -7.8607  -19.2576   18.9765 O.2     1  UNL1       -0.2748
     16 N         -10.3933  -19.8298   19.0707 N.am    1  UNL1       -0.2839
     17 H         -11.1386  -20.4373   18.8590 H       1  UNL1        0.1549
     18 C          -8.1140  -16.2803   27.4346 C.3     1  UNL1        0.0722
     19 C          -6.6602  -15.9570   27.6133 C.3     1  UNL1        0.0188
     20 C          -6.0047  -14.9369   26.7302 C.3     1  UNL1        0.0203
     21 C          -4.9563  -15.3607   25.7448 C.3     1  UNL1        0.0915
     22 N          -5.2697  -16.4124   24.7222 N.3     1  UNL1       -0.1794
     23 H          -6.0993  -16.0965   24.2197 H       1  UNL1        0.1488
     24 S          -4.2490  -16.7786   23.6858 S.O2    1  UNL1        0.0602
     25 O          -4.4148  -15.4318   23.0466 O.2     1  UNL1       -0.1530
     26 O          -4.0831  -18.1254   24.3250 O.2     1  UNL1       -0.1530
     27 C          -3.2283  -17.1447   22.6495 C.ar    1  UNL1        0.1219
     28 C          -3.0160  -18.5833   22.2812 C.ar    1  UNL1        0.0196
     29 C          -1.9953  -18.9494   21.2448 C.ar    1  UNL1       -0.0029
     30 C          -1.1868  -17.8770   20.5767 C.ar    1  UNL1       -0.0218
     31 C          -0.1661  -18.2432   19.5403 C.3     1  UNL1        0.0310
     32 C          -1.3991  -16.4385   20.9450 C.ar    1  UNL1       -0.0029
     33 C          -2.4198  -16.0723   21.9813 C.ar    1  UNL1        0.0196
@<TRIPOS>BOND
     1    13    14    1
     2    14    15    2
     3    14    16   am
     4    16     7    1
     5     7     8   ar
     6     8     9   ar
     7     9    10   ar
     8    10    11   ar
     9    11     1    1
    10     1     2    1
    11     2     3    1
    12     3     4    1
    13     4    18    1
    14    18    19    1
    15    19    20    1
    16    20    21    1
    17    21    22    1
    18    22    24    1
    19    24    25    2
    20    24    26    2
    21    24    27    1
    22    27    28   ar
    23    28    29   ar
    24    29    30   ar
    25    30    31    1
    26    30    32   ar
    27    32    33   ar
    28     4     5    1
    29     5     6    1
    30    11    12   ar
    31    12     7   ar
    32     6     1    1
    33    33    27   ar
    34    16    17    1
    35    22    23    1
@<TRIPOS>MOLECULE
*****
 33 35 0 0 0
SMALL
GASTEIGER

@<TRIPOS>ATOM
      1 N          -8.2990  -16.1727   23.4635 N.pl3   1  UNL1       -0.3046
      2 C          -8.4465  -15.7027   22.0467 C.3     1  UNL1        0.1081
      3 C          -9.7908  -15.7350   21.3819 C.3     1  UNL1        0.0938
      4 N         -10.9876  -16.2372   22.1340 N.3     1  UNL1       -0.2698
      5 C         -10.8400  -16.7072   23.5509 C.3     1  UNL1        0.0938
      6 C          -9.4957  -16.6749   24.2156 C.3     1  UNL1        0.1081
      7 C          -4.4187  -16.7045   24.1043 C.ar    1  UNL1        0.0515
      8 C          -4.2662  -16.0760   25.4577 C.ar    1  UNL1        0.0148
      9 C          -5.4579  -15.4798   26.1464 C.ar    1  UNL1        0.0025
     10 C          -6.8021  -15.5120   25.4817 C.ar    1  UNL1        0.0146
     11 C          -6.9547  -16.1404   24.1283 C.ar    1  UNL1        0.0492
     12 C          -5.7630  -16.7367   23.4396 C.ar    1  UNL1        0.0292
     13 C          -1.3691  -17.1567   21.6052 C.3     1  UNL1        0.0949
     14 C          -2.5608  -16.5605   22.2939 C.2     1  UNL1        0.2266
     15 O          -3.0864  -15.2239   21.8609 O.2     1  UNL1       -0.2748
     16 N          -3.2270  -17.3007   23.4156 N.am    1  UNL1       -0.2839
     17 H          -2.8820  -18.1779   23.6998 H       1  UNL1        0.1549
     18 C         -12.3318  -16.2695   21.4693 C.3     1  UNL1        0.0722
     19 C         -12.9971  -17.5837   21.1861 C.3     1  UNL1        0.0188
     20 C         -12.5524  -18.8206   21.9090 C.3     1  UNL1        0.0203
     21 C         -11.4015  -19.6248   21.3812 C.3     1  UNL1        0.0915
     22 N         -10.4379  -19.0079   20.4112 N.3     1  UNL1       -0.1794
     23 H         -10.5988  -18.0010   20.4363 H       1  UNL1        0.1488
     24 S          -8.9624  -19.2151   20.5853 S.O2    1  UNL1        0.0602
     25 O          -8.7546  -18.9658   19.1209 O.2     1  UNL1       -0.1530
     26 O          -9.1702  -19.4644   22.0497 O.2     1  UNL1       -0.1530
     27 C          -7.4871  -19.4222   20.7594 C.ar    1  UNL1        0.1219
     28 C          -6.5454  -19.0859   19.6413 C.ar    1  UNL1        0.0196
     29 C          -5.0700  -19.2931   19.8154 C.ar    1  UNL1       -0.0029
     30 C          -4.5363  -19.8365   21.1076 C.ar    1  UNL1       -0.0218
     31 C          -3.0609  -20.0437   21.2817 C.3     1  UNL1        0.0310
     32 C          -5.4779  -20.1729   22.2257 C.ar    1  UNL1       -0.0029
     33 C          -6.9533  -19.9657   22.0516 C.ar    1  UNL1        0.0196
@<TRIPOS>BOND
     1    13    14    1
     2    14    15    2
     3    14    16   am
     4    16     7    1
     5     7     8   ar
     6     8     9   ar
     7     9    10   ar
     8    10    11   ar
     9    11     1    1
    10     1     2    1
    11     2     3    1
    12     3     4    1
    13     4    18    1
    14    18    19    1
    15    19    20    1
    16    20    21    1
    17    21    22    1
    18    22    24    1
    19    24    25    2
    20    24    26    2
    21    24    27    1
    22    27    28   ar
    23    28    29   ar
    24    29    30   ar
    25    30    31    1
    26    30    32   ar
    27    32    33   ar
    28     4     5    1
    29     5     6    1
    30    11    12   ar
    31    12     7   ar
    32     6     1    1
    33    33    27   ar
    34    16    17    1
    35    22    23    1
@<TRIPOS>MOLECULE
*****
 33 35 0 0 0
SMALL
GASTEIGER

@<TRIPOS>ATOM
      1 N          -4.9483  -17.7373   23.1715 N.pl3   1  UNL1       -0.3046
      2 C          -4.0381  -17.5872   24.3543 C.3     1  UNL1        0.1081
      3 C          -4.3606  -16.5894   25.4269 C.3     1  UNL1        0.0938
      4 N          -5.5932  -15.7418   25.3167 N.3     1  UNL1       -0.2698
      5 C          -6.5034  -15.8919   24.1339 C.3     1  UNL1        0.0938
      6 C          -6.1809  -16.8897   23.0613 C.3     1  UNL1        0.1081
      7 C          -5.4072  -20.4942   20.3539 C.ar    1  UNL1        0.0515
      8 C          -3.9811  -20.7305   19.9536 C.ar    1  UNL1        0.0148
      9 C          -2.8774  -19.9691   20.6259 C.ar    1  UNL1        0.0025
     10 C          -3.1997  -18.9713   21.6985 C.ar    1  UNL1        0.0146
     11 C          -4.6259  -18.7351   22.0988 C.ar    1  UNL1        0.0492
     12 C          -5.7296  -19.4965   21.4265 C.ar    1  UNL1        0.0292
     13 C          -8.7854  -21.2828   18.4262 C.3     1  UNL1        0.0949
     14 C          -7.6816  -20.5213   19.0984 C.2     1  UNL1        0.2266
     15 O          -7.7486  -19.0254   19.1875 O.2     1  UNL1       -0.2748
     16 N          -6.5109  -21.2557   19.6816 N.am    1  UNL1       -0.2839
     17 H          -6.4670  -22.2375   19.6231 H       1  UNL1        0.1549
     18 C          -5.9157  -14.7440   26.3893 C.3     1  UNL1        0.0722
     19 C          -6.7591  -15.1494   27.5616 C.3     1  UNL1        0.0188
     20 C          -7.4192  -16.4963   27.5806 C.3     1  UNL1        0.0203
     21 C          -8.7893  -16.6684   26.9949 C.3     1  UNL1        0.0915
     22 N          -9.2345  -18.0169   26.5119 N.3     1  UNL1       -0.1794
     23 H         -10.0386  -18.2825   27.0804 H       1  UNL1        0.1488
     24 S          -9.6359  -18.2054   25.0789 S.O2    1  UNL1        0.0602
     25 O          -9.4934  -16.7307   24.8450 O.2     1  UNL1       -0.1530
     26 O          -9.7785  -19.6802   25.3128 O.2     1  UNL1       -0.1530
     27 C         -10.0373  -18.3939   23.6460 C.ar    1  UNL1        0.1219
     28 C          -9.9634  -17.2415   22.6886 C.ar    1  UNL1        0.0196
     29 C         -10.3649  -17.4300   21.2556 C.ar    1  UNL1       -0.0029
     30 C         -10.8402  -18.7708   20.7801 C.ar    1  UNL1       -0.0218
     31 C         -11.2416  -18.9593   19.3472 C.3     1  UNL1        0.0310
     32 C         -10.9142  -19.9232   21.7375 C.ar    1  UNL1       -0.0029
     33 C         -10.5127  -19.7347   23.1704 C.ar    1  UNL1        0.0196
@<TRIPOS>BOND
     1    13    14    1
     2    14    15    2
     3    14    16   am
     4    16     7    1
     5     7     8   ar
     6     8     9   ar
     7     9    10   ar
     8    10    11   ar
     9    11     1    1
    10     1     2    1
    11     2     3    1
    12     3     4    1
    13     4    18    1
    14    18    19    1
    15    19    20    1
    16    20    21    1
    17    21    22    1
    18    22    24    1
    19    24    25    2
    20    24    26    2
    21    24    27    1
    22    27    28   ar
    23    28    29   ar
    24    29    30   ar
    25    30    31    1
    26    30    32   ar
    27    32    33   ar
    28     4     5    1
    29     5     6    1
    30    11    12   ar
    31    12     7   ar
    32     6     1    1
    33    33    27   ar
    34    16    17    1
    35    22    23    1
@<TRIPOS>MOLECULE
*****
 33 35 0 0 0
SMALL
GASTEIGER

@<TRIPOS>ATOM
      1 N          -8.7823  -17.6097   22.8620 N.pl3   1  UNL1       -0.3046
      2 C          -9.1962  -18.2331   24.1619 C.3     1  UNL1        0.1081
      3 C          -9.2607  -17.3988   25.4069 C.3     1  UNL1        0.0938
      4 N          -8.9112  -15.9411   25.3519 N.3     1  UNL1       -0.2698
      5 C          -8.4973  -15.3177   24.0518 C.3     1  UNL1        0.0938
      6 C          -8.4328  -16.1520   22.8069 C.3     1  UNL1        0.1081
      7 C          -7.4068  -20.0473   20.0484 C.ar    1  UNL1        0.0515
      8 C          -8.5887  -20.1124   19.1272 C.ar    1  UNL1        0.0148
      9 C          -9.8352  -19.3433   19.4509 C.ar    1  UNL1        0.0025
     10 C          -9.8997  -18.5090   20.6958 C.ar    1  UNL1        0.0146
     11 C          -8.7178  -18.4439   21.6170 C.ar    1  UNL1        0.0492
     12 C          -7.4713  -19.2130   21.2933 C.ar    1  UNL1        0.0292
     13 C          -3.5957  -20.8750   19.3131 C.3     1  UNL1        0.0949
     14 C          -4.8422  -20.1059   19.6368 C.2     1  UNL1        0.2266
     15 O          -4.7705  -18.6262   19.8726 O.2     1  UNL1       -0.2748
     16 N          -6.1603  -20.8164   19.7247 N.am    1  UNL1       -0.2839
     17 H          -6.2074  -21.7875   19.5700 H       1  UNL1        0.1549
     18 C          -8.9757  -15.1069   26.5968 C.3     1  UNL1        0.0722
     19 C          -7.9185  -15.2502   27.6512 C.3     1  UNL1        0.0188
     20 C          -6.4981  -14.8782   27.3445 C.3     1  UNL1        0.0203
     21 C          -5.7028  -15.6946   26.3693 C.3     1  UNL1        0.0915
     22 N          -5.6209  -15.2752   24.9315 N.3     1  UNL1       -0.1794
     23 H          -5.3936  -14.2809   24.9273 H       1  UNL1        0.1488
     24 S          -4.6468  -15.9460   24.0089 S.O2    1  UNL1        0.0602
     25 O          -4.7588  -14.7949   23.0538 O.2     1  UNL1       -0.1530
     26 O          -4.5348  -17.0971   24.9640 O.2     1  UNL1       -0.1530
     27 C          -3.6727  -16.6168   23.0862 C.ar    1  UNL1        0.1219
     28 C          -3.4895  -18.1045   23.1419 C.ar    1  UNL1        0.0196
     29 C          -2.5154  -18.7752   22.2192 C.ar    1  UNL1       -0.0029
     30 C          -1.7245  -17.9582   21.2409 C.ar    1  UNL1       -0.0218
     31 C          -0.7505  -18.6290   20.3183 C.3     1  UNL1        0.0310
     32 C          -1.9077  -16.4705   21.1853 C.ar    1  UNL1       -0.0029
     33 C          -2.8818  -15.7998   22.1079 C.ar    1  UNL1        0.0196
@<TRIPOS>BOND
     1    13    14    1
     2    14    15    2
     3    14    16   am
     4    16     7    1
     5     7     8   ar
     6     8     9   ar
     7     9    10   ar
     8    10    11   ar
     9    11     1    1
    10     1     2    1
    11     2     3    1
    12     3     4    1
    13     4    18    1
    14    18    19    1
    15    19    20    1
    16    20    21    1
    17    21    22    1
    18    22    24    1
    19    24    25    2
    20    24    26    2
    21    24    27    1
    22    27    28   ar
    23    28    29   ar
    24    29    30   ar
    25    30    31    1
    26    30    32   ar
    27    32    33   ar
    28     4     5    1
    29     5     6    1
    30    11    12   ar
    31    12     7   ar
    32     6     1    1
    33    33    27   ar
    34    16    17    1
    35    22    23    1
