@<TRIPOS>MOLECULE
*****
 28 31 0 0 0
SMALL
GASTEIGER

@<TRIPOS>ATOM
      1 C          -7.6372  -17.9626   21.5913 C.ar    1  UNL1        0.0799
      2 C          -7.8836  -17.2247   22.8738 C.ar    1  UNL1        0.0204
      3 C          -6.7426  -16.9348   23.8033 C.ar    1  UNL1        0.0365
      4 C          -5.3553  -17.3829   23.4505 C.ar    1  UNL1        0.0826
      5 N          -5.1089  -18.1208   22.1680 N.ar    1  UNL1       -0.2918
      6 C          -3.8593  -18.6825   21.5573 C.ar    1  UNL1        0.0567
      7 C          -2.4827  -18.6184   22.1497 C.3     1  UNL1        0.0517
      8 C          -4.2279  -19.3195   20.2503 C.ar    1  UNL1        0.0730
      9 C          -3.2846  -20.0042   19.3061 C.3     1  UNL1        0.0534
     10 N          -5.7054  -19.1515   20.0532 N.ar    1  UNL1       -0.2299
     11 C          -6.2498  -18.4107   21.2385 C.ar    1  UNL1        0.1603
     12 C          -6.9890  -16.1969   25.0859 C.ar    1  UNL1        0.0828
     13 C          -8.3758  -16.1198   25.6523 C.ar    1  UNL1        0.0192
     14 C          -8.6222  -15.3819   26.9348 C.ar    1  UNL1        0.0031
     15 C          -7.4817  -14.7210   27.6509 C.ar    1  UNL1        0.0207
     16 C          -6.0949  -14.7981   27.0844 C.ar    1  UNL1        0.0988
     17 N          -5.8486  -15.5361   25.8019 N.ar    1  UNL1       -0.2438
     18 N          -8.7782  -18.2525   20.6617 N.pl3   1  UNL1       -0.3267
     19 H          -8.8400  -17.7850   19.7975 H       1  UNL1        0.1472
     20 C          -9.8249  -19.2548   21.0487 C.3     1  UNL1        0.1137
     21 C         -12.1334  -17.4126   20.5221 C.3     1  UNL1        0.0307
     22 C         -11.9514  -18.0170   21.8828 C.ar    1  UNL1       -0.0245
     23 C         -12.9237  -17.7002   22.9804 C.ar    1  UNL1       -0.0045
     24 C         -12.7416  -18.3046   24.3411 C.ar    1  UNL1       -0.0007
     25 C         -11.5874  -19.2256   24.6044 C.ar    1  UNL1       -0.0045
     26 C         -10.6152  -19.5424   23.5070 C.ar    1  UNL1       -0.0245
     27 C          -9.4609  -20.4635   23.7703 C.3     1  UNL1        0.0307
     28 C         -10.7971  -18.9380   22.1461 C.ar    1  UNL1       -0.0105
@<TRIPOS>BOND
     1    21    22    1
     2    22    23   ar
     3    23    24   ar
     4    24    25   ar
     5    25    26   ar
     6    26    27    1
     7    26    28   ar
     8    28    20    1
     9    20    18    1
    10    18     1    1
    11     1     2   ar
    12     2     3   ar
    13     3    12    1
    14    12    13   ar
    15    13    14   ar
    16    14    15   ar
    17    15    16   ar
    18    16    17   ar
    19     3     4   ar
    20     4     5   ar
    21     5     6   ar
    22     6     7    1
    23     6     8   ar
    24     8     9    1
    25     8    10   ar
    26    10    11   ar
    27    28    22   ar
    28    11     1   ar
    29    17    12   ar
    30    11     5   ar
    31    18    19    1
@<TRIPOS>MOLECULE
*****
 28 31 0 0 0
SMALL
GASTEIGER

@<TRIPOS>ATOM
      1 C          -7.5945  -18.1199   21.5658 C.ar    1  UNL1        0.0799
      2 C          -7.8262  -17.3467   22.8301 C.ar    1  UNL1        0.0204
      3 C          -6.6757  -17.0366   23.7411 C.ar    1  UNL1        0.0365
      4 C          -5.2934  -17.4997   23.3878 C.ar    1  UNL1        0.0826
      5 N          -5.0616  -18.2728   22.1235 N.ar    1  UNL1       -0.2918
      6 C          -3.8198  -18.8557   21.5168 C.ar    1  UNL1        0.0567
      7 C          -2.4376  -18.7814   22.0947 C.3     1  UNL1        0.0517
      8 C          -4.2029  -19.5261   20.2308 C.ar    1  UNL1        0.0730
      9 C          -3.2710  -20.2399   19.2969 C.3     1  UNL1        0.0534
     10 N          -5.6815  -19.3575   20.0427 N.ar    1  UNL1       -0.2299
     11 C          -6.2122  -18.5829   21.2125 C.ar    1  UNL1        0.1603
     12 C          -6.9074  -16.2635   25.0055 C.ar    1  UNL1        0.0828
     13 C          -8.2911  -16.1524   25.5738 C.ar    1  UNL1        0.0192
     14 C          -8.5229  -15.3793   26.8381 C.ar    1  UNL1        0.0031
     15 C          -7.3709  -14.7172   27.5342 C.ar    1  UNL1        0.0207
     16 C          -5.9871  -14.8282   26.9659 C.ar    1  UNL1        0.0988
     17 N          -5.7554  -15.6014   25.7016 N.ar    1  UNL1       -0.2438
     18 N          -8.7451  -18.4300   20.6547 N.pl3   1  UNL1       -0.3267
     19 H          -8.7984  -18.0066   19.7675 H       1  UNL1        0.1472
     20 C          -9.8144  -19.3852   21.0954 C.3     1  UNL1        0.1137
     21 C          -9.7310  -20.4417   23.9020 C.3     1  UNL1        0.0307
     22 C         -10.8045  -19.4761   23.4957 C.ar    1  UNL1       -0.0245
     23 C         -11.8365  -19.0388   24.4926 C.ar    1  UNL1       -0.0045
     24 C         -12.9100  -18.0732   24.0863 C.ar    1  UNL1       -0.0007
     25 C         -12.9517  -17.5450   22.6830 C.ar    1  UNL1       -0.0045
     26 C         -11.9198  -17.9823   21.6861 C.ar    1  UNL1       -0.0245
     27 C         -11.9615  -17.4541   20.2828 C.3     1  UNL1        0.0307
     28 C         -10.8462  -18.9479   22.0924 C.ar    1  UNL1       -0.0105
@<TRIPOS>BOND
     1    21    22    1
     2    22    23   ar
     3    23    24   ar
     4    24    25   ar
     5    25    26   ar
     6    26    27    1
     7    26    28   ar
     8    28    20    1
     9    20    18    1
    10    18     1    1
    11     1     2   ar
    12     2     3   ar
    13     3    12    1
    14    12    13   ar
    15    13    14   ar
    16    14    15   ar
    17    15    16   ar
    18    16    17   ar
    19     3     4   ar
    20     4     5   ar
    21     5     6   ar
    22     6     7    1
    23     6     8   ar
    24     8     9    1
    25     8    10   ar
    26    10    11   ar
    27    28    22   ar
    28    11     1   ar
    29    17    12   ar
    30    11     5   ar
    31    18    19    1
@<TRIPOS>MOLECULE
*****
 28 31 0 0 0
SMALL
GASTEIGER

@<TRIPOS>ATOM
      1 C          -8.6394  -19.2507   23.1591 C.ar    1  UNL1        0.0799
      2 C          -7.5800  -19.6955   22.1948 C.ar    1  UNL1        0.0204
      3 C          -6.3419  -18.8697   22.0075 C.ar    1  UNL1        0.0365
      4 C          -6.1632  -17.5991   22.7844 C.ar    1  UNL1        0.0826
      5 N          -7.2225  -17.1543   23.7487 N.ar    1  UNL1       -0.2918
      6 C          -7.3235  -15.9572   24.6469 C.ar    1  UNL1        0.0567
      7 C          -6.3030  -14.8658   24.7794 C.3     1  UNL1        0.0517
      8 C          -8.6240  -16.0431   25.3894 C.ar    1  UNL1        0.0730
      9 C          -9.1324  -15.0527   26.3948 C.3     1  UNL1        0.0534
     10 N          -9.3268  -17.2933   24.9501 N.ar    1  UNL1       -0.2299
     11 C          -8.4606  -17.9801   23.9361 C.ar    1  UNL1        0.1603
     12 C          -5.2825  -19.3145   21.0432 C.ar    1  UNL1        0.0828
     13 C          -5.3064  -20.7102   20.4941 C.ar    1  UNL1        0.0192
     14 C          -4.2470  -21.1550   19.5298 C.ar    1  UNL1        0.0031
     15 C          -3.1637  -20.2041   19.1146 C.ar    1  UNL1        0.0207
     16 C          -3.1398  -18.8084   19.6637 C.ar    1  UNL1        0.0988
     17 N          -4.1993  -18.3636   20.6280 N.ar    1  UNL1       -0.2438
     18 N          -9.8775  -20.0765   23.3465 N.pl3   1  UNL1       -0.3267
     19 H          -9.9821  -20.6308   24.1534 H       1  UNL1        0.1472
     20 C         -10.9564  -20.0577   22.3045 C.3     1  UNL1        0.1137
     21 C          -9.9872  -19.4471   19.5318 C.3     1  UNL1        0.0307
     22 C         -10.8539  -18.4611   20.2575 C.ar    1  UNL1       -0.0245
     23 C         -11.2361  -17.1698   19.5968 C.ar    1  UNL1       -0.0045
     24 C         -12.1028  -16.1838   20.3224 C.ar    1  UNL1       -0.0007
     25 C         -12.5874  -16.4891   21.7088 C.ar    1  UNL1       -0.0045
     26 C         -12.2053  -17.7804   22.3695 C.ar    1  UNL1       -0.0245
     27 C         -12.6899  -18.0857   23.7558 C.3     1  UNL1        0.0307
     28 C         -11.3385  -18.7664   21.6438 C.ar    1  UNL1       -0.0105
@<TRIPOS>BOND
     1    21    22    1
     2    22    23   ar
     3    23    24   ar
     4    24    25   ar
     5    25    26   ar
     6    26    27    1
     7    26    28   ar
     8    28    20    1
     9    20    18    1
    10    18     1    1
    11     1     2   ar
    12     2     3   ar
    13     3    12    1
    14    12    13   ar
    15    13    14   ar
    16    14    15   ar
    17    15    16   ar
    18    16    17   ar
    19     3     4   ar
    20     4     5   ar
    21     5     6   ar
    22     6     7    1
    23     6     8   ar
    24     8     9    1
    25     8    10   ar
    26    10    11   ar
    27    28    22   ar
    28    11     1   ar
    29    17    12   ar
    30    11     5   ar
    31    18    19    1
@<TRIPOS>MOLECULE
*****
 28 31 0 0 0
SMALL
GASTEIGER

@<TRIPOS>ATOM
      1 C          -7.3740  -17.7442   22.1029 C.ar    1  UNL1        0.0799
      2 C          -6.0483  -18.0911   21.4928 C.ar    1  UNL1        0.0204
      3 C          -4.7779  -17.6729   22.1717 C.ar    1  UNL1        0.0365
      4 C          -4.8331  -16.9077   23.4607 C.ar    1  UNL1        0.0826
      5 N          -6.1588  -16.5608   24.0708 N.ar    1  UNL1       -0.2918
      6 C          -6.5244  -15.8209   25.3233 C.ar    1  UNL1        0.0567
      7 C          -5.5625  -15.2248   26.3078 C.3     1  UNL1        0.0517
      8 C          -8.0209  -15.7819   25.4185 C.ar    1  UNL1        0.0730
      9 C          -8.8182  -15.1398   26.5150 C.3     1  UNL1        0.0534
     10 N          -8.5801  -16.4976   24.2248 N.ar    1  UNL1       -0.2299
     11 C          -7.4292  -16.9790   23.3918 C.ar    1  UNL1        0.1603
     12 C          -3.4521  -18.0198   21.5617 C.ar    1  UNL1        0.0828
     13 C          -3.0224  -19.4538   21.4671 C.ar    1  UNL1        0.0192
     14 C          -1.6967  -19.8008   20.8570 C.ar    1  UNL1        0.0031
     15 C          -0.8007  -18.7137   20.3416 C.ar    1  UNL1        0.0207
     16 C          -1.2305  -17.2797   20.4362 C.ar    1  UNL1        0.0988
     17 N          -2.5562  -16.9328   21.0463 N.ar    1  UNL1       -0.2438
     18 N          -8.6446  -18.1624   21.4239 N.pl3   1  UNL1       -0.3267
     19 H          -8.8962  -17.7618   20.5605 H       1  UNL1        0.1472
     20 C          -9.5316  -19.1910   22.0605 C.3     1  UNL1        0.1137
     21 C         -11.5657  -17.8360   20.3209 C.3     1  UNL1        0.0307
     22 C         -11.8749  -18.1093   21.7629 C.ar    1  UNL1       -0.0245
     23 C         -13.2013  -17.7051   22.3353 C.ar    1  UNL1       -0.0045
     24 C         -13.5105  -17.9784   23.7774 C.ar    1  UNL1       -0.0007
     25 C         -12.4934  -18.6559   24.6472 C.ar    1  UNL1       -0.0045
     26 C         -11.1672  -19.0601   24.0749 C.ar    1  UNL1       -0.0245
     27 C         -10.1501  -19.7376   24.9447 C.3     1  UNL1        0.0307
     28 C         -10.8579  -18.7868   22.6328 C.ar    1  UNL1       -0.0105
@<TRIPOS>BOND
     1    21    22    1
     2    22    23   ar
     3    23    24   ar
     4    24    25   ar
     5    25    26   ar
     6    26    27    1
     7    26    28   ar
     8    28    20    1
     9    20    18    1
    10    18     1    1
    11     1     2   ar
    12     2     3   ar
    13     3    12    1
    14    12    13   ar
    15    13    14   ar
    16    14    15   ar
    17    15    16   ar
    18    16    17   ar
    19     3     4   ar
    20     4     5   ar
    21     5     6   ar
    22     6     7    1
    23     6     8   ar
    24     8     9    1
    25     8    10   ar
    26    10    11   ar
    27    28    22   ar
    28    11     1   ar
    29    17    12   ar
    30    11     5   ar
    31    18    19    1
@<TRIPOS>MOLECULE
*****
 28 31 0 0 0
SMALL
GASTEIGER

@<TRIPOS>ATOM
      1 C          -7.1530  -17.9145   22.0041 C.ar    1  UNL1        0.0799
      2 C          -5.8173  -18.2177   21.3928 C.ar    1  UNL1        0.0204
      3 C          -4.5624  -17.7230   22.0489 C.ar    1  UNL1        0.0365
      4 C          -4.6433  -16.9250   23.3165 C.ar    1  UNL1        0.0826
      5 N          -5.9791  -16.6218   23.9279 N.ar    1  UNL1       -0.2918
      6 C          -6.3692  -15.8643   25.1623 C.ar    1  UNL1        0.0567
      7 C          -5.4285  -15.1973   26.1216 C.3     1  UNL1        0.0517
      8 C          -7.8652  -15.8908   25.2691 C.ar    1  UNL1        0.0730
      9 C          -8.6831  -15.2550   26.3540 C.3     1  UNL1        0.0534
     10 N          -8.3996  -16.6648   24.1007 N.ar    1  UNL1       -0.2299
     11 C          -7.2339  -17.1165   23.2717 C.ar    1  UNL1        0.1603
     12 C          -3.2266  -18.0262   21.4375 C.ar    1  UNL1        0.0828
     13 C          -2.2630  -16.9130   21.1507 C.ar    1  UNL1        0.0192
     14 C          -0.9273  -17.2161   20.5393 C.ar    1  UNL1        0.0031
     15 C          -0.5550  -18.6326   20.2148 C.ar    1  UNL1        0.0207
     16 C          -1.5186  -19.7458   20.5016 C.ar    1  UNL1        0.0988
     17 N          -2.8545  -19.4425   21.1130 N.ar    1  UNL1       -0.2438
     18 N          -8.4079  -18.4093   21.3480 N.pl3   1  UNL1       -0.3267
     19 H          -8.6346  -18.1167   20.4357 H       1  UNL1        0.1472
     20 C          -9.3173  -19.3497   22.0818 C.3     1  UNL1        0.1137
     21 C         -10.1245  -19.6941   24.9506 C.3     1  UNL1        0.0307
     22 C         -11.0695  -19.0542   23.9772 C.ar    1  UNL1       -0.0245
     23 C         -12.4182  -18.5866   24.4382 C.ar    1  UNL1       -0.0045
     24 C         -13.3632  -17.9467   23.4648 C.ar    1  UNL1       -0.0007
     25 C         -12.9596  -17.7745   22.0304 C.ar    1  UNL1       -0.0045
     26 C         -11.6110  -18.2422   21.5694 C.ar    1  UNL1       -0.0245
     27 C         -11.2074  -18.0700   20.1351 C.3     1  UNL1        0.0307
     28 C         -10.6659  -18.8820   22.5428 C.ar    1  UNL1       -0.0105
@<TRIPOS>BOND
     1    21    22    1
     2    22    23   ar
     3    23    24   ar
     4    24    25   ar
     5    25    26   ar
     6    26    27    1
     7    26    28   ar
     8    28    20    1
     9    20    18    1
    10    18     1    1
    11     1     2   ar
    12     2     3   ar
    13     3    12    1
    14    12    13   ar
    15    13    14   ar
    16    14    15   ar
    17    15    16   ar
    18    16    17   ar
    19     3     4   ar
    20     4     5   ar
    21     5     6   ar
    22     6     7    1
    23     6     8   ar
    24     8     9    1
    25     8    10   ar
    26    10    11   ar
    27    28    22   ar
    28    11     1   ar
    29    17    12   ar
    30    11     5   ar
    31    18    19    1
@<TRIPOS>MOLECULE
*****
 28 31 0 0 0
SMALL
GASTEIGER

@<TRIPOS>ATOM
      1 C         -14.6295   -6.6557   19.3381 C.ar    1  UNL1        0.0799
      2 C         -15.5235   -5.4678   19.5373 C.ar    1  UNL1        0.0204
      3 C         -14.9444   -4.0842   19.5321 C.ar    1  UNL1        0.0365
      4 C         -13.4714   -3.8884   19.3278 C.ar    1  UNL1        0.0826
      5 N         -12.5774   -5.0762   19.1286 N.ar    1  UNL1       -0.2918
      6 C         -11.0987   -5.1934   18.9054 C.ar    1  UNL1        0.0567
      7 C         -10.1257   -4.0544   18.8285 C.3     1  UNL1        0.0517
      8 C         -10.7639   -6.6495   18.7726 C.ar    1  UNL1        0.0730
      9 C          -9.3973   -7.2223   18.5397 C.3     1  UNL1        0.0534
     10 N         -12.0357   -7.4323   18.9138 N.ar    1  UNL1       -0.2299
     11 C         -13.1565   -6.4599   19.1337 C.ar    1  UNL1        0.1603
     12 C         -15.8384   -2.8962   19.7313 C.ar    1  UNL1        0.0828
     13 C         -17.3276   -3.0744   19.7585 C.ar    1  UNL1        0.0192
     14 C         -18.2216   -1.8866   19.9577 C.ar    1  UNL1        0.0031
     15 C         -17.6264   -0.5204   20.1297 C.ar    1  UNL1        0.0207
     16 C         -16.1373   -0.3422   20.1025 C.ar    1  UNL1        0.0988
     17 N         -15.2433   -1.5301   19.9033 N.ar    1  UNL1       -0.2438
     18 N         -15.2086   -8.0395   19.3433 N.pl3   1  UNL1       -0.3267
     19 H         -15.4234   -8.4800   20.1971 H       1  UNL1        0.1472
     20 C         -15.4603   -8.7520   18.0475 C.3     1  UNL1        0.1137
     21 C         -16.6807   -6.7290   16.1987 C.3     1  UNL1        0.0307
     22 C         -17.4748   -7.9262   16.6298 C.ar    1  UNL1       -0.0245
     23 C         -18.8792   -8.1121   16.1366 C.ar    1  UNL1       -0.0045
     24 C         -19.6733   -9.3093   16.5677 C.ar    1  UNL1       -0.0007
     25 C         -19.0631  -10.3208   17.4921 C.ar    1  UNL1       -0.0045
     26 C         -17.6588  -10.1350   17.9854 C.ar    1  UNL1       -0.0245
     27 C         -17.0486  -11.1465   18.9098 C.3     1  UNL1        0.0307
     28 C         -16.8646   -8.9377   17.5542 C.ar    1  UNL1       -0.0105
@<TRIPOS>BOND
     1    21    22    1
     2    22    23   ar
     3    23    24   ar
     4    24    25   ar
     5    25    26   ar
     6    26    27    1
     7    26    28   ar
     8    28    20    1
     9    20    18    1
    10    18     1    1
    11     1     2   ar
    12     2     3   ar
    13     3    12    1
    14    12    13   ar
    15    13    14   ar
    16    14    15   ar
    17    15    16   ar
    18    16    17   ar
    19     3     4   ar
    20     4     5   ar
    21     5     6   ar
    22     6     7    1
    23     6     8   ar
    24     8     9    1
    25     8    10   ar
    26    10    11   ar
    27    28    22   ar
    28    11     1   ar
    29    17    12   ar
    30    11     5   ar
    31    18    19    1
@<TRIPOS>MOLECULE
*****
 28 31 0 0 0
SMALL
GASTEIGER

@<TRIPOS>ATOM
      1 C         -14.2881   -5.6574   19.4859 C.ar    1  UNL1        0.0799
      2 C         -14.8301   -4.2589   19.5051 C.ar    1  UNL1        0.0204
      3 C         -13.9212   -3.0984   19.2271 C.ar    1  UNL1        0.0365
      4 C         -12.4703   -3.3365   18.9300 C.ar    1  UNL1        0.0826
      5 N         -11.9284   -4.7350   18.9109 N.ar    1  UNL1       -0.2918
      6 C         -10.5533   -5.2751   18.6513 C.ar    1  UNL1        0.0567
      7 C          -9.3333   -4.4634   18.3306 C.3     1  UNL1        0.0517
      8 C         -10.6123   -6.7693   18.7689 C.ar    1  UNL1        0.0730
      9 C          -9.4616   -7.7142   18.5863 C.3     1  UNL1        0.0534
     10 N         -12.0239   -7.1528   19.1010 N.ar    1  UNL1       -0.2299
     11 C         -12.8373   -5.8954   19.1888 C.ar    1  UNL1        0.1603
     12 C         -14.4632   -1.6999   19.2463 C.ar    1  UNL1        0.0828
     13 C         -15.7379   -1.3995   19.9776 C.ar    1  UNL1        0.0192
     14 C         -16.2799   -0.0010   19.9968 C.ar    1  UNL1        0.0031
     15 C         -15.5471    1.0972   19.2846 C.ar    1  UNL1        0.0207
     16 C         -14.2724    0.7968   18.5533 C.ar    1  UNL1        0.0988
     17 N         -13.7305   -0.6017   18.5342 N.ar    1  UNL1       -0.2438
     18 N         -15.1970   -6.8179   19.7638 N.pl3   1  UNL1       -0.3267
     19 H         -15.0724   -7.3567   20.5783 H       1  UNL1        0.1472
     20 C         -16.2958   -7.1574   18.8007 C.3     1  UNL1        0.1137
     21 C         -17.1088   -9.9251   19.6245 C.3     1  UNL1        0.0307
     22 C         -18.0912   -8.7956   19.7187 C.ar    1  UNL1       -0.0245
     23 C         -19.4802   -9.0498   20.2249 C.ar    1  UNL1       -0.0045
     24 C         -20.4626   -7.9203   20.3191 C.ar    1  UNL1       -0.0007
     25 C         -20.0561   -6.5364   19.9072 C.ar    1  UNL1       -0.0045
     26 C         -18.6672   -6.2821   19.4011 C.ar    1  UNL1       -0.0245
     27 C         -18.2607   -4.8982   18.9892 C.3     1  UNL1        0.0307
     28 C         -17.6847   -7.4117   19.3068 C.ar    1  UNL1       -0.0105
@<TRIPOS>BOND
     1    21    22    1
     2    22    23   ar
     3    23    24   ar
     4    24    25   ar
     5    25    26   ar
     6    26    27    1
     7    26    28   ar
     8    28    20    1
     9    20    18    1
    10    18     1    1
    11     1     2   ar
    12     2     3   ar
    13     3    12    1
    14    12    13   ar
    15    13    14   ar
    16    14    15   ar
    17    15    16   ar
    18    16    17   ar
    19     3     4   ar
    20     4     5   ar
    21     5     6   ar
    22     6     7    1
    23     6     8   ar
    24     8     9    1
    25     8    10   ar
    26    10    11   ar
    27    28    22   ar
    28    11     1   ar
    29    17    12   ar
    30    11     5   ar
    31    18    19    1
@<TRIPOS>MOLECULE
*****
 28 31 0 0 0
SMALL
GASTEIGER

@<TRIPOS>ATOM
      1 C          -6.0141  -16.3416   23.7240 C.ar    1  UNL1        0.0799
      2 C          -7.0407  -17.0887   22.9253 C.ar    1  UNL1        0.0204
      3 C          -8.4478  -17.2027   23.4322 C.ar    1  UNL1        0.0365
      4 C          -8.8283  -16.5695   24.7377 C.ar    1  UNL1        0.0826
      5 N          -7.8017  -15.8223   25.5363 N.ar    1  UNL1       -0.2918
      6 C          -7.8818  -15.0996   26.8483 C.ar    1  UNL1        0.0567
      7 C          -9.1048  -14.9618   27.7057 C.3     1  UNL1        0.0517
      8 C          -6.5241  -14.5390   27.1523 C.ar    1  UNL1        0.0730
      9 C          -6.1511  -13.7420   28.3671 C.3     1  UNL1        0.0534
     10 N          -5.6049  -14.9152   26.0282 N.ar    1  UNL1       -0.2299
     11 C          -6.3946  -15.7084   25.0294 C.ar    1  UNL1        0.1603
     12 C          -9.4745  -17.9498   22.6336 C.ar    1  UNL1        0.0828
     13 C          -9.6920  -19.4142   22.8746 C.ar    1  UNL1        0.0192
     14 C         -10.7187  -20.1614   22.0761 C.ar    1  UNL1        0.0031
     15 C         -11.5278  -19.4441   21.0364 C.ar    1  UNL1        0.0207
     16 C         -11.3102  -17.9797   20.7953 C.ar    1  UNL1        0.0988
     17 N         -10.2835  -17.2326   21.5939 N.ar    1  UNL1       -0.2438
     18 N          -4.6069  -16.2276   23.2171 N.pl3   1  UNL1       -0.3267
     19 H          -4.2520  -15.3513   22.9424 H       1  UNL1        0.1472
     20 C          -3.7403  -17.4488   23.1288 C.3     1  UNL1        0.1137
     21 C          -5.2981  -19.8224   22.1596 C.3     1  UNL1        0.0307
     22 C          -4.2098  -19.2406   21.3070 C.ar    1  UNL1       -0.0245
     23 C          -3.9003  -19.8455   19.9697 C.ar    1  UNL1       -0.0045
     24 C          -2.8121  -19.2637   19.1170 C.ar    1  UNL1       -0.0007
     25 C          -2.0332  -18.0769   19.6016 C.ar    1  UNL1       -0.0045
     26 C          -2.3426  -17.4719   20.9388 C.ar    1  UNL1       -0.0245
     27 C          -1.5637  -16.2851   21.4234 C.3     1  UNL1        0.0307
     28 C          -3.4309  -18.0537   21.7916 C.ar    1  UNL1       -0.0105
@<TRIPOS>BOND
     1    21    22    1
     2    22    23   ar
     3    23    24   ar
     4    24    25   ar
     5    25    26   ar
     6    26    27    1
     7    26    28   ar
     8    28    20    1
     9    20    18    1
    10    18     1    1
    11     1     2   ar
    12     2     3   ar
    13     3    12    1
    14    12    13   ar
    15    13    14   ar
    16    14    15   ar
    17    15    16   ar
    18    16    17   ar
    19     3     4   ar
    20     4     5   ar
    21     5     6   ar
    22     6     7    1
    23     6     8   ar
    24     8     9    1
    25     8    10   ar
    26    10    11   ar
    27    28    22   ar
    28    11     1   ar
    29    17    12   ar
    30    11     5   ar
    31    18    19    1
@<TRIPOS>MOLECULE
*****
 28 31 0 0 0
SMALL
GASTEIGER

@<TRIPOS>ATOM
      1 C         -14.9402   -4.6709   19.6896 C.ar    1  UNL1        0.0799
      2 C         -15.9076   -5.8067   19.5342 C.ar    1  UNL1        0.0204
      3 C         -15.4191   -7.1517   19.0845 C.ar    1  UNL1        0.0365
      4 C         -13.9632   -7.3610   18.7903 C.ar    1  UNL1        0.0826
      5 N         -12.9958   -6.2253   18.9457 N.ar    1  UNL1       -0.2918
      6 C         -11.5142   -6.1321   18.7306 C.ar    1  UNL1        0.0567
      7 C         -10.6173   -7.2461   18.2782 C.3     1  UNL1        0.0517
      8 C         -11.0871   -4.7295   19.0472 C.ar    1  UNL1        0.0730
      9 C          -9.6879   -4.1946   18.9670 C.3     1  UNL1        0.0534
     10 N         -12.3046   -3.9558   19.4581 N.ar    1  UNL1       -0.2299
     11 C         -13.4843   -4.8802   19.3953 C.ar    1  UNL1        0.1603
     12 C         -16.3865   -8.2876   18.9291 C.ar    1  UNL1        0.0828
     13 C         -17.8586   -8.0454   19.0845 C.ar    1  UNL1        0.0192
     14 C         -18.8260   -9.1812   18.9291 C.ar    1  UNL1        0.0031
     15 C         -18.3213  -10.5591   18.6183 C.ar    1  UNL1        0.0207
     16 C         -16.8491  -10.8013   18.4630 C.ar    1  UNL1        0.0988
     17 N         -15.8817   -9.6654   18.6184 N.ar    1  UNL1       -0.2438
     18 N         -15.4287   -3.3258   20.1392 N.pl3   1  UNL1       -0.3267
     19 H         -15.3098   -3.0468   21.0758 H       1  UNL1        0.1472
     20 C         -16.0983   -2.4059   19.1618 C.3     1  UNL1        0.1137
     21 C         -14.1761   -2.4224   16.8586 C.3     1  UNL1        0.0307
     22 C         -14.4591   -1.1438   17.5902 C.ar    1  UNL1       -0.0245
     23 C         -13.7810    0.1265   17.1701 C.ar    1  UNL1       -0.0045
     24 C         -14.0640    1.4051   17.9017 C.ar    1  UNL1       -0.0007
     25 C         -15.0251    1.4133   19.0533 C.ar    1  UNL1       -0.0045
     26 C         -15.7032    0.1430   19.4733 C.ar    1  UNL1       -0.0245
     27 C         -16.6643    0.1512   20.6249 C.3     1  UNL1        0.0307
     28 C         -15.4202   -1.1356   18.7417 C.ar    1  UNL1       -0.0105
@<TRIPOS>BOND
     1    21    22    1
     2    22    23   ar
     3    23    24   ar
     4    24    25   ar
     5    25    26   ar
     6    26    27    1
     7    26    28   ar
     8    28    20    1
     9    20    18    1
    10    18     1    1
    11     1     2   ar
    12     2     3   ar
    13     3    12    1
    14    12    13   ar
    15    13    14   ar
    16    14    15   ar
    17    15    16   ar
    18    16    17   ar
    19     3     4   ar
    20     4     5   ar
    21     5     6   ar
    22     6     7    1
    23     6     8   ar
    24     8     9    1
    25     8    10   ar
    26    10    11   ar
    27    28    22   ar
    28    11     1   ar
    29    17    12   ar
    30    11     5   ar
    31    18    19    1
