@<TRIPOS>MOLECULE
*****
 19 20 0 0 0
SMALL
GASTEIGER

@<TRIPOS>ATOM
      1 C          -6.9131  -20.0559   22.3017 C.2     1  UNL1        0.0033
      2 C          -8.0727  -19.1237   22.4920 C.2     1  UNL1        0.0435
      3 C          -3.1477  -18.5886   20.3222 C.ar    1  UNL1        0.0479
      4 C          -4.3787  -18.8366   19.5018 C.ar    1  UNL1        0.0145
      5 C          -5.6338  -19.3257   20.1616 C.ar    1  UNL1        0.0013
      6 C          -5.6580  -19.5668   21.6419 C.ar    1  UNL1        0.0002
      7 C          -4.4270  -19.3188   22.4623 C.ar    1  UNL1        0.0013
      8 C          -3.1719  -18.8297   21.8025 C.ar    1  UNL1        0.0145
      9 C          -0.6107  -18.0411   20.4390 C.3     1  UNL1        0.1122
     10 N          -1.8926  -18.0995   19.6623 N.pl3   1  UNL1       -0.3041
     11 C          -1.9193  -17.6688   18.2258 C.3     1  UNL1        0.1122
     12 C          -9.3278  -19.6128   23.1519 C.2     1  UNL1        0.2111
     13 O          -9.2766  -20.7867   24.0842 O.2     1  UNL1       -0.2850
     14 C         -10.6343  -18.9279   22.8794 C.ar    1  UNL1        0.0961
     15 C         -11.6511  -18.5276   23.9070 C.ar    1  UNL1        0.0218
     16 C         -12.7985  -17.8754   23.1943 C.ar    1  UNL1        0.0200
     17 C         -12.4908  -17.8725   21.7261 C.ar    1  UNL1        0.0725
     18 N         -11.1533  -18.5230   21.5316 N.ar    1  UNL1       -0.3495
     19 H         -10.6962  -18.6601   20.6704 H       1  UNL1        0.1661
@<TRIPOS>BOND
     1     9    10    1
     2    10    11    1
     3    10     3    1
     4     3     4   ar
     5     4     5   ar
     6     5     6   ar
     7     6     1    1
     8     1     2    2
     9     2    12    1
    10    12    13    2
    11    12    14    1
    12    14    15   ar
    13    15    16   ar
    14    16    17   ar
    15    17    18   ar
    16     6     7   ar
    17     7     8   ar
    18     8     3   ar
    19    18    14   ar
    20    18    19    1
@<TRIPOS>MOLECULE
*****
 19 20 0 0 0
SMALL
GASTEIGER

@<TRIPOS>ATOM
      1 C         -12.9404   -5.5547   19.1520 C.2     1  UNL1        0.0033
      2 C         -11.5181   -5.9321   18.8614 C.2     1  UNL1        0.0435
      3 C         -16.2109   -8.6176   18.7372 C.ar    1  UNL1        0.0479
      4 C         -16.5060   -7.2849   19.3590 C.ar    1  UNL1        0.0145
      5 C         -15.4159   -6.2639   19.4972 C.ar    1  UNL1        0.0013
      6 C         -14.0306   -6.5756   19.0137 C.ar    1  UNL1        0.0002
      7 C         -13.7355   -7.9084   18.3920 C.ar    1  UNL1        0.0013
      8 C         -14.8257   -8.9294   18.2537 C.ar    1  UNL1        0.0145
      9 C         -18.7256   -9.1976   18.4369 C.3     1  UNL1        0.1122
     10 N         -17.3011   -9.6386   18.5989 N.pl3   1  UNL1       -0.3041
     11 C         -16.9668  -11.1007   18.6226 C.3     1  UNL1        0.1122
     12 C         -10.4280   -4.9111   18.9996 C.2     1  UNL1        0.2111
     13 O          -9.1480   -5.2701   19.6943 O.2     1  UNL1       -0.2850
     14 C         -10.6179   -3.5311   18.4432 C.ar    1  UNL1        0.0961
     15 C         -10.2498   -3.0795   17.0609 C.ar    1  UNL1        0.0218
     16 C         -10.6136   -1.6297   16.9347 C.ar    1  UNL1        0.0200
     17 C         -11.2065   -1.1854   18.2390 C.ar    1  UNL1        0.0725
     18 N         -11.2091   -2.3605   19.1712 N.ar    1  UNL1       -0.3495
     19 H         -11.5407   -2.3630   20.0982 H       1  UNL1        0.1661
@<TRIPOS>BOND
     1     9    10    1
     2    10    11    1
     3    10     3    1
     4     3     4   ar
     5     4     5   ar
     6     5     6   ar
     7     6     1    1
     8     1     2    2
     9     2    12    1
    10    12    13    2
    11    12    14    1
    12    14    15   ar
    13    15    16   ar
    14    16    17   ar
    15    17    18   ar
    16     6     7   ar
    17     7     8   ar
    18     8     3   ar
    19    18    14   ar
    20    18    19    1
@<TRIPOS>MOLECULE
*****
 19 20 0 0 0
SMALL
GASTEIGER

@<TRIPOS>ATOM
      1 C         -14.8440   -9.0435   18.2043 C.2     1  UNL1        0.0033
      2 C         -16.1690   -9.1376   18.9009 C.2     1  UNL1        0.0435
      3 C         -12.2463   -5.4161   18.7905 C.ar    1  UNL1        0.0479
      4 C         -13.5701   -5.5114   19.4893 C.ar    1  UNL1        0.0145
      5 C         -14.4360   -6.7205   19.2938 C.ar    1  UNL1        0.0013
      6 C         -13.9781   -7.8344   18.3997 C.ar    1  UNL1        0.0002
      7 C         -12.6542   -7.7391   17.7009 C.ar    1  UNL1        0.0013
      8 C         -11.7883   -6.5299   17.8964 C.ar    1  UNL1        0.0145
      9 C          -9.8876   -4.3336   18.9121 C.3     1  UNL1        0.1122
     10 N         -11.3804   -4.2069   18.9859 N.pl3   1  UNL1       -0.3041
     11 C         -12.0073   -2.8711   19.2552 C.3     1  UNL1        0.1122
     12 C         -17.0349  -10.3467   18.7055 C.2     1  UNL1        0.2111
     13 O         -16.6526  -11.6529   19.3361 O.2     1  UNL1       -0.2850
     14 C         -18.2833  -10.2497   17.8793 C.ar    1  UNL1        0.0961
     15 C         -18.6027   -9.1703   16.8879 C.ar    1  UNL1        0.0218
     16 C         -19.9481   -9.4684   16.2954 C.ar    1  UNL1        0.0200
     17 C         -20.4602  -10.7321   16.9208 C.ar    1  UNL1        0.0725
     18 N         -19.4313  -11.2149   17.8997 N.ar    1  UNL1       -0.3495
     19 H         -19.4978  -12.0233   18.4576 H       1  UNL1        0.1661
@<TRIPOS>BOND
     1     9    10    1
     2    10    11    1
     3    10     3    1
     4     3     4   ar
     5     4     5   ar
     6     5     6   ar
     7     6     1    1
     8     1     2    2
     9     2    12    1
    10    12    13    2
    11    12    14    1
    12    14    15   ar
    13    15    16   ar
    14    16    17   ar
    15    17    18   ar
    16     6     7   ar
    17     7     8   ar
    18     8     3   ar
    19    18    14   ar
    20    18    19    1
@<TRIPOS>MOLECULE
*****
 19 20 0 0 0
SMALL
GASTEIGER

@<TRIPOS>ATOM
      1 C          -7.4019  -19.3145   22.4759 C.2     1  UNL1        0.0033
      2 C          -8.3304  -18.2414   22.9618 C.2     1  UNL1        0.0435
      3 C          -3.2312  -18.2550   21.1596 C.ar    1  UNL1        0.0479
      4 C          -3.7074  -17.8663   22.5279 C.ar    1  UNL1        0.0145
      5 C          -5.0976  -18.2195   22.9667 C.ar    1  UNL1        0.0013
      6 C          -6.0117  -18.9613   22.0371 C.ar    1  UNL1        0.0002
      7 C          -5.5356  -19.3500   20.6689 C.ar    1  UNL1        0.0013
      8 C          -4.1453  -18.9968   20.2301 C.ar    1  UNL1        0.0145
      9 C          -1.3310  -16.5025   20.8993 C.3     1  UNL1        0.1122
     10 N          -1.8410  -17.9018   20.7209 N.pl3   1  UNL1       -0.3041
     11 C          -0.9608  -18.9478   20.1037 C.3     1  UNL1        0.1122
     12 C          -9.7207  -18.5946   23.4005 C.2     1  UNL1        0.2111
     13 O          -9.9292  -19.5960   24.4976 O.2     1  UNL1       -0.2850
     14 C         -10.9024  -17.9463   22.7422 C.ar    1  UNL1        0.0961
     15 C         -11.0257  -16.4950   22.3837 C.ar    1  UNL1        0.0218
     16 C         -12.3677  -16.2872   21.7467 C.ar    1  UNL1        0.0200
     17 C         -13.0738  -17.6101   21.7114 C.ar    1  UNL1        0.0725
     18 N         -12.1682  -18.6355   22.3267 N.ar    1  UNL1       -0.3495
     19 H         -12.3693  -19.5927   22.4382 H       1  UNL1        0.1661
@<TRIPOS>BOND
     1     9    10    1
     2    10    11    1
     3    10     3    1
     4     3     4   ar
     5     4     5   ar
     6     5     6   ar
     7     6     1    1
     8     1     2    2
     9     2    12    1
    10    12    13    2
    11    12    14    1
    12    14    15   ar
    13    15    16   ar
    14    16    17   ar
    15    17    18   ar
    16     6     7   ar
    17     7     8   ar
    18     8     3   ar
    19    18    14   ar
    20    18    19    1
@<TRIPOS>MOLECULE
*****
 19 20 0 0 0
SMALL
GASTEIGER

@<TRIPOS>ATOM
      1 C         -16.4246   -6.9544   19.2789 C.2     1  UNL1        0.0033
      2 C         -16.9490   -8.3006   19.6822 C.2     1  UNL1        0.0435
      3 C         -11.9868   -6.2424   19.0569 C.ar    1  UNL1        0.0479
      4 C         -12.8723   -5.2481   19.7477 C.ar    1  UNL1        0.0145
      5 C         -14.3516   -5.4854   19.8217 C.ar    1  UNL1        0.0013
      6 C         -14.9454   -6.7170   19.2049 C.ar    1  UNL1        0.0002
      7 C         -14.0599   -7.7113   18.5141 C.ar    1  UNL1        0.0013
      8 C         -12.5806   -7.4740   18.4402 C.ar    1  UNL1        0.0145
      9 C          -9.9727   -4.6038   18.9663 C.3     1  UNL1        0.1122
     10 N         -10.5076   -6.0050   18.9829 N.pl3   1  UNL1       -0.3041
     11 C          -9.5632   -7.1690   18.9256 C.3     1  UNL1        0.1122
     12 C         -18.4282   -8.5379   19.7562 C.2     1  UNL1        0.2111
     13 O         -19.2114   -8.0307   20.9306 O.2     1  UNL1       -0.2850
     14 C         -19.1243   -9.2825   18.6557 C.ar    1  UNL1        0.0961
     15 C         -19.1004   -8.9273   17.1985 C.ar    1  UNL1        0.0218
     16 C         -19.9278   -9.9383   16.4613 C.ar    1  UNL1        0.0200
     17 C         -20.4631  -10.9183   17.4630 C.ar    1  UNL1        0.0725
     18 N         -19.9665  -10.5130   18.8191 N.ar    1  UNL1       -0.3495
     19 H         -20.1594  -10.9737   19.6675 H       1  UNL1        0.1661
@<TRIPOS>BOND
     1     9    10    1
     2    10    11    1
     3    10     3    1
     4     3     4   ar
     5     4     5   ar
     6     5     6   ar
     7     6     1    1
     8     1     2    2
     9     2    12    1
    10    12    13    2
    11    12    14    1
    12    14    15   ar
    13    15    16   ar
    14    16    17   ar
    15    17    18   ar
    16     6     7   ar
    17     7     8   ar
    18     8     3   ar
    19    18    14   ar
    20    18    19    1
@<TRIPOS>MOLECULE
*****
 19 20 0 0 0
SMALL
GASTEIGER

@<TRIPOS>ATOM
      1 C         -13.9622   -7.5441   18.5961 C.2     1  UNL1        0.0033
      2 C         -14.4578   -8.5948   17.6472 C.2     1  UNL1        0.0435
      3 C         -11.0552   -4.4177   17.1730 C.ar    1  UNL1        0.0479
      4 C         -11.6555   -4.3151   18.5438 C.ar    1  UNL1        0.0145
      5 C         -12.6245   -5.3572   19.0181 C.ar    1  UNL1        0.0013
      6 C         -12.9932   -6.5020   18.1217 C.ar    1  UNL1        0.0002
      7 C         -12.3929   -6.6046   16.7510 C.ar    1  UNL1        0.0013
      8 C         -11.4240   -5.5624   16.2766 C.ar    1  UNL1        0.0145
      9 C          -8.7717   -3.7883   16.1057 C.3     1  UNL1        0.1122
     10 N         -10.0862   -3.3756   16.6986 N.pl3   1  UNL1       -0.3041
     11 C         -10.4318   -1.9208   16.8171 C.3     1  UNL1        0.1122
     12 C         -15.4268   -9.6369   18.1216 C.2     1  UNL1        0.2111
     13 O         -15.0633  -11.0900   18.0433 O.2     1  UNL1       -0.2850
     14 C         -16.7593   -9.2258   18.6743 C.ar    1  UNL1        0.0961
     15 C         -17.0287   -8.7680   20.0771 C.ar    1  UNL1        0.0218
     16 C         -18.4922   -8.4596   20.1911 C.ar    1  UNL1        0.0200
     17 C         -19.1273   -8.7268   18.8586 C.ar    1  UNL1        0.0725
     18 N         -18.0563   -9.2003   17.9213 N.ar    1  UNL1       -0.3495
     19 H         -18.1825   -9.4505   16.9775 H       1  UNL1        0.1661
@<TRIPOS>BOND
     1     9    10    1
     2    10    11    1
     3    10     3    1
     4     3     4   ar
     5     4     5   ar
     6     5     6   ar
     7     6     1    1
     8     1     2    2
     9     2    12    1
    10    12    13    2
    11    12    14    1
    12    14    15   ar
    13    15    16   ar
    14    16    17   ar
    15    17    18   ar
    16     6     7   ar
    17     7     8   ar
    18     8     3   ar
    19    18    14   ar
    20    18    19    1
@<TRIPOS>MOLECULE
*****
 19 20 0 0 0
SMALL
GASTEIGER

@<TRIPOS>ATOM
      1 C         -16.5017   -6.7485   19.3622 C.2     1  UNL1        0.0033
      2 C         -17.3765   -5.5411   19.5265 C.2     1  UNL1        0.0435
      3 C         -12.0402   -6.2659   19.0278 C.ar    1  UNL1        0.0479
      4 C         -12.8502   -5.2507   19.7782 C.ar    1  UNL1        0.0145
      5 C         -14.3374   -5.4116   19.8897 C.ar    1  UNL1        0.0013
      6 C         -15.0145   -6.5876   19.2507 C.ar    1  UNL1        0.0002
      7 C         -14.2045   -7.6028   18.5003 C.ar    1  UNL1        0.0013
      8 C         -12.7173   -7.4420   18.3889 C.ar    1  UNL1        0.0145
      9 C          -9.9446   -4.7340   18.9200 C.3     1  UNL1        0.1122
     10 N         -10.5530   -6.1050   18.9163 N.pl3   1  UNL1       -0.3041
     11 C          -9.6743   -7.3152   18.8012 C.3     1  UNL1        0.1122
     12 C         -18.8636   -5.7020   19.6380 C.2     1  UNL1        0.2111
     13 O         -19.7348   -4.4986   19.8446 O.2     1  UNL1       -0.2850
     14 C         -19.4797   -7.0664   19.5428 C.ar    1  UNL1        0.0961
     15 C         -19.8238   -7.9609   20.6968 C.ar    1  UNL1        0.0218
     16 C         -20.4165   -9.2232   20.1442 C.ar    1  UNL1        0.0200
     17 C         -20.4387   -9.1088   18.6487 C.ar    1  UNL1        0.0725
     18 N         -19.8597   -7.7759   18.2770 N.ar    1  UNL1       -0.3495
     19 H         -19.7486   -7.4278   17.3628 H       1  UNL1        0.1661
@<TRIPOS>BOND
     1     9    10    1
     2    10    11    1
     3    10     3    1
     4     3     4   ar
     5     4     5   ar
     6     5     6   ar
     7     6     1    1
     8     1     2    2
     9     2    12    1
    10    12    13    2
    11    12    14    1
    12    14    15   ar
    13    15    16   ar
    14    16    17   ar
    15    17    18   ar
    16     6     7   ar
    17     7     8   ar
    18     8     3   ar
    19    18    14   ar
    20    18    19    1
@<TRIPOS>MOLECULE
*****
 19 20 0 0 0
SMALL
GASTEIGER

@<TRIPOS>ATOM
      1 C           4.9281    0.1986   36.1814 C.2     1  UNL1        0.0033
      2 C           3.9929    1.3651   36.0605 C.2     1  UNL1        0.0435
      3 C           6.0211   -2.1965   32.5319 C.ar    1  UNL1        0.0479
      4 C           7.0088   -1.2330   33.1202 C.ar    1  UNL1        0.0145
      5 C           6.6445   -0.4346   34.3366 C.ar    1  UNL1        0.0013
      6 C           5.2925   -0.5998   34.9649 C.ar    1  UNL1        0.0002
      7 C           4.3048   -1.5633   34.3767 C.ar    1  UNL1        0.0013
      8 C           4.6691   -2.3617   33.1602 C.ar    1  UNL1        0.0145
      9 C           6.2441   -2.3889   29.9506 C.3     1  UNL1        0.1122
     10 N           6.3855   -2.9949   31.3154 N.pl3   1  UNL1       -0.3041
     11 C           6.8912   -4.3992   31.4637 C.3     1  UNL1        0.1122
     12 C           3.6286    2.1635   37.2770 C.2     1  UNL1        0.2111
     13 O           4.3274    3.4602   37.5601 O.2     1  UNL1       -0.2850
     14 C           2.5654    1.6651   38.2105 C.ar    1  UNL1        0.0961
     15 C           1.4699    2.4891   38.8195 C.ar    1  UNL1        0.0218
     16 C           0.6385    1.5886   39.6842 C.ar    1  UNL1        0.0200
     17 C           1.2201    0.2079   39.6095 C.ar    1  UNL1        0.0725
     18 N           2.4110    0.2552   38.6987 N.ar    1  UNL1       -0.3495
     19 H           2.9897   -0.5055   38.4628 H       1  UNL1        0.1661
@<TRIPOS>BOND
     1     9    10    1
     2    10    11    1
     3    10     3    1
     4     3     4   ar
     5     4     5   ar
     6     5     6   ar
     7     6     1    1
     8     1     2    2
     9     2    12    1
    10    12    13    2
    11    12    14    1
    12    14    15   ar
    13    15    16   ar
    14    16    17   ar
    15    17    18   ar
    16     6     7   ar
    17     7     8   ar
    18     8     3   ar
    19    18    14   ar
    20    18    19    1
@<TRIPOS>MOLECULE
*****
 19 20 0 0 0
SMALL
GASTEIGER

@<TRIPOS>ATOM
      1 C         -13.4720   -3.1975   19.6302 C.2     1  UNL1        0.0033
      2 C         -13.4512   -4.2639   18.5756 C.2     1  UNL1        0.0435
      3 C         -14.4233    1.0559   18.5105 C.ar    1  UNL1        0.0479
      4 C         -15.4505    0.2172   19.2114 C.ar    1  UNL1        0.0145
      5 C         -15.1334   -1.2006   19.5846 C.ar    1  UNL1        0.0013
      6 C         -13.7891   -1.7797   19.2569 C.ar    1  UNL1        0.0002
      7 C         -12.7619   -0.9410   18.5560 C.ar    1  UNL1        0.0013
      8 C         -13.0790    0.4768   18.1828 C.ar    1  UNL1        0.0145
      9 C         -14.0033    3.1356   17.0110 C.3     1  UNL1        0.1122
     10 N         -14.7404    2.4737   18.1373 N.pl3   1  UNL1       -0.3041
     11 C         -15.7945    3.2297   18.8903 C.3     1  UNL1        0.1122
     12 C         -13.1341   -5.6817   18.9488 C.2     1  UNL1        0.2111
     13 O         -14.2367   -6.6163   19.3494 O.2     1  UNL1       -0.2850
     14 C         -11.7142   -6.1649   18.9213 C.ar    1  UNL1        0.0961
     15 C         -10.4899   -5.3136   19.0841 C.ar    1  UNL1        0.0218
     16 C          -9.2884   -6.2066   18.9897 C.ar    1  UNL1        0.0200
     17 C          -9.7702   -7.6099   18.7685 C.ar    1  UNL1        0.0725
     18 N         -11.2694   -7.5840   18.7263 N.ar    1  UNL1       -0.3495
     19 H         -11.8581   -8.3620   18.5938 H       1  UNL1        0.1661
@<TRIPOS>BOND
     1     9    10    1
     2    10    11    1
     3    10     3    1
     4     3     4   ar
     5     4     5   ar
     6     5     6   ar
     7     6     1    1
     8     1     2    2
     9     2    12    1
    10    12    13    2
    11    12    14    1
    12    14    15   ar
    13    15    16   ar
    14    16    17   ar
    15    17    18   ar
    16     6     7   ar
    17     7     8   ar
    18     8     3   ar
    19    18    14   ar
    20    18    19    1
