@<TRIPOS>MOLECULE
*****
 35 39 0 0 0
SMALL
GASTEIGER

@<TRIPOS>ATOM
      1 C          -3.1659  -17.5649   18.8142 C.3     1  UNL1        0.0730
      2 N          -3.8263  -18.8207   19.3008 N.3     1  UNL1       -0.2726
      3 C          -3.1577  -20.1488   19.4985 C.3     1  UNL1        0.0721
      4 C          -4.1895  -21.1177   19.9951 C.3     1  UNL1        0.0190
      5 C          -5.4957  -20.3885   20.1044 C.3     1  UNL1        0.0201
      6 C          -6.2890  -21.5611   20.5998 C.3     1  UNL1        0.0061
      7 C          -6.9576  -20.2330   20.4022 C.3     1  UNL1        0.0237
      8 C          -5.2712  -18.9688   19.6753 C.3     1  UNL1        0.0724
      9 C          -8.1876  -19.3765   20.4600 C.ar    1  UNL1       -0.0225
     10 C          -9.2820  -19.5666   19.4519 C.ar    1  UNL1       -0.0043
     11 C         -10.5120  -18.7100   19.5097 C.ar    1  UNL1        0.0035
     12 C         -10.6476  -17.6634   20.5756 C.ar    1  UNL1        0.0714
     13 C          -9.5532  -17.4733   21.5836 C.ar    1  UNL1        0.0035
     14 C          -8.3232  -18.3298   21.5258 C.ar    1  UNL1       -0.0043
     15 C         -11.8776  -16.8068   20.6334 C.3     1  UNL1        0.4186
     16 F         -13.1078  -15.9502   20.6912 F       1  UNL1       -0.1659
     17 F         -11.0940  -15.6454   20.0978 F       1  UNL1       -0.1659
     18 F         -12.6613  -17.9683   21.1689 F       1  UNL1       -0.1659
     19 C          -1.6694  -17.4654   18.7900 C.3     1  UNL1        0.0294
     20 C          -0.9035  -17.3644   20.0759 C.3     1  UNL1        0.0666
     21 S          -1.5637  -17.7287   21.3726 S.3     1  UNL1       -0.0756
     22 C          -3.7498  -18.4908   23.6725 C.3     1  UNL1        0.1340
     23 N          -3.5454  -17.1346   23.0652 N.ar    1  UNL1       -0.2884
     24 C          -2.5406  -16.7843   22.0080 C.ar    1  UNL1        0.1932
     25 N          -2.6842  -15.3237   21.6978 N.ar    1  UNL1       -0.1221
     26 N          -3.7777  -14.7714   22.5632 N.ar    1  UNL1       -0.1282
     27 C          -4.3101  -15.8905   23.4084 C.ar    1  UNL1        0.1670
     28 C          -5.4133  -15.7843   24.4191 C.ar    1  UNL1        0.0422
     29 C          -5.0850  -15.6019   25.8713 C.ar    1  UNL1        0.0219
     30 C          -6.1882  -15.4957   26.8821 C.ar    1  UNL1        0.0785
     31 N          -7.6198  -15.5718   26.4405 N.ar    1  UNL1       -0.2922
     32 C          -8.7230  -15.4655   27.4513 C.3     1  UNL1        0.1336
     33 C          -7.9481  -15.7541   24.9883 C.ar    1  UNL1        0.2611
     34 O          -9.3796  -15.8302   24.5468 O.2     1  UNL1       -0.2670
     35 C          -6.8448  -15.8603   23.9776 C.ar    1  UNL1        0.0638
@<TRIPOS>BOND
     1    22    23    1
     2    23    24   ar
     3    24    21    1
     4    21    20    1
     5    20    19    1
     6    19     1    1
     7     1     2    1
     8     2     3    1
     9     3     4    1
    10     5     4    1
    11     5     6    1
    12     6     7    1
    13     7     9    1
    14     9    10   ar
    15    10    11   ar
    16    11    12   ar
    17    12    15    1
    18    15    16    1
    19    15    17    1
    20    15    18    1
    21    12    13   ar
    22    13    14   ar
    23     5     8    1
    24    24    25   ar
    25    25    26   ar
    26    26    27   ar
    27    27    28    1
    28    28    29   ar
    29    29    30   ar
    30    30    31   ar
    31    31    32    1
    32    31    33   ar
    33    33    34    2
    34    33    35   ar
    35    27    23   ar
    36    35    28   ar
    37     8     2    1
    38     7     5    1
    39    14     9   ar
@<TRIPOS>MOLECULE
*****
 35 39 0 0 0
SMALL
GASTEIGER

@<TRIPOS>ATOM
      1 C          -2.9320  -20.0295   21.6551 C.3     1  UNL1        0.0730
      2 N          -2.8203  -18.5347   21.7116 N.3     1  UNL1       -0.2726
      3 C          -1.8874  -17.6888   20.8967 C.3     1  UNL1        0.0721
      4 C          -2.1125  -16.2547   21.2744 C.3     1  UNL1        0.0190
      5 C          -3.1846  -16.2143   22.3228 C.3     1  UNL1        0.0201
      6 C          -3.1857  -14.7235   22.4885 C.3     1  UNL1        0.0061
      7 C          -4.1186  -15.5694   23.3035 C.3     1  UNL1        0.0237
      8 C          -3.6221  -17.6234   22.5930 C.3     1  UNL1        0.0724
      9 C          -5.1965  -15.6854   24.3401 C.ar    1  UNL1       -0.0225
     10 C          -6.6374  -15.7139   23.9240 C.ar    1  UNL1       -0.0043
     11 C          -7.7152  -15.8299   24.9607 C.ar    1  UNL1        0.0035
     12 C          -7.3522  -15.9175   26.4135 C.ar    1  UNL1        0.0714
     13 C          -5.9113  -15.8890   26.8296 C.ar    1  UNL1        0.0035
     14 C          -4.8335  -15.7730   25.7929 C.ar    1  UNL1       -0.0043
     15 C          -8.4301  -16.0335   27.4502 C.3     1  UNL1        0.4186
     16 F          -9.5080  -16.1495   28.4869 F       1  UNL1       -0.1659
     17 F          -8.7075  -17.4386   27.0044 F       1  UNL1       -0.1659
     18 F          -8.1526  -14.6284   27.8959 F       1  UNL1       -0.1659
     19 C          -3.5425  -20.6912   20.4554 C.3     1  UNL1        0.0294
     20 C          -5.0281  -20.6513   20.2516 C.3     1  UNL1        0.0666
     21 S          -5.6873  -19.3879   19.7836 S.3     1  UNL1       -0.0756
     22 C          -7.4808  -18.7743   22.4400 C.3     1  UNL1        0.1340
     23 N          -8.0056  -18.9783   21.0497 N.ar    1  UNL1       -0.2884
     24 C          -7.1812  -19.2603   19.8287 C.ar    1  UNL1        0.1932
     25 N          -8.1130  -19.3924   18.6606 N.ar    1  UNL1       -0.1221
     26 N          -9.5133  -19.1920   19.1598 N.ar    1  UNL1       -0.1282
     27 C          -9.4469  -18.9360   20.6363 C.ar    1  UNL1        0.1670
     28 C         -10.6165  -18.6824   21.5406 C.ar    1  UNL1        0.0422
     29 C         -11.8658  -18.0578   20.9937 C.ar    1  UNL1        0.0219
     30 C         -13.0354  -17.8041   21.8980 C.ar    1  UNL1        0.0785
     31 N         -12.9556  -18.1752   23.3493 N.ar    1  UNL1       -0.2922
     32 C         -14.1251  -17.9216   24.2536 C.3     1  UNL1        0.1336
     33 C         -11.7063  -18.7999   23.8962 C.ar    1  UNL1        0.2611
     34 O         -11.6266  -19.1709   25.3474 O.2     1  UNL1       -0.2670
     35 C         -10.5367  -19.0535   22.9918 C.ar    1  UNL1        0.0638
@<TRIPOS>BOND
     1    22    23    1
     2    23    24   ar
     3    24    21    1
     4    21    20    1
     5    20    19    1
     6    19     1    1
     7     1     2    1
     8     2     3    1
     9     3     4    1
    10     5     4    1
    11     5     6    1
    12     6     7    1
    13     7     9    1
    14     9    10   ar
    15    10    11   ar
    16    11    12   ar
    17    12    15    1
    18    15    16    1
    19    15    17    1
    20    15    18    1
    21    12    13   ar
    22    13    14   ar
    23     5     8    1
    24    24    25   ar
    25    25    26   ar
    26    26    27   ar
    27    27    28    1
    28    28    29   ar
    29    29    30   ar
    30    30    31   ar
    31    31    32    1
    32    31    33   ar
    33    33    34    2
    34    33    35   ar
    35    27    23   ar
    36    35    28   ar
    37     8     2    1
    38     7     5    1
    39    14     9   ar
@<TRIPOS>MOLECULE
*****
 35 39 0 0 0
SMALL
GASTEIGER

@<TRIPOS>ATOM
      1 C          -3.5052  -17.5662   18.7351 C.3     1  UNL1        0.0730
      2 N          -4.1202  -18.8185   19.2860 N.3     1  UNL1       -0.2726
      3 C          -3.5016  -20.1849   19.2713 C.3     1  UNL1        0.0721
      4 C          -4.4609  -21.1351   19.9246 C.3     1  UNL1        0.0190
      5 C          -5.6724  -20.3559   20.3432 C.3     1  UNL1        0.0201
      6 C          -6.4107  -21.5199   20.9349 C.3     1  UNL1        0.0061
      7 C          -7.0293  -20.1535   20.9497 C.3     1  UNL1        0.0237
      8 C          -5.4618  -18.9242   19.9485 C.3     1  UNL1        0.0724
      9 C          -8.1699  -19.2477   21.3083 C.ar    1  UNL1       -0.0225
     10 C          -8.3136  -18.7431   22.7136 C.ar    1  UNL1       -0.0043
     11 C          -9.4542  -17.8373   23.0722 C.ar    1  UNL1        0.0035
     12 C         -10.4510  -17.4362   22.0256 C.ar    1  UNL1        0.0714
     13 C         -10.3073  -17.9408   20.6204 C.ar    1  UNL1        0.0035
     14 C          -9.1667  -18.8466   20.2617 C.ar    1  UNL1       -0.0043
     15 C         -11.5916  -16.5304   22.3843 C.3     1  UNL1        0.4186
     16 F         -12.7322  -15.6246   22.7430 F       1  UNL1       -0.1659
     17 F         -10.7525  -15.8976   23.4546 F       1  UNL1       -0.1659
     18 F         -12.4306  -17.1631   21.3140 F       1  UNL1       -0.1659
     19 C          -2.0654  -17.5600   18.3144 C.3     1  UNL1        0.0294
     20 C          -0.9957  -17.2099   19.3060 C.3     1  UNL1        0.0666
     21 S          -0.7306  -18.1134   20.4736 S.3     1  UNL1       -0.0756
     22 C          -2.3792  -15.7278   21.9705 C.3     1  UNL1        0.1340
     23 N          -2.5338  -17.1985   22.2219 N.ar    1  UNL1       -0.2884
     24 C          -1.7760  -18.2950   21.5339 C.ar    1  UNL1        0.1932
     25 N          -2.2472  -19.6051   22.0922 N.ar    1  UNL1       -0.1221
     26 N          -3.2962  -19.3182   23.1253 N.ar    1  UNL1       -0.1282
     27 C          -3.4733  -17.8308   23.2055 C.ar    1  UNL1        0.1670
     28 C          -4.4232  -17.1036   24.1104 C.ar    1  UNL1        0.0422
     29 C          -4.1718  -17.0677   25.5888 C.ar    1  UNL1        0.0219
     30 C          -5.1216  -16.3404   26.4937 C.ar    1  UNL1        0.0785
     31 N          -6.3230  -15.6490   25.9201 N.ar    1  UNL1       -0.2922
     32 C          -7.2728  -14.9217   26.8250 C.3     1  UNL1        0.1336
     33 C          -6.5744  -15.6849   24.4418 C.ar    1  UNL1        0.2611
     34 O          -7.7757  -14.9935   23.8683 O.2     1  UNL1       -0.2670
     35 C          -5.6245  -16.4122   23.5369 C.ar    1  UNL1        0.0638
@<TRIPOS>BOND
     1    22    23    1
     2    23    24   ar
     3    24    21    1
     4    21    20    1
     5    20    19    1
     6    19     1    1
     7     1     2    1
     8     2     3    1
     9     3     4    1
    10     5     4    1
    11     5     6    1
    12     6     7    1
    13     7     9    1
    14     9    10   ar
    15    10    11   ar
    16    11    12   ar
    17    12    15    1
    18    15    16    1
    19    15    17    1
    20    15    18    1
    21    12    13   ar
    22    13    14   ar
    23     5     8    1
    24    24    25   ar
    25    25    26   ar
    26    26    27   ar
    27    27    28    1
    28    28    29   ar
    29    29    30   ar
    30    30    31   ar
    31    31    32    1
    32    31    33   ar
    33    33    34    2
    34    33    35   ar
    35    27    23   ar
    36    35    28   ar
    37     8     2    1
    38     7     5    1
    39    14     9   ar
@<TRIPOS>MOLECULE
*****
 35 39 0 0 0
SMALL
GASTEIGER

@<TRIPOS>ATOM
      1 C           6.5417   -3.1126   26.7677 C.3     1  UNL1        0.0730
      2 N           6.7832   -4.0491   27.9143 N.3     1  UNL1       -0.2726
      3 C           7.2057   -5.4843   27.8065 C.3     1  UNL1        0.0721
      4 C           7.3281   -6.0371   29.1955 C.3     1  UNL1        0.0190
      5 C           6.9813   -4.9435   30.1618 C.3     1  UNL1        0.0201
      6 C           7.1851   -5.7605   31.4031 C.3     1  UNL1        0.0061
      7 C           6.7626   -4.3253   31.5110 C.3     1  UNL1        0.0237
      8 C           6.6445   -3.7148   29.3700 C.3     1  UNL1        0.0724
      9 C           6.3924   -3.1398   32.3521 C.ar    1  UNL1       -0.0225
     10 C           4.9952   -3.0018   32.8802 C.ar    1  UNL1       -0.0043
     11 C           4.6251   -1.8163   33.7213 C.ar    1  UNL1        0.0035
     12 C           5.6521   -0.7688   34.0344 C.ar    1  UNL1        0.0714
     13 C           7.0493   -0.9069   33.5063 C.ar    1  UNL1        0.0035
     14 C           7.4194   -2.0924   32.6652 C.ar    1  UNL1       -0.0043
     15 C           5.2819    0.4167   34.8755 C.3     1  UNL1        0.4186
     16 F           4.9117    1.6022   35.7168 F       1  UNL1       -0.1659
     17 F           5.4721    1.3167   33.6907 F       1  UNL1       -0.1659
     18 F           5.0917   -0.4834   36.0603 F       1  UNL1       -0.1659
     19 C           7.1181   -3.4167   25.4167 C.3     1  UNL1        0.0294
     20 C           6.2387   -3.9647   24.3321 C.3     1  UNL1        0.0666
     21 S           6.6248   -3.7893   22.8933 S.3     1  UNL1       -0.0756
     22 C           5.2662   -0.8726   22.3485 C.3     1  UNL1        0.1340
     23 N           4.9500   -2.1431   21.6166 N.ar    1  UNL1       -0.2884
     24 C           5.5744   -3.4837   21.8669 C.ar    1  UNL1        0.1932
     25 N           4.9641   -4.4653   20.9108 N.ar    1  UNL1       -0.1221
     26 N           3.9625   -3.7312   20.0695 N.ar    1  UNL1       -0.1282
     27 C           3.9537   -2.2960   20.5056 C.ar    1  UNL1        0.1670
     28 C           3.0988   -1.2053   19.9316 C.ar    1  UNL1        0.0422
     29 C           3.5641   -0.4434   18.7262 C.ar    1  UNL1        0.0219
     30 C           2.7092    0.6473   18.1522 C.ar    1  UNL1        0.0785
     31 N           1.3889    0.9761   18.7837 N.ar    1  UNL1       -0.2922
     32 C           0.5340    2.0668   18.2098 C.3     1  UNL1        0.1336
     33 C           0.9235    0.2143   19.9892 C.ar    1  UNL1        0.2611
     34 O          -0.3967    0.5432   20.6206 O.2     1  UNL1       -0.2670
     35 C           1.7785   -0.8764   20.5631 C.ar    1  UNL1        0.0638
@<TRIPOS>BOND
     1    22    23    1
     2    23    24   ar
     3    24    21    1
     4    21    20    1
     5    20    19    1
     6    19     1    1
     7     1     2    1
     8     2     3    1
     9     3     4    1
    10     5     4    1
    11     5     6    1
    12     6     7    1
    13     7     9    1
    14     9    10   ar
    15    10    11   ar
    16    11    12   ar
    17    12    15    1
    18    15    16    1
    19    15    17    1
    20    15    18    1
    21    12    13   ar
    22    13    14   ar
    23     5     8    1
    24    24    25   ar
    25    25    26   ar
    26    26    27   ar
    27    27    28    1
    28    28    29   ar
    29    29    30   ar
    30    30    31   ar
    31    31    32    1
    32    31    33   ar
    33    33    34    2
    34    33    35   ar
    35    27    23   ar
    36    35    28   ar
    37     8     2    1
    38     7     5    1
    39    14     9   ar
@<TRIPOS>MOLECULE
*****
 35 39 0 0 0
SMALL
GASTEIGER

@<TRIPOS>ATOM
      1 C           5.0101    2.7676   18.8301 C.3     1  UNL1        0.0730
      2 N           3.8367    1.8583   19.0453 N.3     1  UNL1       -0.2726
      3 C           2.5398    1.8993   18.2926 C.3     1  UNL1        0.0721
      4 C           1.6558    0.8148   18.8332 C.3     1  UNL1        0.0190
      5 C           2.4062    0.1035   19.9200 C.3     1  UNL1        0.0201
      6 C           1.3177   -0.8751   20.2477 C.3     1  UNL1        0.0061
      7 C           2.6145   -0.9160   21.0003 C.3     1  UNL1        0.0237
      8 C           3.7541    0.7485   20.0510 C.3     1  UNL1        0.0724
      9 C           3.4835   -1.5283   22.0586 C.ar    1  UNL1       -0.0225
     10 C           3.6001   -0.8751   23.4039 C.ar    1  UNL1       -0.0043
     11 C           4.4691   -1.4873   24.4621 C.ar    1  UNL1        0.0035
     12 C           5.2215   -2.7528   24.1751 C.ar    1  UNL1        0.0714
     13 C           5.1050   -3.4060   22.8298 C.ar    1  UNL1        0.0035
     14 C           4.2360   -2.7937   21.7715 C.ar    1  UNL1       -0.0043
     15 C           6.0906   -3.3650   25.2334 C.3     1  UNL1        0.4186
     16 F           6.9596   -3.9774   26.2917 F       1  UNL1       -0.1659
     17 F           5.9368   -2.1317   26.0731 F       1  UNL1       -0.1659
     18 F           6.2443   -4.5984   24.3936 F       1  UNL1       -0.1659
     19 C           5.3471    3.2427   17.4478 C.3     1  UNL1        0.0294
     20 C           6.5664    2.7165   16.7502 C.3     1  UNL1        0.0666
     21 S           6.5861    1.3082   16.2342 S.3     1  UNL1       -0.0756
     22 C           8.6284    0.5846   18.6745 C.3     1  UNL1        0.1340
     23 N           7.3872   -0.1743   18.3091 N.ar    1  UNL1       -0.2884
     24 C           6.4485    0.1583   17.1875 C.ar    1  UNL1        0.1932
     25 N           5.3479   -0.8609   17.1864 N.ar    1  UNL1       -0.1221
     26 N           5.6064   -1.8235   18.3074 N.ar    1  UNL1       -0.1282
     27 C           6.8668   -1.3992   19.0013 C.ar    1  UNL1        0.1670
     28 C           7.4962   -2.0801   20.1804 C.ar    1  UNL1        0.0422
     29 C           7.9745   -1.2688   21.3478 C.ar    1  UNL1        0.0219
     30 C           8.6039   -1.9497   22.5269 C.ar    1  UNL1        0.0785
     31 N           8.7550   -3.4421   22.5384 N.ar    1  UNL1       -0.2922
     32 C           9.3844   -4.1231   23.7174 C.3     1  UNL1        0.1336
     33 C           8.2768   -4.2535   21.3709 C.ar    1  UNL1        0.2611
     34 O           8.4279   -5.7458   21.3825 O.2     1  UNL1       -0.2670
     35 C           7.6474   -3.5724   20.1919 C.ar    1  UNL1        0.0638
@<TRIPOS>BOND
     1    22    23    1
     2    23    24   ar
     3    24    21    1
     4    21    20    1
     5    20    19    1
     6    19     1    1
     7     1     2    1
     8     2     3    1
     9     3     4    1
    10     5     4    1
    11     5     6    1
    12     6     7    1
    13     7     9    1
    14     9    10   ar
    15    10    11   ar
    16    11    12   ar
    17    12    15    1
    18    15    16    1
    19    15    17    1
    20    15    18    1
    21    12    13   ar
    22    13    14   ar
    23     5     8    1
    24    24    25   ar
    25    25    26   ar
    26    26    27   ar
    27    27    28    1
    28    28    29   ar
    29    29    30   ar
    30    30    31   ar
    31    31    32    1
    32    31    33   ar
    33    33    34    2
    34    33    35   ar
    35    27    23   ar
    36    35    28   ar
    37     8     2    1
    38     7     5    1
    39    14     9   ar
@<TRIPOS>MOLECULE
*****
 35 39 0 0 0
SMALL
GASTEIGER

@<TRIPOS>ATOM
      1 C           6.6144    0.5562   18.5514 C.3     1  UNL1        0.0730
      2 N           5.1732    0.2138   18.7877 N.3     1  UNL1       -0.2726
      3 C           4.0880    0.2043   17.7522 C.3     1  UNL1        0.0721
      4 C           2.8084   -0.1946   18.4256 C.3     1  UNL1        0.0190
      5 C           3.1027   -0.4315   19.8772 C.3     1  UNL1        0.0201
      6 C           1.7002   -0.7968   20.2640 C.3     1  UNL1        0.0061
      7 C           2.7854   -0.7872   21.2995 C.3     1  UNL1        0.0237
      8 C           4.5643   -0.1791   20.1010 C.3     1  UNL1        0.0724
      9 C           3.2288   -0.9870   22.7184 C.ar    1  UNL1       -0.0225
     10 C           2.6982   -0.0963   23.8025 C.ar    1  UNL1       -0.0043
     11 C           3.1416   -0.2961   25.2215 C.ar    1  UNL1        0.0035
     12 C           4.1156   -1.3867   25.5564 C.ar    1  UNL1        0.0714
     13 C           4.6462   -2.2773   24.4723 C.ar    1  UNL1        0.0035
     14 C           4.2028   -2.0775   23.0533 C.ar    1  UNL1       -0.0043
     15 C           4.5590   -1.5865   26.9753 C.3     1  UNL1        0.4186
     16 F           5.0024   -1.7863   28.3943 F       1  UNL1       -0.1659
     17 F           3.1313   -1.5208   27.4307 F       1  UNL1       -0.1659
     18 F           5.9867   -1.6521   26.5200 F       1  UNL1       -0.1659
     19 C           7.6447   -0.5325   18.4967 C.3     1  UNL1        0.0294
     20 C           8.6495   -0.6706   19.6018 C.3     1  UNL1        0.0666
     21 S           8.1875   -0.8598   21.0163 S.3     1  UNL1       -0.0756
     22 C           9.1702   -2.4025   23.7188 C.3     1  UNL1        0.1340
     23 N           8.1752   -2.9180   22.7217 N.ar    1  UNL1       -0.2884
     24 C           7.7235   -2.2089   21.4795 C.ar    1  UNL1        0.1932
     25 N           6.7264   -3.0858   20.7818 N.ar    1  UNL1       -0.1221
     26 N           6.5618   -4.3368   21.5928 N.ar    1  UNL1       -0.1282
     27 C           7.4572   -4.2332   22.7918 C.ar    1  UNL1        0.1670
     28 C           7.6082   -5.2638   23.8712 C.ar    1  UNL1        0.0422
     29 C           8.4355   -6.4908   23.6263 C.ar    1  UNL1        0.0219
     30 C           8.5864   -7.5213   24.7058 C.ar    1  UNL1        0.0785
     31 N           7.9100   -7.3247   26.0302 N.ar    1  UNL1       -0.2922
     32 C           8.0609   -8.3553   27.1096 C.3     1  UNL1        0.1336
     33 C           7.0827   -6.0977   26.2751 C.ar    1  UNL1        0.2611
     34 O           6.4064   -5.9012   27.5994 O.2     1  UNL1       -0.2670
     35 C           6.9318   -5.0672   25.1955 C.ar    1  UNL1        0.0638
@<TRIPOS>BOND
     1    22    23    1
     2    23    24   ar
     3    24    21    1
     4    21    20    1
     5    20    19    1
     6    19     1    1
     7     1     2    1
     8     2     3    1
     9     3     4    1
    10     5     4    1
    11     5     6    1
    12     6     7    1
    13     7     9    1
    14     9    10   ar
    15    10    11   ar
    16    11    12   ar
    17    12    15    1
    18    15    16    1
    19    15    17    1
    20    15    18    1
    21    12    13   ar
    22    13    14   ar
    23     5     8    1
    24    24    25   ar
    25    25    26   ar
    26    26    27   ar
    27    27    28    1
    28    28    29   ar
    29    29    30   ar
    30    30    31   ar
    31    31    32    1
    32    31    33   ar
    33    33    34    2
    34    33    35   ar
    35    27    23   ar
    36    35    28   ar
    37     8     2    1
    38     7     5    1
    39    14     9   ar
@<TRIPOS>MOLECULE
*****
 35 39 0 0 0
SMALL
GASTEIGER

@<TRIPOS>ATOM
      1 C          -1.6074    5.7632   17.8517 C.3     1  UNL1        0.0730
      2 N          -2.8967    4.9966   17.8471 N.3     1  UNL1       -0.2726
      3 C          -3.5748    4.4192   16.6401 C.3     1  UNL1        0.0721
      4 C          -4.8314    3.7386   17.0957 C.3     1  UNL1        0.0190
      5 C          -4.9300    3.8953   18.5843 C.3     1  UNL1        0.0201
      6 C          -6.2225    3.1493   18.7353 C.3     1  UNL1        0.0061
      7 C          -5.5444    3.7267   19.9422 C.3     1  UNL1        0.0237
      8 C          -3.7342    4.6729   19.0486 C.3     1  UNL1        0.0724
      9 C          -5.5077    3.9628   21.4231 C.ar    1  UNL1       -0.0225
     10 C          -6.3520    5.0430   22.0315 C.ar    1  UNL1       -0.0043
     11 C          -6.3152    5.2791   23.5124 C.ar    1  UNL1        0.0035
     12 C          -5.4341    4.4349   24.3847 C.ar    1  UNL1        0.0714
     13 C          -4.5898    3.3546   23.7763 C.ar    1  UNL1        0.0035
     14 C          -4.6266    3.1186   22.2954 C.ar    1  UNL1       -0.0043
     15 C          -5.3974    4.6709   25.8656 C.3     1  UNL1        0.4186
     16 F          -5.3606    4.9070   27.3465 F       1  UNL1       -0.1659
     17 F          -4.5271    3.4613   26.0368 F       1  UNL1       -0.1659
     18 F          -6.2677    5.8806   25.6944 F       1  UNL1       -0.1659
     19 C          -0.3632    5.1416   17.2900 C.3     1  UNL1        0.0294
     20 C           0.1680    3.8664   17.8747 C.3     1  UNL1        0.0666
     21 S           0.1987    3.6791   19.3626 S.3     1  UNL1       -0.0756
     22 C           3.0529    2.1115   19.5754 C.3     1  UNL1        0.1340
     23 N           1.7247    1.5917   20.0400 N.ar    1  UNL1       -0.2884
     24 C           0.4128    2.3123   19.9421 C.ar    1  UNL1        0.1932
     25 N          -0.6475    1.4261   20.5256 N.ar    1  UNL1       -0.1221
     26 N           0.0092    0.1578   20.9841 N.ar    1  UNL1       -0.1282
     27 C           1.4753    0.2601   20.6839 C.ar    1  UNL1        0.1670
     28 C           2.5102   -0.7856   20.9764 C.ar    1  UNL1        0.0422
     29 C           3.0422   -0.9452   22.3698 C.ar    1  UNL1        0.0219
     30 C           4.0772   -1.9909   22.6622 C.ar    1  UNL1        0.0785
     31 N           4.5801   -2.8769   21.5612 N.ar    1  UNL1       -0.2922
     32 C           5.6150   -3.9225   21.8536 C.3     1  UNL1        0.1336
     33 C           4.0481   -2.7172   20.1678 C.ar    1  UNL1        0.2611
     34 O           4.5510   -3.6032   19.0669 O.2     1  UNL1       -0.2670
     35 C           3.0131   -1.6715   19.8754 C.ar    1  UNL1        0.0638
@<TRIPOS>BOND
     1    22    23    1
     2    23    24   ar
     3    24    21    1
     4    21    20    1
     5    20    19    1
     6    19     1    1
     7     1     2    1
     8     2     3    1
     9     3     4    1
    10     5     4    1
    11     5     6    1
    12     6     7    1
    13     7     9    1
    14     9    10   ar
    15    10    11   ar
    16    11    12   ar
    17    12    15    1
    18    15    16    1
    19    15    17    1
    20    15    18    1
    21    12    13   ar
    22    13    14   ar
    23     5     8    1
    24    24    25   ar
    25    25    26   ar
    26    26    27   ar
    27    27    28    1
    28    28    29   ar
    29    29    30   ar
    30    30    31   ar
    31    31    32    1
    32    31    33   ar
    33    33    34    2
    34    33    35   ar
    35    27    23   ar
    36    35    28   ar
    37     8     2    1
    38     7     5    1
    39    14     9   ar
@<TRIPOS>MOLECULE
*****
 35 39 0 0 0
SMALL
GASTEIGER

@<TRIPOS>ATOM
      1 C           4.3160    4.3536   20.3809 C.3     1  UNL1        0.0730
      2 N           3.5496    3.5766   21.4100 N.3     1  UNL1       -0.2726
      3 C           2.8116    4.1538   22.5813 C.3     1  UNL1        0.0721
      4 C           2.1927    3.0199   23.3436 C.3     1  UNL1        0.0190
      5 C           2.5482    1.7419   22.6434 C.3     1  UNL1        0.0201
      6 C           1.8233    0.8355   23.5936 C.3     1  UNL1        0.0061
      7 C           2.5613    0.2583   22.4223 C.3     1  UNL1        0.0237
      8 C           3.3869    2.0859   21.4483 C.3     1  UNL1        0.0724
      9 C           2.9951   -0.9315   21.6184 C.ar    1  UNL1       -0.0225
     10 C           3.9114   -1.9527   22.2246 C.ar    1  UNL1       -0.0043
     11 C           4.3451   -3.1424   21.4207 C.ar    1  UNL1        0.0035
     12 C           3.8625   -3.3110   20.0105 C.ar    1  UNL1        0.0714
     13 C           2.9462   -2.2898   19.4042 C.ar    1  UNL1        0.0035
     14 C           2.5124   -1.1000   20.2082 C.ar    1  UNL1       -0.0043
     15 C           4.2962   -4.5007   19.2065 C.3     1  UNL1        0.4186
     16 F           4.7300   -5.6906   18.4026 F       1  UNL1       -0.1659
     17 F           2.8961   -4.6647   18.6939 F       1  UNL1       -0.1659
     18 F           5.6963   -4.3368   19.7192 F       1  UNL1       -0.1659
     19 C           3.6219    4.8548   19.1492 C.3     1  UNL1        0.0294
     20 C           2.7435    3.9333   18.3558 C.3     1  UNL1        0.0666
     21 S           1.2527    4.0922   18.4039 S.3     1  UNL1       -0.0756
     22 C          -0.3869    5.5703   20.8073 C.3     1  UNL1        0.1340
     23 N          -0.2934    4.0899   20.5844 N.ar    1  UNL1       -0.2884
     24 C           0.4602    3.4105   19.4797 C.ar    1  UNL1        0.1932
     25 N           0.2823    1.9297   19.6396 N.ar    1  UNL1       -0.1221
     26 N          -0.5813    1.6939   20.8431 N.ar    1  UNL1       -0.1282
     27 C          -0.9372    3.0289   21.4271 C.ar    1  UNL1        0.1670
     28 C          -1.7875    3.2621   22.6407 C.ar    1  UNL1        0.0422
     29 C          -3.2152    3.6945   22.4843 C.ar    1  UNL1        0.0219
     30 C          -4.0655    3.9277   23.6978 C.ar    1  UNL1        0.0785
     31 N          -3.4879    3.7284   25.0678 N.ar    1  UNL1       -0.2922
     32 C          -4.3381    3.9616   26.2813 C.3     1  UNL1        0.1336
     33 C          -2.0601    3.2960   25.2242 C.ar    1  UNL1        0.2611
     34 O          -1.4826    3.0968   26.5941 O.2     1  UNL1       -0.2670
     35 C          -1.2099    3.0629   24.0106 C.ar    1  UNL1        0.0638
@<TRIPOS>BOND
     1    22    23    1
     2    23    24   ar
     3    24    21    1
     4    21    20    1
     5    20    19    1
     6    19     1    1
     7     1     2    1
     8     2     3    1
     9     3     4    1
    10     5     4    1
    11     5     6    1
    12     6     7    1
    13     7     9    1
    14     9    10   ar
    15    10    11   ar
    16    11    12   ar
    17    12    15    1
    18    15    16    1
    19    15    17    1
    20    15    18    1
    21    12    13   ar
    22    13    14   ar
    23     5     8    1
    24    24    25   ar
    25    25    26   ar
    26    26    27   ar
    27    27    28    1
    28    28    29   ar
    29    29    30   ar
    30    30    31   ar
    31    31    32    1
    32    31    33   ar
    33    33    34    2
    34    33    35   ar
    35    27    23   ar
    36    35    28   ar
    37     8     2    1
    38     7     5    1
    39    14     9   ar
@<TRIPOS>MOLECULE
*****
 35 39 0 0 0
SMALL
GASTEIGER

@<TRIPOS>ATOM
      1 C           7.0195   -4.7706   24.3367 C.3     1  UNL1        0.0730
      2 N           7.5347   -5.8294   25.2659 N.3     1  UNL1       -0.2726
      3 C           7.9141   -7.2293   24.8836 C.3     1  UNL1        0.0721
      4 C           8.3749   -7.9392   26.1221 C.3     1  UNL1        0.0190
      5 C           8.2803   -6.9780   27.2697 C.3     1  UNL1        0.0201
      6 C           8.7828   -7.9305   28.3138 C.3     1  UNL1        0.0061
      7 C           8.4035   -6.5305   28.6961 C.3     1  UNL1        0.0237
      8 C           7.7610   -5.6740   26.7406 C.3     1  UNL1        0.0724
      9 C           8.2555   -5.4639   29.7404 C.ar    1  UNL1       -0.0225
     10 C           7.0040   -5.3889   30.5638 C.ar    1  UNL1       -0.0043
     11 C           6.8561   -4.3223   31.6080 C.ar    1  UNL1        0.0035
     12 C           7.9596   -3.3307   31.8288 C.ar    1  UNL1        0.0714
     13 C           9.2112   -3.4056   31.0053 C.ar    1  UNL1        0.0035
     14 C           9.3591   -4.4723   29.9611 C.ar    1  UNL1       -0.0043
     15 C           7.8117   -2.2640   32.8730 C.3     1  UNL1        0.4186
     16 F           7.6638   -1.1974   33.9173 F       1  UNL1       -0.1659
     17 F           6.3697   -2.0950   32.4960 F       1  UNL1       -0.1659
     18 F           9.2537   -2.4331   33.2500 F       1  UNL1       -0.1659
     19 C           7.9380   -4.1455   23.3289 C.3     1  UNL1        0.0294
     20 C           8.1055   -4.7722   21.9764 C.3     1  UNL1        0.0666
     21 S           7.8784   -3.9562   20.7384 S.3     1  UNL1       -0.0756
     22 C           6.5485   -0.9925   20.4262 C.3     1  UNL1        0.1340
     23 N           5.8695   -2.2985   20.1375 N.ar    1  UNL1       -0.2884
     24 C           6.4808   -3.6608   20.2810 C.ar    1  UNL1        0.1932
     25 N           5.4490   -4.6757   19.8867 N.ar    1  UNL1       -0.1221
     26 N           4.2001   -3.9407   19.4995 N.ar    1  UNL1       -0.1282
     27 C           4.4599   -2.4715   19.6545 C.ar    1  UNL1        0.1670
     28 C           3.4819   -1.3689   19.3755 C.ar    1  UNL1        0.0422
     29 C           3.7568   -0.3819   18.2799 C.ar    1  UNL1        0.0219
     30 C           2.7788    0.7206   18.0009 C.ar    1  UNL1        0.0785
     31 N           1.5258    0.8362   18.8175 N.ar    1  UNL1       -0.2922
     32 C           0.5478    1.9387   18.5385 C.3     1  UNL1        0.1336
     33 C           1.2509   -0.1508   19.9131 C.ar    1  UNL1        0.2611
     34 O          -0.0020   -0.0352   20.7297 O.2     1  UNL1       -0.2670
     35 C           2.2290   -1.2534   20.1921 C.ar    1  UNL1        0.0638
@<TRIPOS>BOND
     1    22    23    1
     2    23    24   ar
     3    24    21    1
     4    21    20    1
     5    20    19    1
     6    19     1    1
     7     1     2    1
     8     2     3    1
     9     3     4    1
    10     5     4    1
    11     5     6    1
    12     6     7    1
    13     7     9    1
    14     9    10   ar
    15    10    11   ar
    16    11    12   ar
    17    12    15    1
    18    15    16    1
    19    15    17    1
    20    15    18    1
    21    12    13   ar
    22    13    14   ar
    23     5     8    1
    24    24    25   ar
    25    25    26   ar
    26    26    27   ar
    27    27    28    1
    28    28    29   ar
    29    29    30   ar
    30    30    31   ar
    31    31    32    1
    32    31    33   ar
    33    33    34    2
    34    33    35   ar
    35    27    23   ar
    36    35    28   ar
    37     8     2    1
    38     7     5    1
    39    14     9   ar
