@<TRIPOS>MOLECULE
*****
 27 32 0 0 0
SMALL
GASTEIGER

@<TRIPOS>ATOM
      1 O          -5.1910  -14.7396   25.5312 O.2     1  UNL1       -0.2923
      2 C          -5.9996  -15.6069   24.6125 C.2     1  UNL1        0.1907
      3 C          -7.4836  -15.4135   24.5114 C.3     1  UNL1        0.0708
      4 C          -8.2921  -16.2808   23.5928 C.3     1  UNL1        0.0366
      5 C          -7.6167  -17.3415   22.7751 C.3     1  UNL1        0.1094
      6 O          -9.0380  -16.8845   22.9197 O.3     1  UNL1       -0.3850
      7 C          -8.4253  -18.2089   21.8565 C.3     1  UNL1        0.0870
      8 C          -7.7498  -19.2696   21.0389 C.3     1  UNL1        0.0445
      9 C          -6.2658  -19.4631   21.1399 C.ar    1  UNL1       -0.0214
     10 C          -5.5903  -20.5238   20.3223 C.ar    1  UNL1       -0.0012
     11 C          -4.1062  -20.7173   20.4233 C.ar    1  UNL1        0.0394
     12 C          -3.2977  -19.8500   21.3420 C.ar    1  UNL1        0.1674
     13 O          -1.8137  -20.0434   21.4430 O.3     1  UNL1       -0.5029
     14 C          -3.9732  -18.7892   22.1596 C.ar    1  UNL1        0.1682
     15 C          -5.4572  -18.5958   22.0586 C.ar    1  UNL1        0.0164
     16 C          -6.1327  -17.5350   22.8762 C.3     1  UNL1        0.0902
     17 C          -6.4607  -18.0883   22.3246 C.3     1  UNL1        0.0277
     18 C          -7.3465  -17.7658   22.4481 C.3     1  UNL1        0.0727
     19 N          -7.6070  -18.4253   21.8148 N.3     1  UNL1       -0.2716
     20 C          -5.3241  -16.6676   23.7949 C.3     1  UNL1        0.2283
     21 O          -3.9996  -17.2971   23.4795 O.3     1  UNL1       -0.4686
     22 H          -9.6088  -17.4160   22.3429 H       1  UNL1        0.2103
     23 H          -1.3917  -20.7061   20.9323 H       1  UNL1        0.2923
     24 C         -10.5848  -16.9546   22.5731 C.3     1  UNL1        0.0721
     25 C         -11.0380  -16.8412   21.1477 C.3     1  UNL1        0.0160
     26 C         -11.4374  -17.4908   19.8560 C.3     1  UNL1        0.0014
     27 C         -11.4238  -15.9952   19.9706 C.3     1  UNL1        0.0014
@<TRIPOS>BOND
     1     1     2    2
     2     2     3    1
     3     3     4    1
     4     4     5    1
     5     5     6    1
     6     5     7    1
     7     7     8    1
     8     8     9    1
     9     9    10   ar
    10    10    11   ar
    11    11    12   ar
    12    12    13    1
    13    12    14   ar
    14    14    15   ar
    15    15    16    1
    16    16    17    1
    17    17    18    1
    18    18    19    1
    19    19    24    1
    20    24    25    1
    21    25    26    1
    22    26    27    1
    23    16    20    1
    24    20    21    1
    25    20     2    1
    26    16     5    1
    27    27    25    1
    28    19     7    1
    29    15     9   ar
    30    21    14    1
    31     6    22    1
    32    13    23    1
@<TRIPOS>MOLECULE
*****
 27 32 0 0 0
SMALL
GASTEIGER

@<TRIPOS>ATOM
      1 O          -5.2639  -14.6583   25.3764 O.2     1  UNL1       -0.2923
      2 C          -6.2151  -15.4505   24.5292 C.2     1  UNL1        0.1907
      3 C          -7.6786  -15.1217   24.5369 C.3     1  UNL1        0.0708
      4 C          -8.6298  -15.9138   23.6897 C.3     1  UNL1        0.0366
      5 C          -8.1175  -17.0347   22.8347 C.3     1  UNL1        0.1094
      6 O          -9.4762  -16.4484   23.0800 O.3     1  UNL1       -0.3850
      7 C          -9.0686  -17.8268   21.9875 C.3     1  UNL1        0.0870
      8 C          -8.5564  -18.9478   21.1325 C.3     1  UNL1        0.0445
      9 C          -7.0928  -19.2766   21.1247 C.ar    1  UNL1       -0.0214
     10 C          -6.5805  -20.3975   20.2697 C.ar    1  UNL1       -0.0012
     11 C          -5.1170  -20.7264   20.2620 C.ar    1  UNL1        0.0394
     12 C          -4.1658  -19.9343   21.1092 C.ar    1  UNL1        0.1674
     13 O          -2.7023  -20.2631   21.1015 O.3     1  UNL1       -0.5029
     14 C          -4.6782  -18.8133   21.9642 C.ar    1  UNL1        0.1682
     15 C          -6.1416  -18.4845   21.9720 C.ar    1  UNL1        0.0164
     16 C          -6.6540  -17.3635   22.8270 C.3     1  UNL1        0.0902
     17 C          -7.0718  -17.8861   22.3069 C.3     1  UNL1        0.0277
     18 C          -7.9126  -17.4831   22.4927 C.3     1  UNL1        0.0727
     19 N          -8.2791  -18.1177   21.8871 N.3     1  UNL1       -0.2716
     20 C          -5.7028  -16.5714   23.6742 C.3     1  UNL1        0.2283
     21 O          -4.4689  -17.3210   23.2674 O.3     1  UNL1       -0.4686
     22 H         -10.1348  -16.9269   22.5527 H       1  UNL1        0.2103
     23 H          -2.3823  -20.9633   20.5674 H       1  UNL1        0.2923
     24 C         -11.0445  -16.3771   22.8502 C.3     1  UNL1        0.0721
     25 C         -11.7227  -17.5552   23.4843 C.3     1  UNL1        0.0160
     26 C         -12.9786  -18.2906   23.8475 C.3     1  UNL1        0.0014
     27 C         -11.6416  -18.8603   24.2192 C.3     1  UNL1        0.0014
@<TRIPOS>BOND
     1     1     2    2
     2     2     3    1
     3     3     4    1
     4     4     5    1
     5     5     6    1
     6     5     7    1
     7     7     8    1
     8     8     9    1
     9     9    10   ar
    10    10    11   ar
    11    11    12   ar
    12    12    13    1
    13    12    14   ar
    14    14    15   ar
    15    15    16    1
    16    16    17    1
    17    17    18    1
    18    18    19    1
    19    19    24    1
    20    24    25    1
    21    25    26    1
    22    26    27    1
    23    16    20    1
    24    20    21    1
    25    20     2    1
    26    16     5    1
    27    27    25    1
    28    19     7    1
    29    15     9   ar
    30    21    14    1
    31     6    22    1
    32    13    23    1
@<TRIPOS>MOLECULE
*****
 27 32 0 0 0
SMALL
GASTEIGER

@<TRIPOS>ATOM
      1 O          -6.2364  -14.8342   25.0323 O.2     1  UNL1       -0.2923
      2 C          -6.0887  -16.0001   24.1001 C.2     1  UNL1        0.1907
      3 C          -4.7623  -16.6866   23.9620 C.3     1  UNL1        0.0708
      4 C          -4.6146  -17.8525   23.0299 C.3     1  UNL1        0.0366
      5 C          -5.7934  -18.3319   22.2358 C.3     1  UNL1        0.1094
      6 O          -4.3623  -18.7682   22.3430 O.3     1  UNL1       -0.3850
      7 C          -5.6458  -19.4978   21.3037 C.3     1  UNL1        0.0870
      8 C          -6.8246  -19.9772   20.5097 C.3     1  UNL1        0.0445
      9 C          -8.1511  -19.2907   20.6478 C.ar    1  UNL1       -0.0214
     10 C          -9.3300  -19.7701   19.8537 C.ar    1  UNL1       -0.0012
     11 C         -10.6565  -19.0836   19.9918 C.ar    1  UNL1        0.0394
     12 C         -10.8042  -17.9177   20.9240 C.ar    1  UNL1        0.1674
     13 O         -12.1307  -17.2312   21.0621 O.3     1  UNL1       -0.5029
     14 C          -9.6253  -17.4383   21.7180 C.ar    1  UNL1        0.1682
     15 C          -8.2988  -18.1248   21.5799 C.ar    1  UNL1        0.0164
     16 C          -7.1199  -17.6454   22.3740 C.3     1  UNL1        0.0902
     17 C          -7.1791  -18.2824   21.8183 C.3     1  UNL1        0.0277
     18 C          -6.2649  -18.5237   21.9182 C.3     1  UNL1        0.0727
     19 N          -6.4420  -19.2086   21.2832 N.3     1  UNL1       -0.2716
     20 C          -7.2675  -16.4795   23.3061 C.3     1  UNL1        0.2283
     21 O          -8.7215  -16.2387   23.0269 O.3     1  UNL1       -0.4686
     22 H          -4.2103  -19.5254   21.7561 H       1  UNL1        0.2103
     23 H         -12.8671  -17.5306   20.5661 H       1  UNL1        0.2923
     24 C          -3.1404  -19.7049   21.9597 C.3     1  UNL1        0.0721
     25 C          -2.6567  -19.1406   20.6567 C.3     1  UNL1        0.0160
     26 C          -1.5832  -18.4742   19.8484 C.3     1  UNL1        0.0014
     27 C          -2.8924  -18.8296   19.2084 C.3     1  UNL1        0.0014
@<TRIPOS>BOND
     1     1     2    2
     2     2     3    1
     3     3     4    1
     4     4     5    1
     5     5     6    1
     6     5     7    1
     7     7     8    1
     8     8     9    1
     9     9    10   ar
    10    10    11   ar
    11    11    12   ar
    12    12    13    1
    13    12    14   ar
    14    14    15   ar
    15    15    16    1
    16    16    17    1
    17    17    18    1
    18    18    19    1
    19    19    24    1
    20    24    25    1
    21    25    26    1
    22    26    27    1
    23    16    20    1
    24    20    21    1
    25    20     2    1
    26    16     5    1
    27    27    25    1
    28    19     7    1
    29    15     9   ar
    30    21    14    1
    31     6    22    1
    32    13    23    1
@<TRIPOS>MOLECULE
*****
 27 32 0 0 0
SMALL
GASTEIGER

@<TRIPOS>ATOM
      1 O          -2.1928  -20.0491   21.5324 O.2     1  UNL1       -0.2923
      2 C          -3.3744  -19.2346   21.9688 C.2     1  UNL1        0.1907
      3 C          -3.2230  -18.2204   23.0635 C.3     1  UNL1        0.0708
      4 C          -4.4046  -17.4059   23.4999 C.3     1  UNL1        0.0366
      5 C          -5.7376  -17.6056   22.8417 C.3     1  UNL1        0.1094
      6 O          -5.2394  -16.7074   23.9349 O.3     1  UNL1       -0.3850
      7 C          -6.9191  -16.7911   23.2781 C.3     1  UNL1        0.0870
      8 C          -8.2521  -16.9909   22.6199 C.3     1  UNL1        0.0445
      9 C          -8.4035  -18.0051   21.5251 C.ar    1  UNL1       -0.0214
     10 C          -9.7364  -18.2049   20.8669 C.ar    1  UNL1       -0.0012
     11 C          -9.8878  -19.2191   19.7721 C.ar    1  UNL1        0.0394
     12 C          -8.7062  -20.0336   19.3357 C.ar    1  UNL1        0.1674
     13 O          -8.8576  -21.0479   18.2410 O.3     1  UNL1       -0.5029
     14 C          -7.3733  -19.8339   19.9940 C.ar    1  UNL1        0.1682
     15 C          -7.2219  -18.8196   21.0887 C.ar    1  UNL1        0.0164
     16 C          -5.8889  -18.6198   21.7470 C.3     1  UNL1        0.0902
     17 C          -6.6301  -18.2352   21.8909 C.3     1  UNL1        0.0277
     18 C          -6.2707  -17.6855   22.5784 C.3     1  UNL1        0.0727
     19 N          -7.1452  -17.3208   22.6565 N.3     1  UNL1       -0.2716
     20 C          -4.7073  -19.4343   21.3106 C.3     1  UNL1        0.2283
     21 O          -5.4361  -20.2166   20.2584 O.3     1  UNL1       -0.4686
     22 H          -5.9685  -16.1542   24.2562 H       1  UNL1        0.2103
     23 H          -9.6902  -21.1727   17.8298 H       1  UNL1        0.2923
     24 C          -5.4348  -15.5771   25.0311 C.3     1  UNL1        0.0721
     25 C          -6.5434  -15.6149   26.0408 C.3     1  UNL1        0.0160
     26 C          -7.0027  -15.7672   27.4606 C.3     1  UNL1        0.0014
     27 C          -8.0043  -15.5282   26.3699 C.3     1  UNL1        0.0014
@<TRIPOS>BOND
     1     1     2    2
     2     2     3    1
     3     3     4    1
     4     4     5    1
     5     5     6    1
     6     5     7    1
     7     7     8    1
     8     8     9    1
     9     9    10   ar
    10    10    11   ar
    11    11    12   ar
    12    12    13    1
    13    12    14   ar
    14    14    15   ar
    15    15    16    1
    16    16    17    1
    17    17    18    1
    18    18    19    1
    19    19    24    1
    20    24    25    1
    21    25    26    1
    22    26    27    1
    23    16    20    1
    24    20    21    1
    25    20     2    1
    26    16     5    1
    27    27    25    1
    28    19     7    1
    29    15     9   ar
    30    21    14    1
    31     6    22    1
    32    13    23    1
@<TRIPOS>MOLECULE
*****
 27 32 0 0 0
SMALL
GASTEIGER

@<TRIPOS>ATOM
      1 O          -8.5161  -20.6995   18.5943 O.2     1  UNL1       -0.2923
      2 C          -8.8763  -19.6825   19.6364 C.2     1  UNL1        0.1907
      3 C         -10.2978  -19.2255   19.7787 C.3     1  UNL1        0.0708
      4 C         -10.6580  -18.2086   20.8208 C.3     1  UNL1        0.0366
      5 C          -9.5966  -17.6486   21.7207 C.3     1  UNL1        0.1094
      6 O         -11.0739  -17.4255   21.5875 O.3     1  UNL1       -0.3850
      7 C          -9.9567  -16.6316   22.7629 C.3     1  UNL1        0.0870
      8 C          -8.8953  -16.0717   23.6627 C.3     1  UNL1        0.0445
      9 C          -7.4737  -16.5287   23.5205 C.ar    1  UNL1       -0.0214
     10 C          -6.4123  -15.9687   24.4204 C.ar    1  UNL1       -0.0012
     11 C          -4.9906  -16.4257   24.2781 C.ar    1  UNL1        0.0394
     12 C          -4.6305  -17.4427   23.2360 C.ar    1  UNL1        0.1674
     13 O          -3.2089  -17.8997   23.0937 O.3     1  UNL1       -0.5029
     14 C          -5.6920  -18.0026   22.3361 C.ar    1  UNL1        0.1682
     15 C          -7.1135  -17.5456   22.4783 C.ar    1  UNL1        0.0164
     16 C          -8.1750  -18.1056   21.5784 C.3     1  UNL1        0.0902
     17 C          -8.2353  -17.5340   22.2010 C.3     1  UNL1        0.0277
     18 C          -9.1720  -17.4246   22.0807 C.3     1  UNL1        0.0727
     19 N          -9.1261  -16.7970   22.7932 N.3     1  UNL1       -0.2716
     20 C          -7.8149  -19.1226   20.5363 C.3     1  UNL1        0.2283
     21 O          -6.3515  -19.1698   20.8624 O.3     1  UNL1       -0.4686
     22 H         -11.3625  -16.7714   22.2430 H       1  UNL1        0.2103
     23 H          -2.5459  -17.5499   23.6558 H       1  UNL1        0.2923
     24 C         -12.4397  -16.7346   22.0052 C.3     1  UNL1        0.0721
     25 C         -12.8690  -17.5430   23.1936 C.3     1  UNL1        0.0160
     26 C         -12.5333  -18.4705   24.3236 C.3     1  UNL1        0.0014
     27 C         -13.9483  -18.0155   24.1219 C.3     1  UNL1        0.0014
@<TRIPOS>BOND
     1     1     2    2
     2     2     3    1
     3     3     4    1
     4     4     5    1
     5     5     6    1
     6     5     7    1
     7     7     8    1
     8     8     9    1
     9     9    10   ar
    10    10    11   ar
    11    11    12   ar
    12    12    13    1
    13    12    14   ar
    14    14    15   ar
    15    15    16    1
    16    16    17    1
    17    17    18    1
    18    18    19    1
    19    19    24    1
    20    24    25    1
    21    25    26    1
    22    26    27    1
    23    16    20    1
    24    20    21    1
    25    20     2    1
    26    16     5    1
    27    27    25    1
    28    19     7    1
    29    15     9   ar
    30    21    14    1
    31     6    22    1
    32    13    23    1
@<TRIPOS>MOLECULE
*****
 27 32 0 0 0
SMALL
GASTEIGER

@<TRIPOS>ATOM
      1 O          -8.8555  -20.1157   19.5562 O.2     1  UNL1       -0.2923
      2 C          -7.6175  -19.6866   20.2865 C.2     1  UNL1        0.1907
      3 C          -6.2923  -20.2976   19.9396 C.3     1  UNL1        0.0708
      4 C          -5.0544  -19.8685   20.6699 C.3     1  UNL1        0.0366
      5 C          -5.1416  -18.8283   21.7470 C.3     1  UNL1        0.1094
      6 O          -4.0165  -19.6265   21.1580 O.3     1  UNL1       -0.3850
      7 C          -3.9037  -18.3991   22.4773 C.3     1  UNL1        0.0870
      8 C          -3.9909  -17.3589   23.5544 C.3     1  UNL1        0.0445
      9 C          -5.3162  -16.7477   23.9013 C.ar    1  UNL1       -0.0214
     10 C          -5.4035  -15.7075   24.9785 C.ar    1  UNL1       -0.0012
     11 C          -6.7287  -15.0964   25.3254 C.ar    1  UNL1        0.0394
     12 C          -7.9667  -15.5255   24.5951 C.ar    1  UNL1        0.1674
     13 O          -9.2919  -14.9144   24.9420 O.3     1  UNL1       -0.5029
     14 C          -7.8794  -16.5658   23.5179 C.ar    1  UNL1        0.1682
     15 C          -6.5542  -17.1769   23.1711 C.ar    1  UNL1        0.0164
     16 C          -6.4668  -18.2172   22.0939 C.3     1  UNL1        0.0902
     17 C          -5.8577  -17.8852   22.5806 C.3     1  UNL1        0.0277
     18 C          -5.1765  -18.4122   22.1779 C.3     1  UNL1        0.0727
     19 N          -4.5762  -17.9762   22.7723 N.3     1  UNL1       -0.2716
     20 C          -7.7048  -18.6463   21.3636 C.3     1  UNL1        0.2283
     21 O          -8.6453  -17.7430   22.1049 O.3     1  UNL1       -0.4686
     22 H          -3.1855  -19.3868   21.5972 H       1  UNL1        0.2103
     23 H          -9.3464  -14.2646   25.6148 H       1  UNL1        0.2923
     24 C          -2.4912  -20.0505   21.0533 C.3     1  UNL1        0.0721
     25 C          -1.8233  -18.9505   20.2826 C.3     1  UNL1        0.0160
     26 C          -0.6993  -17.9692   20.1290 C.3     1  UNL1        0.0014
     27 C          -1.7905  -18.0266   19.1014 C.3     1  UNL1        0.0014
@<TRIPOS>BOND
     1     1     2    2
     2     2     3    1
     3     3     4    1
     4     4     5    1
     5     5     6    1
     6     5     7    1
     7     7     8    1
     8     8     9    1
     9     9    10   ar
    10    10    11   ar
    11    11    12   ar
    12    12    13    1
    13    12    14   ar
    14    14    15   ar
    15    15    16    1
    16    16    17    1
    17    17    18    1
    18    18    19    1
    19    19    24    1
    20    24    25    1
    21    25    26    1
    22    26    27    1
    23    16    20    1
    24    20    21    1
    25    20     2    1
    26    16     5    1
    27    27    25    1
    28    19     7    1
    29    15     9   ar
    30    21    14    1
    31     6    22    1
    32    13    23    1
@<TRIPOS>MOLECULE
*****
 27 32 0 0 0
SMALL
GASTEIGER

@<TRIPOS>ATOM
      1 O         -15.4121   -1.4794   20.1734 O.2     1  UNL1       -0.2923
      2 C         -14.5368   -2.6509   19.8396 C.2     1  UNL1        0.1907
      3 C         -13.0502   -2.4741   19.7468 C.3     1  UNL1        0.0708
      4 C         -12.1749   -3.6456   19.4130 C.3     1  UNL1        0.0366
      5 C         -12.7862   -4.9940   19.1721 C.3     1  UNL1        0.1094
      6 O         -11.3806   -4.4703   19.1623 O.3     1  UNL1       -0.3850
      7 C         -11.9109   -6.1655   18.8383 C.3     1  UNL1        0.0870
      8 C         -12.5222   -7.5139   18.5974 C.3     1  UNL1        0.0445
      9 C         -14.0089   -7.6908   18.6902 C.ar    1  UNL1       -0.0214
     10 C         -14.6202   -9.0392   18.4493 C.ar    1  UNL1       -0.0012
     11 C         -16.1068   -9.2162   18.5421 C.ar    1  UNL1        0.0394
     12 C         -16.9822   -8.0447   18.8759 C.ar    1  UNL1        0.1674
     13 O         -18.4688   -8.2215   18.9687 O.3     1  UNL1       -0.5029
     14 C         -16.3708   -6.6962   19.1168 C.ar    1  UNL1        0.1682
     15 C         -14.8842   -6.5193   19.0240 C.ar    1  UNL1        0.0164
     16 C         -14.2728   -5.1709   19.2649 C.3     1  UNL1        0.0902
     17 C         -13.9042   -5.9088   19.0709 C.3     1  UNL1        0.0277
     18 C         -13.0307   -5.5333   19.0757 C.3     1  UNL1        0.0727
     19 N         -12.7232   -6.4061   18.8576 N.3     1  UNL1       -0.2716
     20 C         -15.1481   -3.9993   19.5987 C.3     1  UNL1        0.2283
     21 O         -16.4442   -4.7527   19.5485 O.3     1  UNL1       -0.4686
     22 H         -10.7682   -5.1920   18.9502 H       1  UNL1        0.2103
     23 H         -18.8506   -9.0638   18.8183 H       1  UNL1        0.2923
     24 C          -9.8129   -4.6401   18.9864 C.3     1  UNL1        0.0721
     25 C          -9.6648   -4.5290   17.4979 C.3     1  UNL1        0.0160
     26 C          -8.9229   -4.0115   16.3013 C.3     1  UNL1        0.0014
     27 C         -10.1501   -4.8540   16.1163 C.3     1  UNL1        0.0014
@<TRIPOS>BOND
     1     1     2    2
     2     2     3    1
     3     3     4    1
     4     4     5    1
     5     5     6    1
     6     5     7    1
     7     7     8    1
     8     8     9    1
     9     9    10   ar
    10    10    11   ar
    11    11    12   ar
    12    12    13    1
    13    12    14   ar
    14    14    15   ar
    15    15    16    1
    16    16    17    1
    17    17    18    1
    18    18    19    1
    19    19    24    1
    20    24    25    1
    21    25    26    1
    22    26    27    1
    23    16    20    1
    24    20    21    1
    25    20     2    1
    26    16     5    1
    27    27    25    1
    28    19     7    1
    29    15     9   ar
    30    21    14    1
    31     6    22    1
    32    13    23    1
@<TRIPOS>MOLECULE
*****
 27 32 0 0 0
SMALL
GASTEIGER

@<TRIPOS>ATOM
      1 O         -17.1075   -7.8687   19.1498 O.2     1  UNL1       -0.2923
      2 C         -16.1773   -6.6956   19.2428 C.2     1  UNL1        0.1907
      3 C         -16.7172   -5.3343   19.5670 C.3     1  UNL1        0.0708
      4 C         -15.7870   -4.1612   19.6600 C.3     1  UNL1        0.0366
      5 C         -14.3170   -4.3495   19.4287 C.3     1  UNL1        0.1094
      6 O         -15.1761   -3.1661   19.7626 O.3     1  UNL1       -0.3850
      7 C         -13.3868   -3.1764   19.5216 C.3     1  UNL1        0.0870
      8 C         -11.9168   -3.3647   19.2903 C.3     1  UNL1        0.0445
      9 C         -11.3769   -4.7261   18.9660 C.ar    1  UNL1       -0.0214
     10 C          -9.9068   -4.9144   18.7347 C.ar    1  UNL1       -0.0012
     11 C          -9.3669   -6.2758   18.4104 C.ar    1  UNL1        0.0394
     12 C         -10.2971   -7.4489   18.3175 C.ar    1  UNL1        0.1674
     13 O          -9.7573   -8.8103   17.9932 O.3     1  UNL1       -0.5029
     14 C         -11.7672   -7.2606   18.5488 C.ar    1  UNL1        0.1682
     15 C         -12.3070   -5.8992   18.8731 C.ar    1  UNL1        0.0164
     16 C         -13.7771   -5.7108   19.1044 C.3     1  UNL1        0.0902
     17 C         -13.1462   -5.1456   19.1248 C.3     1  UNL1        0.0277
     18 C         -13.7290   -4.4248   19.3361 C.3     1  UNL1        0.0727
     19 N         -12.9510   -3.8784   19.3334 N.3     1  UNL1       -0.2716
     20 C         -14.7073   -6.8839   19.0115 C.3     1  UNL1        0.2283
     21 O         -13.6505   -7.8964   18.6827 O.3     1  UNL1       -0.4686
     22 H         -14.6211   -2.3738   19.8352 H       1  UNL1        0.2103
     23 H          -8.8390   -8.9279   17.8487 H       1  UNL1        0.2923
     24 C         -15.3967   -1.6267   20.0772 C.3     1  UNL1        0.0721
     25 C         -14.9842   -0.6383   19.0270 C.3     1  UNL1        0.0160
     26 C         -14.4989    0.7300   18.6500 C.3     1  UNL1        0.0014
     27 C         -14.7552   -0.2947   17.5850 C.3     1  UNL1        0.0014
@<TRIPOS>BOND
     1     1     2    2
     2     2     3    1
     3     3     4    1
     4     4     5    1
     5     5     6    1
     6     5     7    1
     7     7     8    1
     8     8     9    1
     9     9    10   ar
    10    10    11   ar
    11    11    12   ar
    12    12    13    1
    13    12    14   ar
    14    14    15   ar
    15    15    16    1
    16    16    17    1
    17    17    18    1
    18    18    19    1
    19    19    24    1
    20    24    25    1
    21    25    26    1
    22    26    27    1
    23    16    20    1
    24    20    21    1
    25    20     2    1
    26    16     5    1
    27    27    25    1
    28    19     7    1
    29    15     9   ar
    30    21    14    1
    31     6    22    1
    32    13    23    1
@<TRIPOS>MOLECULE
*****
 27 32 0 0 0
SMALL
GASTEIGER

@<TRIPOS>ATOM
      1 O          -1.2897  -19.0297   21.8414 O.2     1  UNL1       -0.2923
      2 C          -2.7765  -19.1480   21.6817 C.2     1  UNL1        0.1907
      3 C          -3.3521  -20.1861   20.7647 C.3     1  UNL1        0.0708
      4 C          -4.8389  -20.3043   20.6051 C.3     1  UNL1        0.0366
      5 C          -5.7501  -19.3844   21.3624 C.3     1  UNL1        0.1094
      6 O          -5.9736  -20.5037   20.3891 O.3     1  UNL1       -0.3850
      7 C          -7.2368  -19.5027   21.2027 C.3     1  UNL1        0.0870
      8 C          -8.1480  -18.5828   21.9600 C.3     1  UNL1        0.0445
      9 C          -7.5724  -17.5446   22.8770 C.ar    1  UNL1       -0.0214
     10 C          -8.4835  -16.6247   23.6343 C.ar    1  UNL1       -0.0012
     11 C          -7.9079  -15.5865   24.5514 C.ar    1  UNL1        0.0394
     12 C          -6.4211  -15.4682   24.7110 C.ar    1  UNL1        0.1674
     13 O          -5.8455  -14.4301   25.6280 O.3     1  UNL1       -0.5029
     14 C          -5.5100  -16.3882   23.9537 C.ar    1  UNL1        0.1682
     15 C          -6.0856  -17.4263   23.0367 C.ar    1  UNL1        0.0164
     16 C          -5.1744  -18.3463   22.2793 C.3     1  UNL1        0.0902
     17 C          -6.0206  -18.3016   22.2850 C.3     1  UNL1        0.0277
     18 C          -6.1145  -19.0165   21.6653 C.3     1  UNL1        0.0727
     19 N          -7.0518  -18.8798   21.7466 N.3     1  UNL1       -0.2716
     20 C          -3.6876  -18.2281   22.4390 C.3     1  UNL1        0.2283
     21 O          -3.7249  -17.0914   23.4171 O.3     1  UNL1       -0.4686
     22 H          -6.9257  -20.6243   20.2482 H       1  UNL1        0.2103
     23 H          -6.4147  -13.8555   26.1011 H       1  UNL1        0.2923
     24 C          -6.9013  -21.4608   19.5283 C.3     1  UNL1        0.0721
     25 C          -8.1368  -21.0578   18.7793 C.3     1  UNL1        0.0160
     26 C          -9.0743  -21.2452   17.6235 C.3     1  UNL1        0.0014
     27 C          -9.3393  -20.1724   18.6377 C.3     1  UNL1        0.0014
@<TRIPOS>BOND
     1     1     2    2
     2     2     3    1
     3     3     4    1
     4     4     5    1
     5     5     6    1
     6     5     7    1
     7     7     8    1
     8     8     9    1
     9     9    10   ar
    10    10    11   ar
    11    11    12   ar
    12    12    13    1
    13    12    14   ar
    14    14    15   ar
    15    15    16    1
    16    16    17    1
    17    17    18    1
    18    18    19    1
    19    19    24    1
    20    24    25    1
    21    25    26    1
    22    26    27    1
    23    16    20    1
    24    20    21    1
    25    20     2    1
    26    16     5    1
    27    27    25    1
    28    19     7    1
    29    15     9   ar
    30    21    14    1
    31     6    22    1
    32    13    23    1
