@<TRIPOS>MOLECULE
*****
 25 27 0 0 0
SMALL
GASTEIGER

@<TRIPOS>ATOM
      1 O          -1.9011    3.7378   26.7865 O.2     1  UNL1       -0.2699
      2 C          -0.9194    2.6890   26.3550 C.2     1  UNL1        0.2491
      3 N          -0.6052    2.5093   24.8994 N.am    1  UNL1       -0.2754
      4 C           0.3766    1.4605   24.4679 C.3     1  UNL1        0.0981
      5 C           0.6907    1.2809   23.0122 C.3     1  UNL1        0.0442
      6 C           0.0232    2.1500   21.9880 C.2     1  UNL1       -0.0326
      7 C           0.3374    1.9703   20.5324 C.2     1  UNL1        0.0412
      8 C          -0.9586    3.1988   22.4195 C.3     1  UNL1        0.0442
      9 C          -1.2728    3.3785   23.8751 C.3     1  UNL1        0.0981
     10 C          -0.2518    1.8199   27.3793 C.ar    1  UNL1        0.0544
     11 C          -0.9534    0.6009   27.9005 C.ar    1  UNL1        0.0046
     12 C          -0.2858   -0.2682   28.9247 C.ar    1  UNL1        0.0010
     13 C           1.0833    0.0818   29.4277 C.ar    1  UNL1        0.0114
     14 C           1.7849    1.3008   28.9065 C.ar    1  UNL1        0.0578
     15 CL          3.1540    1.6507   29.4094 Cl      1  UNL1       -0.0822
     16 C           1.1173    2.1698   27.8823 C.ar    1  UNL1        0.0159
     17 C           1.3191    0.9215   20.1009 C.1     1  UNL1       -0.0583
     18 C           2.3009   -0.1273   19.6694 C.1     1  UNL1       -0.0404
     19 C           3.2826   -1.1761   19.2379 C.ar    1  UNL1        0.1238
     20 C           4.5077   -0.7845   18.4662 C.ar    1  UNL1        0.0277
     21 C           5.4895   -1.8333   18.0347 C.ar    1  UNL1        0.0046
     22 C           5.2461   -3.2737   18.3750 C.ar    1  UNL1        0.0308
     23 C           4.0210   -3.6654   19.1468 C.ar    1  UNL1        0.1390
     24 CL          3.7776   -5.1059   19.4871 Cl      1  UNL1       -0.0613
     25 N           3.0392   -2.6166   19.5783 N.ar    1  UNL1       -0.2257
@<TRIPOS>BOND
     1     1     2    2
     2     2    10    1
     3    10    11   ar
     4    11    12   ar
     5    12    13   ar
     6    13    14   ar
     7    14    15    1
     8    14    16   ar
     9     2     3   am
    10     3     4    1
    11     4     5    1
    12     5     6    1
    13     6     7    2
    14     7    17    1
    15    17    18    3
    16    18    19    1
    17    19    20   ar
    18    20    21   ar
    19    21    22   ar
    20    22    23   ar
    21    23    24    1
    22    23    25   ar
    23     6     8    1
    24     8     9    1
    25    16    10   ar
    26     9     3    1
    27    25    19   ar
@<TRIPOS>MOLECULE
*****
 25 27 0 0 0
SMALL
GASTEIGER

@<TRIPOS>ATOM
      1 O           7.1727   -0.1235   18.4850 O.2     1  UNL1       -0.2699
      2 C           5.7142   -0.2984   18.7884 C.2     1  UNL1        0.2491
      3 N           4.7704    0.8558   18.6245 N.am    1  UNL1       -0.2754
      4 C           3.3118    0.6809   18.9279 C.3     1  UNL1        0.0981
      5 C           2.3680    1.8353   18.7640 C.3     1  UNL1        0.0442
      6 C           2.8828    3.1644   18.2968 C.2     1  UNL1       -0.0326
      7 C           1.9390    4.3187   18.1329 C.2     1  UNL1        0.0412
      8 C           4.3413    3.3393   17.9934 C.3     1  UNL1        0.0442
      9 C           5.2851    2.1851   18.1572 C.3     1  UNL1        0.0981
     10 C           5.1995   -1.6277   19.2556 C.ar    1  UNL1        0.0544
     11 C           4.7809   -2.6637   18.2550 C.ar    1  UNL1        0.0046
     12 C           4.2662   -3.9929   18.7223 C.ar    1  UNL1        0.0010
     13 C           4.1701   -4.2860   20.1902 C.ar    1  UNL1        0.0114
     14 C           4.5887   -3.2499   21.1909 C.ar    1  UNL1        0.0578
     15 CL          4.4926   -3.5430   22.6588 Cl      1  UNL1       -0.0822
     16 C           5.1034   -1.9208   20.7236 C.ar    1  UNL1        0.0159
     17 C           0.4804    4.1438   18.4363 C.1     1  UNL1       -0.0583
     18 C          -0.9781    3.9689   18.7397 C.1     1  UNL1       -0.0404
     19 C          -2.4367    3.7940   19.0431 C.ar    1  UNL1        0.1238
     20 C          -3.4553    3.9709   17.9564 C.ar    1  UNL1        0.0277
     21 C          -4.9138    3.7960   18.2598 C.ar    1  UNL1        0.0046
     22 C          -5.3538    3.4442   19.6499 C.ar    1  UNL1        0.0308
     23 C          -4.3352    3.2672   20.7368 C.ar    1  UNL1        0.1390
     24 CL         -4.7751    2.9153   22.1270 Cl      1  UNL1       -0.0613
     25 N          -2.8766    3.4421   20.4334 N.ar    1  UNL1       -0.2257
@<TRIPOS>BOND
     1     1     2    2
     2     2    10    1
     3    10    11   ar
     4    11    12   ar
     5    12    13   ar
     6    13    14   ar
     7    14    15    1
     8    14    16   ar
     9     2     3   am
    10     3     4    1
    11     4     5    1
    12     5     6    1
    13     6     7    2
    14     7    17    1
    15    17    18    3
    16    18    19    1
    17    19    20   ar
    18    20    21   ar
    19    21    22   ar
    20    22    23   ar
    21    23    24    1
    22    23    25   ar
    23     6     8    1
    24     8     9    1
    25    16    10   ar
    26     9     3    1
    27    25    19   ar
@<TRIPOS>MOLECULE
*****
 25 27 0 0 0
SMALL
GASTEIGER

@<TRIPOS>ATOM
      1 O          -1.8817    4.4100   25.6628 O.2     1  UNL1       -0.2699
      2 C          -0.9230    3.2611   25.5585 C.2     1  UNL1        0.2491
      3 N          -0.5200    2.7405   24.2107 N.am    1  UNL1       -0.2754
      4 C           0.4386    1.5915   24.1065 C.3     1  UNL1        0.0981
      5 C           0.8417    1.0710   22.7586 C.3     1  UNL1        0.0442
      6 C           0.2860    1.6993   21.5151 C.2     1  UNL1       -0.0326
      7 C           0.6890    1.1788   20.1673 C.2     1  UNL1        0.0412
      8 C          -0.6726    2.8483   21.6194 C.3     1  UNL1        0.0442
      9 C          -1.0756    3.3689   22.9671 C.3     1  UNL1        0.0981
     10 C          -0.3674    2.6327   26.8021 C.ar    1  UNL1        0.0544
     11 C           0.8078    3.2549   27.4961 C.ar    1  UNL1        0.0046
     12 C           1.3634    2.6265   28.7396 C.ar    1  UNL1        0.0010
     13 C           0.7438    1.3759   29.2892 C.ar    1  UNL1        0.0114
     14 C          -0.4314    0.7536   28.5951 C.ar    1  UNL1        0.0578
     15 CL         -1.0510   -0.4970   29.1447 Cl      1  UNL1       -0.0822
     16 C          -0.9870    1.3820   27.3516 C.ar    1  UNL1        0.0159
     17 C           1.6477    0.0298   20.0631 C.1     1  UNL1       -0.0583
     18 C           2.6063   -1.1192   19.9588 C.1     1  UNL1       -0.0404
     19 C           3.5650   -2.2681   19.8545 C.ar    1  UNL1        0.1238
     20 C           3.1616   -3.5181   19.1302 C.ar    1  UNL1        0.0277
     21 C           4.1202   -4.6671   19.0259 C.ar    1  UNL1        0.0046
     22 C           5.4823   -4.5660   19.6460 C.ar    1  UNL1        0.0308
     23 C           5.8858   -3.3160   20.3704 C.ar    1  UNL1        0.1390
     24 CL          7.2478   -3.2150   20.9905 Cl      1  UNL1       -0.0613
     25 N           4.9271   -2.1670   20.4747 N.ar    1  UNL1       -0.2257
@<TRIPOS>BOND
     1     1     2    2
     2     2    10    1
     3    10    11   ar
     4    11    12   ar
     5    12    13   ar
     6    13    14   ar
     7    14    15    1
     8    14    16   ar
     9     2     3   am
    10     3     4    1
    11     4     5    1
    12     5     6    1
    13     6     7    2
    14     7    17    1
    15    17    18    3
    16    18    19    1
    17    19    20   ar
    18    20    21   ar
    19    21    22   ar
    20    22    23   ar
    21    23    24    1
    22    23    25   ar
    23     6     8    1
    24     8     9    1
    25    16    10   ar
    26     9     3    1
    27    25    19   ar
@<TRIPOS>MOLECULE
*****
 25 27 0 0 0
SMALL
GASTEIGER

@<TRIPOS>ATOM
      1 O           0.6327    2.9405   32.0662 O.2     1  UNL1       -0.2699
      2 C           1.2031    1.8875   31.1629 C.2     1  UNL1        0.2491
      3 N           2.2867    0.9782   31.6617 N.am    1  UNL1       -0.2754
      4 C           2.8571   -0.0748   30.7584 C.3     1  UNL1        0.0981
      5 C           3.9408   -0.9841   31.2573 C.3     1  UNL1        0.0442
      6 C           4.4540   -0.8404   32.6594 C.2     1  UNL1       -0.0326
      7 C           5.5377   -1.7497   33.1582 C.2     1  UNL1        0.0412
      8 C           3.8837    0.2126   33.5627 C.3     1  UNL1        0.0442
      9 C           2.8001    1.1219   33.0639 C.3     1  UNL1        0.0981
     10 C           0.6898    1.7439   29.7607 C.ar    1  UNL1        0.0544
     11 C          -0.4538    0.8171   29.4720 C.ar    1  UNL1        0.0046
     12 C          -0.9670    0.6735   28.0699 C.ar    1  UNL1        0.0010
     13 C          -0.3367    1.4566   26.9566 C.ar    1  UNL1        0.0114
     14 C           0.8068    2.3834   27.2453 C.ar    1  UNL1        0.0578
     15 CL          1.4371    3.1665   26.1320 Cl      1  UNL1       -0.0822
     16 C           1.3201    2.5270   28.6474 C.ar    1  UNL1        0.0159
     17 C           6.1080   -2.8027   32.2550 C.1     1  UNL1       -0.0583
     18 C           6.6784   -3.8557   31.3517 C.1     1  UNL1       -0.0404
     19 C           7.2488   -4.9087   30.4484 C.ar    1  UNL1        0.1238
     20 C           8.3789   -5.7728   30.9239 C.ar    1  UNL1        0.0277
     21 C           8.9493   -6.8258   30.0206 C.ar    1  UNL1        0.0046
     22 C           8.3895   -7.0147   28.6419 C.ar    1  UNL1        0.0308
     23 C           7.2593   -6.1506   28.1664 C.ar    1  UNL1        0.1390
     24 CL          6.6996   -6.3395   26.7877 Cl      1  UNL1       -0.0613
     25 N           6.6889   -5.0976   29.0696 N.ar    1  UNL1       -0.2257
@<TRIPOS>BOND
     1     1     2    2
     2     2    10    1
     3    10    11   ar
     4    11    12   ar
     5    12    13   ar
     6    13    14   ar
     7    14    15    1
     8    14    16   ar
     9     2     3   am
    10     3     4    1
    11     4     5    1
    12     5     6    1
    13     6     7    2
    14     7    17    1
    15    17    18    3
    16    18    19    1
    17    19    20   ar
    18    20    21   ar
    19    21    22   ar
    20    22    23   ar
    21    23    24    1
    22    23    25   ar
    23     6     8    1
    24     8     9    1
    25    16    10   ar
    26     9     3    1
    27    25    19   ar
@<TRIPOS>MOLECULE
*****
 25 27 0 0 0
SMALL
GASTEIGER

@<TRIPOS>ATOM
      1 O           3.5360   -0.9140   16.6052 O.2     1  UNL1       -0.2699
      2 C           3.5360   -1.0747   18.0965 C.2     1  UNL1        0.2491
      3 N           2.6923   -0.1730   18.9480 N.am    1  UNL1       -0.2754
      4 C           2.6923   -0.3337   20.4394 C.3     1  UNL1        0.0981
      5 C           1.8485    0.5681   21.2909 C.3     1  UNL1        0.0442
      6 C           1.0048    1.6305   20.6510 C.2     1  UNL1       -0.0326
      7 C           0.1611    2.5322   21.5024 C.2     1  UNL1        0.0412
      8 C           1.0048    1.7911   19.1596 C.3     1  UNL1        0.0442
      9 C           1.8485    0.8894   18.3081 C.3     1  UNL1        0.0981
     10 C           4.3797   -2.1372   18.7364 C.ar    1  UNL1        0.0544
     11 C           3.8082   -3.5021   18.9820 C.ar    1  UNL1        0.0046
     12 C           4.6519   -4.5644   19.6219 C.ar    1  UNL1        0.0010
     13 C           6.0672   -4.2619   20.0162 C.ar    1  UNL1        0.0114
     14 C           6.6387   -2.8970   19.7706 C.ar    1  UNL1        0.0578
     15 CL          8.0540   -2.5944   20.1649 Cl      1  UNL1       -0.0822
     16 C           5.7950   -1.8346   19.1307 C.ar    1  UNL1        0.0159
     17 C           0.1611    2.3715   22.9938 C.1     1  UNL1       -0.0583
     18 C           0.1610    2.2108   24.4852 C.1     1  UNL1       -0.0404
     19 C           0.1610    2.0502   25.9765 C.ar    1  UNL1        0.1238
     20 C           0.9110    3.0244   26.8358 C.ar    1  UNL1        0.0277
     21 C           0.9109    2.8637   28.3272 C.ar    1  UNL1        0.0046
     22 C           0.1610    1.7288   28.9593 C.ar    1  UNL1        0.0308
     23 C          -0.5890    0.7545   28.1000 C.ar    1  UNL1        0.1390
     24 CL         -1.3390   -0.3803   28.7320 Cl      1  UNL1       -0.0613
     25 N          -0.5890    0.9152   26.6086 N.ar    1  UNL1       -0.2257
@<TRIPOS>BOND
     1     1     2    2
     2     2    10    1
     3    10    11   ar
     4    11    12   ar
     5    12    13   ar
     6    13    14   ar
     7    14    15    1
     8    14    16   ar
     9     2     3   am
    10     3     4    1
    11     4     5    1
    12     5     6    1
    13     6     7    2
    14     7    17    1
    15    17    18    3
    16    18    19    1
    17    19    20   ar
    18    20    21   ar
    19    21    22   ar
    20    22    23   ar
    21    23    24    1
    22    23    25   ar
    23     6     8    1
    24     8     9    1
    25    16    10   ar
    26     9     3    1
    27    25    19   ar
@<TRIPOS>MOLECULE
*****
 25 27 0 0 0
SMALL
GASTEIGER

@<TRIPOS>ATOM
      1 O          -0.6313    3.1499   23.3799 O.2     1  UNL1       -0.2699
      2 C           0.2794    2.2701   24.1839 C.2     1  UNL1        0.2491
      3 N           1.1564    1.2681   23.4934 N.am    1  UNL1       -0.2754
      4 C           2.0670    0.3882   24.2974 C.3     1  UNL1        0.0981
      5 C           2.9441   -0.6137   23.6068 C.3     1  UNL1        0.0442
      6 C           2.9104   -0.7358   22.1121 C.2     1  UNL1       -0.0326
      7 C           3.7874   -1.7378   21.4216 C.2     1  UNL1        0.0412
      8 C           1.9997    0.1441   21.3081 C.3     1  UNL1        0.0442
      9 C           1.1227    1.1460   21.9987 C.3     1  UNL1        0.0981
     10 C           0.3130    2.3922   25.6786 C.ar    1  UNL1        0.0544
     11 C           1.0759    3.5116   26.3227 C.ar    1  UNL1        0.0046
     12 C           1.1095    3.6336   27.8173 C.ar    1  UNL1        0.0010
     13 C           0.3802    2.6363   28.6678 C.ar    1  UNL1        0.0114
     14 C          -0.3827    1.5169   28.0238 C.ar    1  UNL1        0.0578
     15 CL         -1.1120    0.5195   28.8743 Cl      1  UNL1       -0.0822
     16 C          -0.4163    1.3948   26.5292 C.ar    1  UNL1        0.0159
     17 C           4.6981   -2.6176   22.2256 C.1     1  UNL1       -0.0583
     18 C           5.6087   -3.4975   23.0297 C.1     1  UNL1       -0.0404
     19 C           6.5194   -4.3774   23.8337 C.ar    1  UNL1        0.1238
     20 C           6.6399   -4.1773   25.3154 C.ar    1  UNL1        0.0277
     21 C           7.5506   -5.0571   26.1195 C.ar    1  UNL1        0.0046
     22 C           8.3407   -6.1372   25.4418 C.ar    1  UNL1        0.0308
     23 C           8.2202   -6.3373   23.9601 C.ar    1  UNL1        0.1390
     24 CL          9.0104   -7.4173   23.2825 Cl      1  UNL1       -0.0613
     25 N           7.3096   -5.4575   23.1560 N.ar    1  UNL1       -0.2257
@<TRIPOS>BOND
     1     1     2    2
     2     2    10    1
     3    10    11   ar
     4    11    12   ar
     5    12    13   ar
     6    13    14   ar
     7    14    15    1
     8    14    16   ar
     9     2     3   am
    10     3     4    1
    11     4     5    1
    12     5     6    1
    13     6     7    2
    14     7    17    1
    15    17    18    3
    16    18    19    1
    17    19    20   ar
    18    20    21   ar
    19    21    22   ar
    20    22    23   ar
    21    23    24    1
    22    23    25   ar
    23     6     8    1
    24     8     9    1
    25    16    10   ar
    26     9     3    1
    27    25    19   ar
@<TRIPOS>MOLECULE
*****
 25 27 0 0 0
SMALL
GASTEIGER

@<TRIPOS>ATOM
      1 O           4.4575    0.7922   17.4889 O.2     1  UNL1       -0.2699
      2 C           4.2929    0.0765   18.7969 C.2     1  UNL1        0.2491
      3 N           5.3255   -0.9152   19.2443 N.am    1  UNL1       -0.2754
      4 C           5.1609   -1.6309   20.5523 C.3     1  UNL1        0.0981
      5 C           6.1936   -2.6226   20.9997 C.3     1  UNL1        0.0442
      6 C           7.3908   -2.8986   20.1392 C.2     1  UNL1       -0.0326
      7 C           8.4234   -3.8903   20.5867 C.2     1  UNL1        0.0412
      8 C           7.5554   -2.1829   18.8313 C.3     1  UNL1        0.0442
      9 C           6.5228   -1.1913   18.3838 C.3     1  UNL1        0.0981
     10 C           3.0956    0.3525   19.6574 C.ar    1  UNL1        0.0544
     11 C           1.8791   -0.5185   19.5516 C.ar    1  UNL1        0.0046
     12 C           0.6819   -0.2425   20.4121 C.ar    1  UNL1        0.0010
     13 C           0.7013    0.9047   21.3783 C.ar    1  UNL1        0.0114
     14 C           1.9178    1.7758   21.4841 C.ar    1  UNL1        0.0578
     15 CL          1.9371    2.9230   22.4503 Cl      1  UNL1       -0.0822
     16 C           3.1150    1.4997   20.6236 C.ar    1  UNL1        0.0159
     17 C           8.2588   -4.6060   21.8946 C.1     1  UNL1       -0.0583
     18 C           8.0942   -5.3217   23.2025 C.1     1  UNL1       -0.0404
     19 C           7.9296   -6.0373   24.5105 C.ar    1  UNL1        0.1238
     20 C           8.5440   -7.3915   24.7070 C.ar    1  UNL1        0.0277
     21 C           8.3794   -8.1072   26.0149 C.ar    1  UNL1        0.0046
     22 C           7.6003   -7.4687   27.1264 C.ar    1  UNL1        0.0308
     23 C           6.9859   -6.1144   26.9299 C.ar    1  UNL1        0.1390
     24 CL          6.2069   -5.4759   28.0414 Cl      1  UNL1       -0.0613
     25 N           7.1505   -5.3988   25.6220 N.ar    1  UNL1       -0.2257
@<TRIPOS>BOND
     1     1     2    2
     2     2    10    1
     3    10    11   ar
     4    11    12   ar
     5    12    13   ar
     6    13    14   ar
     7    14    15    1
     8    14    16   ar
     9     2     3   am
    10     3     4    1
    11     4     5    1
    12     5     6    1
    13     6     7    2
    14     7    17    1
    15    17    18    3
    16    18    19    1
    17    19    20   ar
    18    20    21   ar
    19    21    22   ar
    20    22    23   ar
    21    23    24    1
    22    23    25   ar
    23     6     8    1
    24     8     9    1
    25    16    10   ar
    26     9     3    1
    27    25    19   ar
@<TRIPOS>MOLECULE
*****
 25 27 0 0 0
SMALL
GASTEIGER

@<TRIPOS>ATOM
      1 O         -20.3761    0.8143   20.7497 O.2     1  UNL1       -0.2699
      2 C         -18.9052    0.6252   20.5239 C.2     1  UNL1        0.2491
      3 N         -18.3502   -0.7518   20.3105 N.am    1  UNL1       -0.2754
      4 C         -16.8794   -0.9410   20.0848 C.3     1  UNL1        0.0981
      5 C         -16.3243   -2.3181   19.8713 C.3     1  UNL1        0.0442
      6 C         -17.2401   -3.5060   19.8836 C.2     1  UNL1       -0.0326
      7 C         -16.6850   -4.8831   19.6701 C.2     1  UNL1        0.0412
      8 C         -18.7109   -3.3169   20.1093 C.3     1  UNL1        0.0442
      9 C         -19.2659   -1.9399   20.3228 C.3     1  UNL1        0.0981
     10 C         -17.9895    1.8132   20.5117 C.ar    1  UNL1        0.0544
     11 C         -17.5839    2.4341   19.2079 C.ar    1  UNL1        0.0046
     12 C         -16.6682    3.6220   19.1956 C.ar    1  UNL1        0.0010
     13 C         -16.1581    4.1891   20.4872 C.ar    1  UNL1        0.0114
     14 C         -16.5637    3.5683   21.7910 C.ar    1  UNL1        0.0578
     15 CL        -16.0536    4.1353   23.0826 Cl      1  UNL1       -0.0822
     16 C         -17.4794    2.3803   21.8033 C.ar    1  UNL1        0.0159
     17 C         -15.2142   -5.0722   19.4444 C.1     1  UNL1       -0.0583
     18 C         -13.7434   -5.2613   19.2187 C.1     1  UNL1       -0.0404
     19 C         -12.2726   -5.4504   18.9930 C.ar    1  UNL1        0.1238
     20 C         -11.3514   -4.2669   19.0198 C.ar    1  UNL1        0.0277
     21 C          -9.8806   -4.4561   18.7941 C.ar    1  UNL1        0.0046
     22 C          -9.3309   -5.8287   18.5416 C.ar    1  UNL1        0.0308
     23 C         -10.2521   -7.0122   18.5147 C.ar    1  UNL1        0.1390
     24 CL         -9.7025   -8.3848   18.2622 Cl      1  UNL1       -0.0613
     25 N         -11.7229   -6.8231   18.7405 N.ar    1  UNL1       -0.2257
@<TRIPOS>BOND
     1     1     2    2
     2     2    10    1
     3    10    11   ar
     4    11    12   ar
     5    12    13   ar
     6    13    14   ar
     7    14    15    1
     8    14    16   ar
     9     2     3   am
    10     3     4    1
    11     4     5    1
    12     5     6    1
    13     6     7    2
    14     7    17    1
    15    17    18    3
    16    18    19    1
    17    19    20   ar
    18    20    21   ar
    19    21    22   ar
    20    22    23   ar
    21    23    24    1
    22    23    25   ar
    23     6     8    1
    24     8     9    1
    25    16    10   ar
    26     9     3    1
    27    25    19   ar
@<TRIPOS>MOLECULE
*****
 25 27 0 0 0
SMALL
GASTEIGER

@<TRIPOS>ATOM
      1 O           4.3687   -0.4945   23.1598 O.2     1  UNL1       -0.2699
      2 C           3.0823    0.2121   22.8502 C.2     1  UNL1        0.2491
      3 N           2.2031    0.6925   23.9665 N.am    1  UNL1       -0.2754
      4 C           0.9167    1.3992   23.6570 C.3     1  UNL1        0.0981
      5 C           0.0374    1.8796   24.7733 C.3     1  UNL1        0.0442
      6 C           0.4446    1.6534   26.1991 C.2     1  UNL1       -0.0326
      7 C          -0.4347    2.1338   27.3154 C.2     1  UNL1        0.0412
      8 C           1.7310    0.9467   26.5087 C.3     1  UNL1        0.0442
      9 C           2.6102    0.4663   25.3924 C.3     1  UNL1        0.0981
     10 C           2.6752    0.4383   21.4243 C.ar    1  UNL1        0.0544
     11 C           1.7331   -0.5164   20.7529 C.ar    1  UNL1        0.0046
     12 C           1.3260   -0.2901   19.3270 C.ar    1  UNL1        0.0010
     13 C           1.8610    0.8909   18.5727 C.ar    1  UNL1        0.0114
     14 C           2.8030    1.8456   19.2442 C.ar    1  UNL1        0.0578
     15 CL          3.3380    3.0266   18.4898 Cl      1  UNL1       -0.0822
     16 C           3.2101    1.6193   20.6700 C.ar    1  UNL1        0.0159
     17 C          -1.7211    2.8404   27.0059 C.1     1  UNL1       -0.0583
     18 C          -3.0075    3.5470   26.6963 C.1     1  UNL1       -0.0404
     19 C          -4.2939    4.2537   26.3868 C.ar    1  UNL1        0.1238
     20 C          -4.9854    4.0133   25.0776 C.ar    1  UNL1        0.0277
     21 C          -6.2719    4.7199   24.7681 C.ar    1  UNL1        0.0046
     22 C          -6.8667    5.6670   25.7677 C.ar    1  UNL1        0.0308
     23 C          -6.1751    5.9074   27.0769 C.ar    1  UNL1        0.1390
     24 CL         -6.7700    6.8544   28.0765 Cl      1  UNL1       -0.0613
     25 N          -4.8887    5.2008   27.3865 N.ar    1  UNL1       -0.2257
@<TRIPOS>BOND
     1     1     2    2
     2     2    10    1
     3    10    11   ar
     4    11    12   ar
     5    12    13   ar
     6    13    14   ar
     7    14    15    1
     8    14    16   ar
     9     2     3   am
    10     3     4    1
    11     4     5    1
    12     5     6    1
    13     6     7    2
    14     7    17    1
    15    17    18    3
    16    18    19    1
    17    19    20   ar
    18    20    21   ar
    19    21    22   ar
    20    22    23   ar
    21    23    24    1
    22    23    25   ar
    23     6     8    1
    24     8     9    1
    25    16    10   ar
    26     9     3    1
    27    25    19   ar
