@<TRIPOS>MOLECULE
*****
 27 29 0 0 0
SMALL
GASTEIGER

@<TRIPOS>ATOM
      1 C          -7.7297  -19.2959   21.6872 C.2     1  UNL1       -0.0246
      2 C          -8.3805  -19.6037   20.3713 C.2     1  UNL1       -0.0421
      3 C          -7.3036  -19.9877   19.4002 C.3     1  UNL1        0.0480
      4 C          -5.9873  -19.9171   20.1160 C.ar    1  UNL1       -0.0184
      5 C          -4.5830  -20.1870   19.6633 C.ar    1  UNL1       -0.0040
      6 C          -3.4419  -20.0293   20.6241 C.ar    1  UNL1       -0.0003
      7 C          -3.7053  -19.6017   22.0375 C.ar    1  UNL1       -0.0000
      8 C          -5.1096  -19.3318   22.4902 C.ar    1  UNL1       -0.0006
      9 C          -6.2506  -19.4896   21.5294 C.ar    1  UNL1       -0.0079
     10 C          -9.3216  -19.8354   23.6684 C.3     1  UNL1        0.0111
     11 C          -8.4342  -18.8692   22.9408 C.3     1  UNL1        0.0634
     12 C          -8.2515  -17.4765   23.4670 C.ar    1  UNL1        0.0818
     13 C          -9.0690  -17.0013   24.6314 C.ar    1  UNL1        0.1139
     14 N          -8.8862  -15.6086   25.1575 N.ar    1  UNL1       -0.2394
     15 C          -7.8859  -14.6910   24.5194 C.ar    1  UNL1        0.1195
     16 C          -7.0682  -15.1661   23.3550 C.ar    1  UNL1        0.1191
     17 N          -7.2510  -16.5589   22.8288 N.ar    1  UNL1       -0.2446
     18 C          -9.8501  -19.5390   20.0779 C.3     1  UNL1        0.0394
     19 C         -10.5130  -18.2117   19.8567 C.3     1  UNL1        0.0765
     20 N         -11.1684  -17.5003   21.0032 N.3     1  UNL1       -0.2709
     21 C         -10.8276  -16.0680   21.2905 C.3     1  UNL1        0.0896
     22 C         -12.1645  -18.2212   21.8623 C.3     1  UNL1        0.0810
     23 C         -12.8882  -17.4849   22.9504 C.3     1  UNL1        0.1206
     24 C         -13.2910  -18.2045   24.2033 C.3     1  UNL1        0.3991
     25 F         -13.6939  -18.9241   25.4563 F       1  UNL1       -0.1700
     26 F         -11.8616  -18.2130   24.6580 F       1  UNL1       -0.1700
     27 F         -14.7204  -18.1959   23.7487 F       1  UNL1       -0.1700
@<TRIPOS>BOND
     1    11    10    1
     2    11     1    1
     3     1     2    2
     4     2    18    1
     5    18    19    1
     6    19    20    1
     7    20    21    1
     8    20    22    1
     9    22    23    1
    10    23    24    1
    11    24    25    1
    12    24    26    1
    13    24    27    1
    14     2     3    1
    15     3     4    1
    16     4     5   ar
    17     5     6   ar
    18     6     7   ar
    19     7     8   ar
    20     8     9   ar
    21    11    12    1
    22    12    13   ar
    23    13    14   ar
    24    14    15   ar
    25    15    16   ar
    26    16    17   ar
    27     9     1    1
    28    17    12   ar
    29     9     4   ar
@<TRIPOS>MOLECULE
*****
 27 29 0 0 0
SMALL
GASTEIGER

@<TRIPOS>ATOM
      1 C          -6.6971  -18.5840   21.8160 C.2     1  UNL1       -0.0246
      2 C          -8.1667  -18.4310   21.5571 C.2     1  UNL1       -0.0421
      3 C          -8.6664  -17.2851   22.3861 C.3     1  UNL1        0.0480
      4 C          -7.5058  -16.7299   23.1573 C.ar    1  UNL1       -0.0184
      5 C          -7.4000  -15.5972   24.1348 C.ar    1  UNL1       -0.0040
      6 C          -6.0771  -15.2672   24.7600 C.ar    1  UNL1       -0.0003
      7 C          -4.8599  -16.0699   24.4076 C.ar    1  UNL1       -0.0000
      8 C          -4.9657  -17.2027   23.4301 C.ar    1  UNL1       -0.0006
      9 C          -6.2887  -17.5327   22.8049 C.ar    1  UNL1       -0.0079
     10 C          -6.2815  -21.0126   20.9918 C.3     1  UNL1        0.0111
     11 C          -5.7944  -19.6084   21.1950 C.3     1  UNL1        0.0634
     12 C          -4.4048  -19.2289   20.7771 C.ar    1  UNL1        0.0818
     13 C          -3.2226  -19.7668   21.5275 C.ar    1  UNL1        0.1139
     14 N          -1.8330  -19.3872   21.1096 N.ar    1  UNL1       -0.2394
     15 C          -1.6254  -18.4697   19.9412 C.ar    1  UNL1        0.1195
     16 C          -2.8075  -17.9317   19.1908 C.ar    1  UNL1        0.1191
     17 N          -4.1972  -18.3113   19.6087 N.ar    1  UNL1       -0.2446
     18 C          -8.9916  -19.2756   20.6318 C.3     1  UNL1        0.0394
     19 C          -9.9685  -18.6279   19.6958 C.3     1  UNL1        0.0765
     20 N         -11.1249  -17.8447   20.2427 N.3     1  UNL1       -0.2709
     21 C         -11.3387  -16.4236   19.8128 C.3     1  UNL1        0.0896
     22 C         -12.0676  -18.4825   21.2197 C.3     1  UNL1        0.0810
     23 C         -12.6715  -17.6646   22.3225 C.3     1  UNL1        0.1206
     24 C         -12.6943  -18.1967   23.7247 C.3     1  UNL1        0.3991
     25 F         -12.7171  -18.7289   25.1270 F       1  UNL1       -0.1700
     26 F         -14.0195  -17.5329   23.9551 F       1  UNL1       -0.1700
     27 F         -11.3692  -18.8606   23.4944 F       1  UNL1       -0.1700
@<TRIPOS>BOND
     1    11    10    1
     2    11     1    1
     3     1     2    2
     4     2    18    1
     5    18    19    1
     6    19    20    1
     7    20    21    1
     8    20    22    1
     9    22    23    1
    10    23    24    1
    11    24    25    1
    12    24    26    1
    13    24    27    1
    14     2     3    1
    15     3     4    1
    16     4     5   ar
    17     5     6   ar
    18     6     7   ar
    19     7     8   ar
    20     8     9   ar
    21    11    12    1
    22    12    13   ar
    23    13    14   ar
    24    14    15   ar
    25    15    16   ar
    26    16    17   ar
    27     9     1    1
    28    17    12   ar
    29     9     4   ar
@<TRIPOS>MOLECULE
*****
 27 29 0 0 0
SMALL
GASTEIGER

@<TRIPOS>ATOM
      1 C          -8.4376  -17.1368   23.9352 C.2     1  UNL1       -0.0246
      2 C          -9.5101  -17.9634   24.5807 C.2     1  UNL1       -0.0421
      3 C          -9.4696  -17.7038   26.0575 C.3     1  UNL1        0.0480
      4 C          -8.3721  -16.7168   26.3248 C.ar    1  UNL1       -0.0184
      5 C          -7.8711  -16.0919   27.5930 C.ar    1  UNL1       -0.0040
      6 C          -6.7324  -15.1166   27.5496 C.ar    1  UNL1       -0.0003
      7 C          -6.0946  -14.7661   26.2380 C.ar    1  UNL1       -0.0000
      8 C          -6.5956  -15.3910   24.9697 C.ar    1  UNL1       -0.0006
      9 C          -7.7343  -16.3664   25.0131 C.ar    1  UNL1       -0.0079
     10 C          -8.7147  -16.0105   21.6103 C.3     1  UNL1        0.0111
     11 C          -8.1236  -17.0890   22.4692 C.3     1  UNL1        0.0634
     12 C          -7.2185  -18.1195   21.8621 C.ar    1  UNL1        0.0818
     13 C          -7.7600  -19.0977   20.8622 C.ar    1  UNL1        0.1139
     14 N          -6.8548  -20.1282   20.2550 N.ar    1  UNL1       -0.2394
     15 C          -5.4081  -20.1806   20.6477 C.ar    1  UNL1        0.1195
     16 C          -4.8665  -19.2024   21.6477 C.ar    1  UNL1        0.1191
     17 N          -5.7717  -18.1718   22.2548 N.ar    1  UNL1       -0.2446
     18 C         -10.4568  -18.8873   23.8735 C.3     1  UNL1        0.0394
     19 C         -11.8740  -19.0159   24.3479 C.3     1  UNL1        0.0765
     20 N         -12.9324  -18.1020   23.8051 N.3     1  UNL1       -0.2709
     21 C         -14.3309  -18.1710   24.3434 C.3     1  UNL1        0.0896
     22 C         -12.5925  -17.1193   22.7241 C.3     1  UNL1        0.0810
     23 C         -12.8123  -17.4812   21.2852 C.3     1  UNL1        0.1206
     24 C         -11.6423  -17.8197   20.4098 C.3     1  UNL1        0.3991
     25 F         -10.4721  -18.1583   19.5343 F       1  UNL1       -0.1700
     26 F         -11.6167  -16.4097   19.8988 F       1  UNL1       -0.1700
     27 F         -11.6678  -19.2297   20.9208 F       1  UNL1       -0.1700
@<TRIPOS>BOND
     1    11    10    1
     2    11     1    1
     3     1     2    2
     4     2    18    1
     5    18    19    1
     6    19    20    1
     7    20    21    1
     8    20    22    1
     9    22    23    1
    10    23    24    1
    11    24    25    1
    12    24    26    1
    13    24    27    1
    14     2     3    1
    15     3     4    1
    16     4     5   ar
    17     5     6   ar
    18     6     7   ar
    19     7     8   ar
    20     8     9   ar
    21    11    12    1
    22    12    13   ar
    23    13    14   ar
    24    14    15   ar
    25    15    16   ar
    26    16    17   ar
    27     9     1    1
    28    17    12   ar
    29     9     4   ar
@<TRIPOS>MOLECULE
*****
 27 29 0 0 0
SMALL
GASTEIGER

@<TRIPOS>ATOM
      1 C          -6.3299  -19.2372   21.0696 C.2     1  UNL1       -0.0246
      2 C          -6.2781  -18.3835   22.3019 C.2     1  UNL1       -0.0421
      3 C          -7.6499  -17.8237   22.5359 C.3     1  UNL1        0.0480
      4 C          -8.5495  -18.3314   21.4482 C.ar    1  UNL1       -0.0184
      5 C         -10.0061  -18.1111   21.1659 C.ar    1  UNL1       -0.0040
      6 C         -10.6469  -18.7644   19.9775 C.ar    1  UNL1       -0.0003
      7 C          -9.8310  -19.6380   19.0713 C.ar    1  UNL1       -0.0000
      8 C          -8.3744  -19.8584   19.3535 C.ar    1  UNL1       -0.0006
      9 C          -7.7337  -19.2050   20.5420 C.ar    1  UNL1       -0.0079
     10 C          -5.3315  -21.4437   20.1289 C.3     1  UNL1        0.0111
     11 C          -5.1798  -19.9908   20.4702 C.3     1  UNL1        0.0634
     12 C          -3.8781  -19.2918   20.2119 C.ar    1  UNL1        0.0818
     13 C          -2.6312  -19.7458   20.9113 C.ar    1  UNL1        0.1139
     14 N          -1.3295  -19.0467   20.6530 N.ar    1  UNL1       -0.2394
     15 C          -1.2746  -17.8936   19.6953 C.ar    1  UNL1        0.1195
     16 C          -2.5214  -17.4395   18.9958 C.ar    1  UNL1        0.1191
     17 N          -3.8231  -18.1386   19.2541 N.ar    1  UNL1       -0.2446
     18 C          -5.0671  -18.1335   23.1511 C.3     1  UNL1        0.0394
     19 C          -4.6423  -16.7277   23.4561 C.3     1  UNL1        0.0765
     20 N          -5.5054  -15.8533   24.3166 N.3     1  UNL1       -0.2709
     21 C          -6.5330  -14.9606   23.6862 C.3     1  UNL1        0.0896
     22 C          -5.3410  -15.8716   25.8074 C.3     1  UNL1        0.0810
     23 C          -6.3290  -15.1554   26.6798 C.3     1  UNL1        0.1206
     24 C          -7.5205  -15.8880   27.2216 C.3     1  UNL1        0.3991
     25 F          -8.7120  -16.6207   27.7634 F       1  UNL1       -0.1700
     26 F          -8.4259  -15.0363   26.3821 F       1  UNL1       -0.1700
     27 F          -6.6150  -16.7397   28.0610 F       1  UNL1       -0.1700
@<TRIPOS>BOND
     1    11    10    1
     2    11     1    1
     3     1     2    2
     4     2    18    1
     5    18    19    1
     6    19    20    1
     7    20    21    1
     8    20    22    1
     9    22    23    1
    10    23    24    1
    11    24    25    1
    12    24    26    1
    13    24    27    1
    14     2     3    1
    15     3     4    1
    16     4     5   ar
    17     5     6   ar
    18     6     7   ar
    19     7     8   ar
    20     8     9   ar
    21    11    12    1
    22    12    13   ar
    23    13    14   ar
    24    14    15   ar
    25    15    16   ar
    26    16    17   ar
    27     9     1    1
    28    17    12   ar
    29     9     4   ar
@<TRIPOS>MOLECULE
*****
 27 29 0 0 0
SMALL
GASTEIGER

@<TRIPOS>ATOM
      1 C          -6.7621  -18.2759   22.1664 C.2     1  UNL1       -0.0246
      2 C          -8.1625  -18.0046   21.7024 C.2     1  UNL1       -0.0421
      3 C          -8.6436  -16.7584   22.3847 C.3     1  UNL1        0.0480
      4 C          -7.5405  -16.2595   23.2704 C.ar    1  UNL1       -0.0184
      5 C          -7.4447  -15.0725   24.1824 C.ar    1  UNL1       -0.0040
      6 C          -6.1860  -14.8233   24.9593 C.ar    1  UNL1       -0.0003
      7 C          -5.0232  -15.7613   24.8244 C.ar    1  UNL1       -0.0000
      8 C          -5.1191  -16.9483   23.9124 C.ar    1  UNL1       -0.0006
      9 C          -6.3777  -17.1975   23.1355 C.ar    1  UNL1       -0.0079
     10 C          -6.3957  -20.8320   21.8793 C.3     1  UNL1        0.0111
     11 C          -5.8979  -19.4241   21.7367 C.3     1  UNL1        0.0634
     12 C          -4.5359  -19.1647   21.1645 C.ar    1  UNL1        0.0818
     13 C          -3.3112  -19.5730   21.9282 C.ar    1  UNL1        0.1139
     14 N          -1.9492  -19.3135   21.3559 N.ar    1  UNL1       -0.2394
     15 C          -1.8118  -18.6457   20.0199 C.ar    1  UNL1        0.1195
     16 C          -3.0365  -18.2373   19.2560 C.ar    1  UNL1        0.1191
     17 N          -4.3985  -18.4968   19.8283 N.ar    1  UNL1       -0.2446
     18 C          -8.9445  -18.8338   20.7273 C.3     1  UNL1        0.0394
     19 C         -10.0832  -19.6831   21.2090 C.3     1  UNL1        0.0765
     20 N         -10.7475  -19.3746   22.5180 N.3     1  UNL1       -0.2709
     21 C         -10.3022  -20.0740   23.7681 C.3     1  UNL1        0.0896
     22 C         -11.8569  -18.3669   22.5770 C.3     1  UNL1        0.0810
     23 C         -12.4658  -17.8466   21.3088 C.3     1  UNL1        0.1206
     24 C         -11.8662  -16.6552   20.6226 C.3     1  UNL1        0.3991
     25 F         -11.2665  -15.4637   19.9364 F       1  UNL1       -0.1700
     26 F         -11.6740  -17.4691   19.3774 F       1  UNL1       -0.1700
     27 F         -12.0584  -15.8413   21.8678 F       1  UNL1       -0.1700
@<TRIPOS>BOND
     1    11    10    1
     2    11     1    1
     3     1     2    2
     4     2    18    1
     5    18    19    1
     6    19    20    1
     7    20    21    1
     8    20    22    1
     9    22    23    1
    10    23    24    1
    11    24    25    1
    12    24    26    1
    13    24    27    1
    14     2     3    1
    15     3     4    1
    16     4     5   ar
    17     5     6   ar
    18     6     7   ar
    19     7     8   ar
    20     8     9   ar
    21    11    12    1
    22    12    13   ar
    23    13    14   ar
    24    14    15   ar
    25    15    16   ar
    26    16    17   ar
    27     9     1    1
    28    17    12   ar
    29     9     4   ar
@<TRIPOS>MOLECULE
*****
 27 29 0 0 0
SMALL
GASTEIGER

@<TRIPOS>ATOM
      1 C          -8.5270  -17.1012   22.4774 C.2     1  UNL1       -0.0246
      2 C          -7.8577  -18.4076   22.1687 C.2     1  UNL1       -0.0421
      3 C          -8.9170  -19.3834   21.7496 C.3     1  UNL1        0.0480
      4 C         -10.2410  -18.6802   21.7994 C.ar    1  UNL1       -0.0184
      5 C         -11.6348  -19.1419   21.4932 C.ar    1  UNL1       -0.0040
      6 C         -12.7877  -18.1932   21.6368 C.ar    1  UNL1       -0.0003
      7 C         -12.5467  -16.7826   22.0866 C.ar    1  UNL1       -0.0000
      8 C         -11.1528  -16.3209   22.3928 C.ar    1  UNL1       -0.0006
      9 C         -10.0000  -17.2696   22.2492 C.ar    1  UNL1       -0.0079
     10 C          -7.5548  -14.7497   21.9525 C.3     1  UNL1        0.0111
     11 C          -7.8434  -15.8466   22.9342 C.3     1  UNL1        0.0634
     12 C          -7.4485  -15.6887   24.3726 C.ar    1  UNL1        0.0818
     13 C          -8.4962  -15.7174   25.4456 C.ar    1  UNL1        0.1139
     14 N          -8.1012  -15.5595   26.8840 N.ar    1  UNL1       -0.2394
     15 C          -6.6584  -15.3730   27.2494 C.ar    1  UNL1        0.1195
     16 C          -5.6106  -15.3443   26.1764 C.ar    1  UNL1        0.1191
     17 N          -6.0056  -15.5022   24.7380 N.ar    1  UNL1       -0.2446
     18 C          -6.3873  -18.6887   22.2626 C.3     1  UNL1        0.0394
     19 C          -5.7263  -19.5723   21.2465 C.3     1  UNL1        0.0765
     20 N          -4.2940  -19.3381   20.8674 N.3     1  UNL1       -0.2709
     21 C          -3.9481  -18.9075   19.4727 C.3     1  UNL1        0.0896
     22 C          -3.2076  -19.5344   21.8829 C.3     1  UNL1        0.0810
     23 C          -2.2899  -18.3994   22.2284 C.3     1  UNL1        0.1206
     24 C          -2.8519  -17.0337   22.4910 C.3     1  UNL1        0.3991
     25 F          -3.4140  -15.6680   22.7536 F       1  UNL1       -0.1700
     26 F          -3.6054  -17.5708   23.6716 F       1  UNL1       -0.1700
     27 F          -2.0985  -16.4966   21.3105 F       1  UNL1       -0.1700
@<TRIPOS>BOND
     1    11    10    1
     2    11     1    1
     3     1     2    2
     4     2    18    1
     5    18    19    1
     6    19    20    1
     7    20    21    1
     8    20    22    1
     9    22    23    1
    10    23    24    1
    11    24    25    1
    12    24    26    1
    13    24    27    1
    14     2     3    1
    15     3     4    1
    16     4     5   ar
    17     5     6   ar
    18     6     7   ar
    19     7     8   ar
    20     8     9   ar
    21    11    12    1
    22    12    13   ar
    23    13    14   ar
    24    14    15   ar
    25    15    16   ar
    26    16    17   ar
    27     9     1    1
    28    17    12   ar
    29     9     4   ar
@<TRIPOS>MOLECULE
*****
 27 29 0 0 0
SMALL
GASTEIGER

@<TRIPOS>ATOM
      1 C          -6.7606  -17.8143   22.7408 C.2     1  UNL1       -0.0246
      2 C          -7.4884  -19.0727   22.3712 C.2     1  UNL1       -0.0421
      3 C          -6.4697  -20.0921   21.9553 C.3     1  UNL1        0.0480
      4 C          -5.1124  -19.4637   22.0678 C.ar    1  UNL1       -0.0184
      5 C          -3.7359  -19.9916   21.7909 C.ar    1  UNL1       -0.0040
      6 C          -2.5392  -19.1116   21.9995 C.ar    1  UNL1       -0.0003
      7 C          -2.7190  -17.7038   22.4850 C.ar    1  UNL1       -0.0000
      8 C          -4.0955  -17.1759   22.7619 C.ar    1  UNL1       -0.0006
      9 C          -5.2921  -18.0559   22.5533 C.ar    1  UNL1       -0.0079
     10 C          -8.1226  -15.6579   22.2454 C.3     1  UNL1        0.0111
     11 C          -7.3907  -16.5382   23.2147 C.3     1  UNL1        0.0634
     12 C          -7.2889  -16.1423   24.6579 C.ar    1  UNL1        0.0818
     13 C          -6.0449  -15.4767   25.1672 C.ar    1  UNL1        0.1139
     14 N          -5.9432  -15.0808   26.6104 N.ar    1  UNL1       -0.2394
     15 C          -7.0855  -15.3504   27.5444 C.ar    1  UNL1        0.1195
     16 C          -8.3296  -16.0160   27.0352 C.ar    1  UNL1        0.1191
     17 N          -8.4313  -16.4119   25.5920 N.ar    1  UNL1       -0.2446
     18 C          -8.9741  -19.2760   22.4106 C.3     1  UNL1        0.0394
     19 C          -9.7849  -19.1274   21.1575 C.3     1  UNL1        0.0765
     20 N         -10.8085  -18.0361   21.0515 N.3     1  UNL1       -0.2709
     21 C         -11.3159  -17.6119   19.7051 C.3     1  UNL1        0.0896
     22 C         -11.3247  -17.3689   22.2918 C.3     1  UNL1        0.0810
     23 C         -12.7429  -17.5900   22.7275 C.3     1  UNL1        0.1206
     24 C         -13.0299  -18.1790   24.0768 C.3     1  UNL1        0.3991
     25 F         -13.3168  -18.7680   25.4262 F       1  UNL1       -0.1700
     26 F         -11.5729  -18.0949   24.4233 F       1  UNL1       -0.1700
     27 F         -14.4868  -18.2630   23.7303 F       1  UNL1       -0.1700
@<TRIPOS>BOND
     1    11    10    1
     2    11     1    1
     3     1     2    2
     4     2    18    1
     5    18    19    1
     6    19    20    1
     7    20    21    1
     8    20    22    1
     9    22    23    1
    10    23    24    1
    11    24    25    1
    12    24    26    1
    13    24    27    1
    14     2     3    1
    15     3     4    1
    16     4     5   ar
    17     5     6   ar
    18     6     7   ar
    19     7     8   ar
    20     8     9   ar
    21    11    12    1
    22    12    13   ar
    23    13    14   ar
    24    14    15   ar
    25    15    16   ar
    26    16    17   ar
    27     9     1    1
    28    17    12   ar
    29     9     4   ar
@<TRIPOS>MOLECULE
*****
 27 29 0 0 0
SMALL
GASTEIGER

@<TRIPOS>ATOM
      1 C          -7.9278  -17.8691   22.8280 C.2     1  UNL1       -0.0246
      2 C          -9.0025  -18.8432   23.2102 C.2     1  UNL1       -0.0421
      3 C          -8.6270  -20.1871   22.6597 C.3     1  UNL1        0.0480
      4 C          -7.3203  -20.0434   21.9372 C.ar    1  UNL1       -0.0184
      5 C          -6.4680  -21.0321   21.1981 C.ar    1  UNL1       -0.0040
      6 C          -5.1837  -20.5881   20.5631 C.ar    1  UNL1       -0.0003
      7 C          -4.7516  -19.1554   20.6671 C.ar    1  UNL1       -0.0000
      8 C          -5.6038  -18.1668   21.4062 C.ar    1  UNL1       -0.0006
      9 C          -6.8882  -18.6108   22.0412 C.ar    1  UNL1       -0.0079
     10 C          -8.2867  -15.3884   22.1440 C.3     1  UNL1        0.0111
     11 C          -7.8980  -16.4094   23.1720 C.3     1  UNL1        0.0634
     12 C          -7.4796  -15.9705   24.5440 C.ar    1  UNL1        0.0818
     13 C          -6.0561  -15.5753   24.8035 C.ar    1  UNL1        0.1139
     14 N          -5.6378  -15.1365   26.1755 N.ar    1  UNL1       -0.2394
     15 C          -6.6429  -15.0929   27.2880 C.ar    1  UNL1        0.1195
     16 C          -8.0665  -15.4881   27.0286 C.ar    1  UNL1        0.1191
     17 N          -8.4848  -15.9269   25.6566 N.ar    1  UNL1       -0.2446
     18 C         -10.2360  -18.5288   24.0035 C.3     1  UNL1        0.0394
     19 C         -11.5683  -18.4497   23.3188 C.3     1  UNL1        0.0765
     20 N         -11.7914  -17.4470   22.2258 N.3     1  UNL1       -0.2709
     21 C         -11.9830  -15.9983   22.5646 C.3     1  UNL1        0.0896
     22 C         -11.8229  -17.8928   20.7940 C.3     1  UNL1        0.0810
     23 C         -10.5425  -18.0465   20.0279 C.3     1  UNL1        0.1206
     24 C         -10.0545  -19.4134   19.6492 C.3     1  UNL1        0.3991
     25 F          -9.5666  -20.7804   19.2705 F       1  UNL1       -0.1700
     26 F          -8.8708  -18.8003   18.9616 F       1  UNL1       -0.1700
     27 F         -11.2382  -20.0265   20.3368 F       1  UNL1       -0.1700
@<TRIPOS>BOND
     1    11    10    1
     2    11     1    1
     3     1     2    2
     4     2    18    1
     5    18    19    1
     6    19    20    1
     7    20    21    1
     8    20    22    1
     9    22    23    1
    10    23    24    1
    11    24    25    1
    12    24    26    1
    13    24    27    1
    14     2     3    1
    15     3     4    1
    16     4     5   ar
    17     5     6   ar
    18     6     7   ar
    19     7     8   ar
    20     8     9   ar
    21    11    12    1
    22    12    13   ar
    23    13    14   ar
    24    14    15   ar
    25    15    16   ar
    26    16    17   ar
    27     9     1    1
    28    17    12   ar
    29     9     4   ar
@<TRIPOS>MOLECULE
*****
 27 29 0 0 0
SMALL
GASTEIGER

@<TRIPOS>ATOM
      1 C          -7.6438  -18.1561   21.9627 C.2     1  UNL1       -0.0246
      2 C          -7.5110  -16.8346   22.6598 C.2     1  UNL1       -0.0421
      3 C          -8.7003  -15.9965   22.2949 C.3     1  UNL1        0.0480
      4 C          -9.5681  -16.8001   21.3723 C.ar    1  UNL1       -0.0184
      5 C         -10.8685  -16.4889   20.6926 C.ar    1  UNL1       -0.0040
      6 C         -11.5159  -17.5123   19.8076 C.ar    1  UNL1       -0.0003
      7 C         -10.8629  -18.8470   19.6022 C.ar    1  UNL1       -0.0000
      8 C          -9.5625  -19.1583   20.2819 C.ar    1  UNL1       -0.0006
      9 C          -8.9151  -18.1348   21.1669 C.ar    1  UNL1       -0.0079
     10 C          -7.1040  -20.6025   22.6513 C.3     1  UNL1        0.0111
     11 C          -6.6752  -19.2984   22.0466 C.3     1  UNL1        0.0634
     12 C          -5.2779  -19.1368   21.5257 C.ar    1  UNL1        0.0818
     13 C          -4.1110  -19.2484   22.4616 C.ar    1  UNL1        0.1139
     14 N          -2.7137  -19.0868   21.9407 N.ar    1  UNL1       -0.2394
     15 C          -2.4832  -18.8135   20.4839 C.ar    1  UNL1        0.1195
     16 C          -3.6501  -18.7018   19.5480 C.ar    1  UNL1        0.1191
     17 N          -5.0474  -18.8635   20.0689 N.ar    1  UNL1       -0.2446
     18 C          -6.3864  -16.4234   23.5633 C.3     1  UNL1        0.0394
     19 C          -6.6363  -15.4495   24.6763 C.3     1  UNL1        0.0765
     20 N          -7.4311  -15.8703   25.8768 N.3     1  UNL1       -0.2709
     21 C          -6.8032  -15.8439   27.2389 C.3     1  UNL1        0.0896
     22 C          -8.8537  -16.3177   25.7153 C.3     1  UNL1        0.0810
     23 C          -9.1952  -17.7760   25.7969 C.3     1  UNL1        0.1206
     24 C         -10.0619  -18.4033   24.7457 C.3     1  UNL1        0.3991
     25 F         -10.9287  -19.0307   23.6943 F       1  UNL1       -0.1700
     26 F         -10.5974  -17.0507   24.3801 F       1  UNL1       -0.1700
     27 F          -9.5264  -19.7559   25.1112 F       1  UNL1       -0.1700
@<TRIPOS>BOND
     1    11    10    1
     2    11     1    1
     3     1     2    2
     4     2    18    1
     5    18    19    1
     6    19    20    1
     7    20    21    1
     8    20    22    1
     9    22    23    1
    10    23    24    1
    11    24    25    1
    12    24    26    1
    13    24    27    1
    14     2     3    1
    15     3     4    1
    16     4     5   ar
    17     5     6   ar
    18     6     7   ar
    19     7     8   ar
    20     8     9   ar
    21    11    12    1
    22    12    13   ar
    23    13    14   ar
    24    14    15   ar
    25    15    16   ar
    26    16    17   ar
    27     9     1    1
    28    17    12   ar
    29     9     4   ar
