@<TRIPOS>MOLECULE
*****
 34 37 0 0 0
SMALL
GASTEIGER

@<TRIPOS>ATOM
      1 C          -9.5668  -18.2981   21.4900 C.ar    1  UNL1        0.0951
      2 C         -10.5294  -18.4124   20.3453 C.ar    1  UNL1        0.1454
      3 F         -11.8484  -17.7004   20.4006 F       1  UNL1       -0.2040
      4 C         -10.1728  -19.2388   19.1453 C.ar    1  UNL1        0.0312
      5 C          -8.8537  -19.9508   19.0901 C.ar    1  UNL1        0.0204
      6 C          -7.8911  -19.8364   20.2348 C.ar    1  UNL1        0.0924
      7 C          -8.2477  -19.0101   21.4348 C.ar    1  UNL1        0.1598
      8 F          -7.2852  -18.8957   22.5796 F       1  UNL1       -0.2026
      9 O         -11.2606  -17.6424   23.3477 O.2     1  UNL1       -0.2864
     10 C          -9.9233  -17.4717   22.6901 C.2     1  UNL1        0.2016
     11 C          -8.9426  -16.4748   23.2325 C.ar    1  UNL1        0.0620
     12 C          -8.2257  -15.4222   22.4399 C.ar    1  UNL1        0.1038
     13 N          -7.3466  -14.6523   23.3803 N.ar    1  UNL1       -0.2268
     14 C          -7.5201  -15.2290   24.7541 C.ar    1  UNL1        0.1415
     15 N          -6.9073  -14.8741   26.0763 N.ar    1  UNL1       -0.3374
     16 C          -7.2810  -15.6455   27.3073 C.ar    1  UNL1        0.0744
     17 C          -8.2673  -16.7718   27.2160 C.ar    1  UNL1        0.0300
     18 C          -8.8801  -17.1268   25.8937 C.ar    1  UNL1        0.0622
     19 CL         -9.8665  -18.2531   25.8024 Cl      1  UNL1       -0.0821
     20 C          -8.5065  -16.3554   24.6627 C.ar    1  UNL1        0.0491
     21 H          -6.2599  -14.1348   26.1363 H       1  UNL1        0.1674
     22 N          -6.5720  -20.5484   20.1795 N.pl3   1  UNL1       -0.2127
     23 H          -6.5444  -21.5244   20.0532 H       1  UNL1        0.1738
     24 S          -5.2951  -19.7734   20.3167 S.O2    1  UNL1        0.0759
     25 O          -5.9789  -18.5516   19.7784 O.2     1  UNL1       -0.1499
     26 O          -4.6114  -20.9952   20.8550 O.2     1  UNL1       -0.1499
     27 C          -4.0182  -18.9985   20.4538 C.ar    1  UNL1        0.1547
     28 C          -3.1840  -18.7067   19.2417 C.ar    1  UNL1        0.0521
     29 C          -1.9071  -17.9318   19.3788 C.ar    1  UNL1        0.1416
     30 F          -1.0730  -17.6401   18.1667 F       1  UNL1       -0.2041
     31 C          -1.4642  -17.4486   20.7280 C.ar    1  UNL1        0.0320
     32 C          -2.2983  -17.7403   21.9401 C.ar    1  UNL1        0.0333
     33 C          -3.5753  -18.5153   21.8030 C.ar    1  UNL1        0.1590
     34 F          -4.4094  -18.8070   23.0151 F       1  UNL1       -0.2027
@<TRIPOS>BOND
     1     9    10    2
     2    10     1    1
     3     1     2   ar
     4     2     3    1
     5     2     4   ar
     6     4     5   ar
     7     5     6   ar
     8     6    22    1
     9    22    24    1
    10    24    25    2
    11    24    26    2
    12    24    27    1
    13    27    28   ar
    14    28    29   ar
    15    29    30    1
    16    29    31   ar
    17    31    32   ar
    18    32    33   ar
    19    33    34    1
    20     6     7   ar
    21     7     8    1
    22    10    11    1
    23    11    12   ar
    24    12    13   ar
    25    13    14   ar
    26    14    15   ar
    27    15    16   ar
    28    16    17   ar
    29    17    18   ar
    30    18    19    1
    31    18    20   ar
    32     7     1   ar
    33    20    11   ar
    34    33    27   ar
    35    20    14    1
    36    22    23    1
    37    15    21    1
@<TRIPOS>MOLECULE
*****
 34 37 0 0 0
SMALL
GASTEIGER

@<TRIPOS>ATOM
      1 C          -9.1187  -18.3074   21.1987 C.ar    1  UNL1        0.0951
      2 C          -9.9041  -18.7777   20.0105 C.ar    1  UNL1        0.1454
      3 F         -11.2856  -18.2465   19.7666 F       1  UNL1       -0.2040
      4 C          -9.3082  -19.7792   19.0662 C.ar    1  UNL1        0.0312
      5 C          -7.9267  -20.3105   19.3101 C.ar    1  UNL1        0.0204
      6 C          -7.1413  -19.8402   20.4983 C.ar    1  UNL1        0.0924
      7 C          -7.7372  -18.8386   21.4426 C.ar    1  UNL1        0.1598
      8 F          -6.9518  -18.3682   22.6308 F       1  UNL1       -0.2026
      9 O         -10.3219  -16.0419   21.6105 O.2     1  UNL1       -0.2864
     10 C          -9.7146  -17.3058   22.1431 C.2     1  UNL1        0.2016
     11 C          -9.7032  -17.5682   23.6199 C.ar    1  UNL1        0.0620
     12 C         -10.5316  -18.5904   24.3402 C.ar    1  UNL1        0.1038
     13 N         -10.2017  -18.5084   25.8012 N.ar    1  UNL1       -0.2268
     14 C          -9.1695  -17.4355   25.9838 C.ar    1  UNL1        0.1415
     15 N          -8.4703  -16.9126   27.2035 N.ar    1  UNL1       -0.3374
     16 C          -7.4630  -15.8086   27.0751 C.ar    1  UNL1        0.0744
     17 C          -7.1549  -15.2275   25.7270 C.ar    1  UNL1        0.0300
     18 C          -7.8541  -15.7504   24.5073 C.ar    1  UNL1        0.0622
     19 CL         -7.5460  -15.1693   23.1592 Cl      1  UNL1       -0.0821
     20 C          -8.8614  -16.8544   24.6357 C.ar    1  UNL1        0.0491
     21 H          -8.6725  -17.2940   28.0883 H       1  UNL1        0.1674
     22 N          -5.7598  -20.3714   20.7422 N.pl3   1  UNL1       -0.2127
     23 H          -5.6182  -21.3383   20.8612 H       1  UNL1        0.1738
     24 S          -4.5943  -19.4293   20.8048 S.O2    1  UNL1        0.0759
     25 O          -5.0297  -18.8046   19.5125 O.2     1  UNL1       -0.1499
     26 O          -4.1588  -20.0540   22.0971 O.2     1  UNL1       -0.1499
     27 C          -3.4287  -18.4873   20.8676 C.ar    1  UNL1        0.1547
     28 C          -2.3337  -18.5799   19.8465 C.ar    1  UNL1        0.0521
     29 C          -1.1681  -17.6379   19.9091 C.ar    1  UNL1        0.1416
     30 F          -0.0732  -17.7306   18.8880 F       1  UNL1       -0.2041
     31 C          -1.0974  -16.6033   20.9928 C.ar    1  UNL1        0.0320
     32 C          -2.1923  -16.5107   22.0139 C.ar    1  UNL1        0.0333
     33 C          -3.3580  -17.4526   21.9513 C.ar    1  UNL1        0.1590
     34 F          -4.4529  -17.3600   22.9724 F       1  UNL1       -0.2027
@<TRIPOS>BOND
     1     9    10    2
     2    10     1    1
     3     1     2   ar
     4     2     3    1
     5     2     4   ar
     6     4     5   ar
     7     5     6   ar
     8     6    22    1
     9    22    24    1
    10    24    25    2
    11    24    26    2
    12    24    27    1
    13    27    28   ar
    14    28    29   ar
    15    29    30    1
    16    29    31   ar
    17    31    32   ar
    18    32    33   ar
    19    33    34    1
    20     6     7   ar
    21     7     8    1
    22    10    11    1
    23    11    12   ar
    24    12    13   ar
    25    13    14   ar
    26    14    15   ar
    27    15    16   ar
    28    16    17   ar
    29    17    18   ar
    30    18    19    1
    31    18    20   ar
    32     7     1   ar
    33    20    11   ar
    34    33    27   ar
    35    20    14    1
    36    22    23    1
    37    15    21    1
@<TRIPOS>MOLECULE
*****
 34 37 0 0 0
SMALL
GASTEIGER

@<TRIPOS>ATOM
      1 C          -8.7863  -18.7213   20.8697 C.ar    1  UNL1        0.0951
      2 C          -9.5226  -19.2541   19.6765 C.ar    1  UNL1        0.1454
      3 F         -10.9278  -18.8073   19.4013 F       1  UNL1       -0.2040
      4 C          -8.8537  -20.2337   18.7584 C.ar    1  UNL1        0.0312
      5 C          -7.4485  -20.6806   19.0336 C.ar    1  UNL1        0.0204
      6 C          -6.7122  -20.1478   20.2268 C.ar    1  UNL1        0.0924
      7 C          -7.3811  -19.1681   21.1449 C.ar    1  UNL1        0.1598
      8 F          -6.6447  -18.6352   22.3382 F       1  UNL1       -0.2026
      9 O          -9.5070  -16.2875   21.4236 O.2     1  UNL1       -0.2864
     10 C          -9.4551  -17.7416   21.7879 C.2     1  UNL1        0.2016
     11 C         -10.0721  -18.2161   23.0701 C.ar    1  UNL1        0.0620
     12 C          -9.3394  -18.8259   24.2283 C.ar    1  UNL1        0.1038
     13 N         -10.3445  -19.1508   25.2933 N.ar    1  UNL1       -0.2268
     14 C         -11.6983  -18.7419   24.7933 C.ar    1  UNL1        0.1415
     15 N         -13.0626  -18.8209   25.4117 N.ar    1  UNL1       -0.3374
     16 C         -14.2585  -18.3222   24.6560 C.ar    1  UNL1        0.0744
     17 C         -14.0901  -17.7445   23.2820 C.ar    1  UNL1        0.0300
     18 C         -12.7258  -17.6655   22.6636 C.ar    1  UNL1        0.0622
     19 CL        -12.5574  -17.0878   21.2896 Cl      1  UNL1       -0.0821
     20 C         -11.5299  -18.1642   23.4193 C.ar    1  UNL1        0.0491
     21 H         -13.1732  -19.2000   26.3135 H       1  UNL1        0.1674
     22 N          -5.3070  -20.5946   20.5020 N.pl3   1  UNL1       -0.2127
     23 H          -5.1111  -21.5505   20.6327 H       1  UNL1        0.1738
     24 S          -4.2002  -19.5850   20.5780 S.O2    1  UNL1        0.0759
     25 O          -3.5386  -20.3914   21.6559 O.2     1  UNL1       -0.1499
     26 O          -4.8619  -18.7786   19.5001 O.2     1  UNL1       -0.1499
     27 C          -3.0936  -18.5753   20.6539 C.ar    1  UNL1        0.1547
     28 C          -1.9974  -18.5856   19.6300 C.ar    1  UNL1        0.0521
     29 C          -0.8907  -17.5759   19.7059 C.ar    1  UNL1        0.1416
     30 F           0.2055  -17.5863   18.6819 F       1  UNL1       -0.2041
     31 C          -0.8800  -16.5560   20.8056 C.ar    1  UNL1        0.0320
     32 C          -1.9762  -16.5457   21.8296 C.ar    1  UNL1        0.0333
     33 C          -3.0829  -17.5553   21.7537 C.ar    1  UNL1        0.1590
     34 F          -4.1791  -17.5450   22.7776 F       1  UNL1       -0.2027
@<TRIPOS>BOND
     1     9    10    2
     2    10     1    1
     3     1     2   ar
     4     2     3    1
     5     2     4   ar
     6     4     5   ar
     7     5     6   ar
     8     6    22    1
     9    22    24    1
    10    24    25    2
    11    24    26    2
    12    24    27    1
    13    27    28   ar
    14    28    29   ar
    15    29    30    1
    16    29    31   ar
    17    31    32   ar
    18    32    33   ar
    19    33    34    1
    20     6     7   ar
    21     7     8    1
    22    10    11    1
    23    11    12   ar
    24    12    13   ar
    25    13    14   ar
    26    14    15   ar
    27    15    16   ar
    28    16    17   ar
    29    17    18   ar
    30    18    19    1
    31    18    20   ar
    32     7     1   ar
    33    20    11   ar
    34    33    27   ar
    35    20    14    1
    36    22    23    1
    37    15    21    1
@<TRIPOS>MOLECULE
*****
 34 37 0 0 0
SMALL
GASTEIGER

@<TRIPOS>ATOM
      1 C          -9.2146  -18.1120   21.5204 C.ar    1  UNL1        0.0951
      2 C         -10.0653  -18.4540   20.3333 C.ar    1  UNL1        0.1454
      3 F         -11.4205  -17.8303   20.1772 F       1  UNL1       -0.2040
      4 C          -9.5608  -19.4196   19.3023 C.ar    1  UNL1        0.0312
      5 C          -8.2056  -20.0433   19.4584 C.ar    1  UNL1        0.0204
      6 C          -7.3548  -19.7014   20.6455 C.ar    1  UNL1        0.0924
      7 C          -7.8594  -18.7357   21.6765 C.ar    1  UNL1        0.1598
      8 F          -7.0086  -18.3937   22.8637 F       1  UNL1       -0.2026
      9 O         -11.1818  -17.0958   22.8794 O.2     1  UNL1       -0.2864
     10 C          -9.7191  -17.1463   22.5515 C.2     1  UNL1        0.2016
     11 C          -8.7607  -16.2312   23.2545 C.ar    1  UNL1        0.0620
     12 C          -7.9566  -15.1377   22.6161 C.ar    1  UNL1        0.1038
     13 N          -7.1372  -14.4797   23.6864 N.ar    1  UNL1       -0.2268
     14 C          -7.4348  -15.1666   24.9862 C.ar    1  UNL1        0.1415
     15 N          -6.9217  -14.9462   26.3784 N.ar    1  UNL1       -0.3374
     16 C          -7.4121  -15.8083   27.5036 C.ar    1  UNL1        0.0744
     17 C          -8.4155  -16.8909   27.2367 C.ar    1  UNL1        0.0300
     18 C          -8.9285  -17.1113   25.8445 C.ar    1  UNL1        0.0622
     19 CL         -9.9320  -18.1938   25.5776 Cl      1  UNL1       -0.0821
     20 C          -8.4382  -16.2491   24.7193 C.ar    1  UNL1        0.0491
     21 H          -6.2631  -14.2357   26.5536 H       1  UNL1        0.1674
     22 N          -5.9996  -20.3251   20.8017 N.pl3   1  UNL1       -0.2127
     23 H          -5.9200  -21.2846   21.0069 H       1  UNL1        0.1738
     24 S          -4.7657  -19.4867   20.6450 S.O2    1  UNL1        0.0759
     25 O          -5.3719  -18.8183   19.4468 O.2     1  UNL1       -0.1499
     26 O          -4.1594  -20.1552   21.8432 O.2     1  UNL1       -0.1499
     27 C          -3.5317  -18.6485   20.4884 C.ar    1  UNL1        0.1547
     28 C          -3.2421  -17.5498   21.4678 C.ar    1  UNL1        0.0521
     29 C          -2.0081  -16.7115   21.3113 C.ar    1  UNL1        0.1416
     30 F          -1.7185  -15.6129   22.2907 F       1  UNL1       -0.2041
     31 C          -1.0637  -16.9718   20.1754 C.ar    1  UNL1        0.0320
     32 C          -1.3533  -18.0704   19.1960 C.ar    1  UNL1        0.0333
     33 C          -2.5873  -18.9088   19.3525 C.ar    1  UNL1        0.1590
     34 F          -2.8768  -20.0074   18.3731 F       1  UNL1       -0.2027
@<TRIPOS>BOND
     1     9    10    2
     2    10     1    1
     3     1     2   ar
     4     2     3    1
     5     2     4   ar
     6     4     5   ar
     7     5     6   ar
     8     6    22    1
     9    22    24    1
    10    24    25    2
    11    24    26    2
    12    24    27    1
    13    27    28   ar
    14    28    29   ar
    15    29    30    1
    16    29    31   ar
    17    31    32   ar
    18    32    33   ar
    19    33    34    1
    20     6     7   ar
    21     7     8    1
    22    10    11    1
    23    11    12   ar
    24    12    13   ar
    25    13    14   ar
    26    14    15   ar
    27    15    16   ar
    28    16    17   ar
    29    17    18   ar
    30    18    19    1
    31    18    20   ar
    32     7     1   ar
    33    20    11   ar
    34    33    27   ar
    35    20    14    1
    36    22    23    1
    37    15    21    1
@<TRIPOS>MOLECULE
*****
 34 37 0 0 0
SMALL
GASTEIGER

@<TRIPOS>ATOM
      1 C          -8.1613  -16.7941   25.3266 C.ar    1  UNL1        0.0951
      2 C          -8.0894  -16.4179   26.7769 C.ar    1  UNL1        0.1454
      3 F          -9.1830  -16.8349   27.7150 F       1  UNL1       -0.2040
      4 C          -6.9238  -15.6247   27.2889 C.ar    1  UNL1        0.0312
      5 C          -5.8302  -15.2077   26.3508 C.ar    1  UNL1        0.0204
      6 C          -5.9021  -15.5839   24.9006 C.ar    1  UNL1        0.0924
      7 C          -7.0676  -16.3771   24.3885 C.ar    1  UNL1        0.1598
      8 F          -7.1396  -16.7533   22.9382 F       1  UNL1       -0.2026
      9 O          -9.8141  -18.7827   25.5783 O.2     1  UNL1       -0.2864
     10 C          -9.3269  -17.5874   24.8144 C.2     1  UNL1        0.2016
     11 C         -10.0051  -17.1851   23.5384 C.ar    1  UNL1        0.0620
     12 C         -10.8930  -15.9909   23.3503 C.ar    1  UNL1        0.1038
     13 N         -11.3511  -15.9742   21.9221 N.ar    1  UNL1       -0.2268
     14 C         -10.7464  -17.1582   21.2275 C.ar    1  UNL1        0.1415
     15 N         -10.8458  -17.6516   19.8144 N.ar    1  UNL1       -0.3374
     16 C         -10.1133  -18.8933   19.4004 C.ar    1  UNL1        0.0744
     17 C          -9.2814  -19.6417   20.3993 C.ar    1  UNL1        0.0300
     18 C          -9.1820  -19.1484   21.8123 C.ar    1  UNL1        0.0622
     19 CL         -8.3501  -19.8967   22.8113 Cl      1  UNL1       -0.0821
     20 C          -9.9145  -17.9066   22.2264 C.ar    1  UNL1        0.0491
     21 H         -11.3918  -17.1604   19.1588 H       1  UNL1        0.1674
     22 N          -4.8084  -15.1669   23.9625 N.pl3   1  UNL1       -0.2127
     23 H          -4.5752  -14.2148   23.8705 H       1  UNL1        0.1738
     24 S          -4.0703  -16.2004   23.1644 S.O2    1  UNL1        0.0759
     25 O          -3.8796  -15.2082   22.0558 O.2     1  UNL1       -0.1499
     26 O          -4.2610  -17.1926   24.2731 O.2     1  UNL1       -0.1499
     27 C          -3.3321  -17.2340   22.3665 C.ar    1  UNL1        0.1547
     28 C          -2.0071  -16.8989   21.7483 C.ar    1  UNL1        0.0521
     29 C          -1.2688  -17.9324   20.9504 C.ar    1  UNL1        0.1416
     30 F           0.0562  -17.5973   20.3323 F       1  UNL1       -0.2041
     31 C          -1.8556  -19.3011   20.7705 C.ar    1  UNL1        0.0320
     32 C          -3.1807  -19.6362   21.3886 C.ar    1  UNL1        0.0333
     33 C          -3.9189  -18.6027   22.1866 C.ar    1  UNL1        0.1590
     34 F          -5.2439  -18.9378   22.8046 F       1  UNL1       -0.2027
@<TRIPOS>BOND
     1     9    10    2
     2    10     1    1
     3     1     2   ar
     4     2     3    1
     5     2     4   ar
     6     4     5   ar
     7     5     6   ar
     8     6    22    1
     9    22    24    1
    10    24    25    2
    11    24    26    2
    12    24    27    1
    13    27    28   ar
    14    28    29   ar
    15    29    30    1
    16    29    31   ar
    17    31    32   ar
    18    32    33   ar
    19    33    34    1
    20     6     7   ar
    21     7     8    1
    22    10    11    1
    23    11    12   ar
    24    12    13   ar
    25    13    14   ar
    26    14    15   ar
    27    15    16   ar
    28    16    17   ar
    29    17    18   ar
    30    18    19    1
    31    18    20   ar
    32     7     1   ar
    33    20    11   ar
    34    33    27   ar
    35    20    14    1
    36    22    23    1
    37    15    21    1
@<TRIPOS>MOLECULE
*****
 34 37 0 0 0
SMALL
GASTEIGER

@<TRIPOS>ATOM
      1 C          -4.9833  -19.7184   21.1046 C.ar    1  UNL1        0.0951
      2 C          -3.6691  -20.2956   20.6687 C.ar    1  UNL1        0.1454
      3 F          -3.6310  -21.6012   19.9313 F       1  UNL1       -0.2040
      4 C          -2.3931  -19.5670   20.9703 C.ar    1  UNL1        0.0312
      5 C          -2.4312  -18.2613   21.7077 C.ar    1  UNL1        0.0204
      6 C          -3.7454  -17.6842   22.1436 C.ar    1  UNL1        0.0924
      7 C          -5.0214  -18.4127   21.8420 C.ar    1  UNL1        0.1598
      8 F          -6.3356  -17.8356   22.2778 F       1  UNL1       -0.2026
      9 O          -6.3227  -21.4021   19.6482 O.2     1  UNL1       -0.2864
     10 C          -6.2594  -20.4470   20.8030 C.2     1  UNL1        0.2016
     11 C          -7.4721  -20.2203   21.6562 C.ar    1  UNL1        0.0620
     12 C          -7.5836  -20.5080   23.1241 C.ar    1  UNL1        0.1038
     13 N          -8.9666  -20.1316   23.5664 N.ar    1  UNL1       -0.2268
     14 C          -9.7098  -19.6113   22.3719 C.ar    1  UNL1        0.1415
     15 N         -11.1083  -19.0947   22.2066 N.ar    1  UNL1       -0.3374
     16 C         -11.5831  -18.6329   20.8608 C.ar    1  UNL1        0.0744
     17 C         -10.6594  -18.6877   19.6802 C.ar    1  UNL1        0.0300
     18 C          -9.2609  -19.2043   19.8455 C.ar    1  UNL1        0.0622
     19 CL         -8.3372  -19.2591   18.6649 Cl      1  UNL1       -0.0821
     20 C          -8.7861  -19.6661   21.1913 C.ar    1  UNL1        0.0491
     21 H         -11.7145  -19.0587   22.9815 H       1  UNL1        0.1674
     22 N          -3.7835  -16.3785   22.8810 N.pl3   1  UNL1       -0.2127
     23 H          -3.0823  -15.7050   22.7260 H       1  UNL1        0.1738
     24 S          -4.8899  -16.0990   23.8545 S.O2    1  UNL1        0.0759
     25 O          -5.2663  -14.8740   23.0749 O.2     1  UNL1       -0.1499
     26 O          -4.5135  -17.3239   24.6340 O.2     1  UNL1       -0.1499
     27 C          -5.9963  -15.8195   24.8280 C.ar    1  UNL1        0.1547
     28 C          -7.4109  -15.7040   24.3427 C.ar    1  UNL1        0.0521
     29 C          -8.5174  -15.4245   25.3161 C.ar    1  UNL1        0.1416
     30 F          -9.9320  -15.3090   24.8308 F       1  UNL1       -0.2041
     31 C          -8.2093  -15.2606   26.7750 C.ar    1  UNL1        0.0320
     32 C          -6.7946  -15.3762   27.2602 C.ar    1  UNL1        0.0333
     33 C          -5.6881  -15.6556   26.2868 C.ar    1  UNL1        0.1590
     34 F          -4.2735  -15.7712   26.7721 F       1  UNL1       -0.2027
@<TRIPOS>BOND
     1     9    10    2
     2    10     1    1
     3     1     2   ar
     4     2     3    1
     5     2     4   ar
     6     4     5   ar
     7     5     6   ar
     8     6    22    1
     9    22    24    1
    10    24    25    2
    11    24    26    2
    12    24    27    1
    13    27    28   ar
    14    28    29   ar
    15    29    30    1
    16    29    31   ar
    17    31    32   ar
    18    32    33   ar
    19    33    34    1
    20     6     7   ar
    21     7     8    1
    22    10    11    1
    23    11    12   ar
    24    12    13   ar
    25    13    14   ar
    26    14    15   ar
    27    15    16   ar
    28    16    17   ar
    29    17    18   ar
    30    18    19    1
    31    18    20   ar
    32     7     1   ar
    33    20    11   ar
    34    33    27   ar
    35    20    14    1
    36    22    23    1
    37    15    21    1
@<TRIPOS>MOLECULE
*****
 34 37 0 0 0
SMALL
GASTEIGER

@<TRIPOS>ATOM
      1 C          -6.6939  -19.3030   21.4037 C.ar    1  UNL1        0.0951
      2 C          -5.5818  -20.2123   20.9716 C.ar    1  UNL1        0.1454
      3 F          -5.8929  -21.4742   20.2228 F       1  UNL1       -0.2040
      4 C          -4.1588  -19.8595   21.2885 C.ar    1  UNL1        0.0312
      5 C          -3.8477  -18.5976   22.0373 C.ar    1  UNL1        0.0204
      6 C          -4.9598  -17.6883   22.4693 C.ar    1  UNL1        0.0924
      7 C          -6.3828  -18.0411   22.1525 C.ar    1  UNL1        0.1598
      8 F          -7.4949  -17.1318   22.5845 F       1  UNL1       -0.2026
      9 O          -8.5041  -20.0248   19.6855 O.2     1  UNL1       -0.2864
     10 C          -8.1171  -19.6557   21.0868 C.2     1  UNL1        0.2016
     11 C          -9.1531  -19.6394   22.1715 C.ar    1  UNL1        0.0620
     12 C          -9.0726  -20.3705   23.4787 C.ar    1  UNL1        0.1038
     13 N         -10.3212  -20.0720   24.2544 N.ar    1  UNL1       -0.2268
     14 C         -11.1735  -19.1563   23.4265 C.ar    1  UNL1        0.1415
     15 N         -12.5136  -18.5315   23.6786 N.ar    1  UNL1       -0.3374
     16 C         -13.1318  -17.6394   22.6433 C.ar    1  UNL1        0.0744
     17 C         -12.4098  -17.3720   21.3560 C.ar    1  UNL1        0.0300
     18 C         -11.0697  -17.9968   21.1039 C.ar    1  UNL1        0.0622
     19 CL        -10.3477  -17.7294   19.8166 Cl      1  UNL1       -0.0821
     20 C         -10.4515  -18.8890   22.1392 C.ar    1  UNL1        0.0491
     21 H         -12.9875  -18.7070   24.5235 H       1  UNL1        0.1674
     22 N          -4.6487  -16.4264   23.2181 N.pl3   1  UNL1       -0.2127
     23 H          -3.8767  -15.8752   22.9546 H       1  UNL1        0.1738
     24 S          -5.5138  -16.0043   24.3685 S.O2    1  UNL1        0.0759
     25 O          -6.1372  -14.9435   23.5105 O.2     1  UNL1       -0.1499
     26 O          -4.8905  -17.0651   25.2265 O.2     1  UNL1       -0.1499
     27 C          -6.3789  -15.5823   25.5189 C.ar    1  UNL1        0.1547
     28 C          -5.8408  -14.6421   26.5565 C.ar    1  UNL1        0.0521
     29 C          -6.7058  -14.2200   27.7070 C.ar    1  UNL1        0.1416
     30 F          -6.1677  -13.2799   28.7446 F       1  UNL1       -0.2041
     31 C          -8.1090  -14.7381   27.8199 C.ar    1  UNL1        0.0320
     32 C          -8.6471  -15.6782   26.7822 C.ar    1  UNL1        0.0333
     33 C          -7.7820  -16.1003   25.6318 C.ar    1  UNL1        0.1590
     34 F          -8.3202  -17.0405   24.5942 F       1  UNL1       -0.2027
@<TRIPOS>BOND
     1     9    10    2
     2    10     1    1
     3     1     2   ar
     4     2     3    1
     5     2     4   ar
     6     4     5   ar
     7     5     6   ar
     8     6    22    1
     9    22    24    1
    10    24    25    2
    11    24    26    2
    12    24    27    1
    13    27    28   ar
    14    28    29   ar
    15    29    30    1
    16    29    31   ar
    17    31    32   ar
    18    32    33   ar
    19    33    34    1
    20     6     7   ar
    21     7     8    1
    22    10    11    1
    23    11    12   ar
    24    12    13   ar
    25    13    14   ar
    26    14    15   ar
    27    15    16   ar
    28    16    17   ar
    29    17    18   ar
    30    18    19    1
    31    18    20   ar
    32     7     1   ar
    33    20    11   ar
    34    33    27   ar
    35    20    14    1
    36    22    23    1
    37    15    21    1
@<TRIPOS>MOLECULE
*****
 34 37 0 0 0
SMALL
GASTEIGER

@<TRIPOS>ATOM
      1 C          -6.4881  -19.5967   21.1933 C.ar    1  UNL1        0.0951
      2 C          -6.4787  -20.5197   20.0110 C.ar    1  UNL1        0.1454
      3 F          -5.3150  -21.4392   19.7866 F       1  UNL1       -0.2040
      4 C          -7.6330  -20.5232   19.0531 C.ar    1  UNL1        0.0312
      5 C          -8.7967  -19.6037   19.2775 C.ar    1  UNL1        0.0204
      6 C          -8.8061  -18.6807   20.4598 C.ar    1  UNL1        0.0924
      7 C          -7.6518  -18.6772   21.4177 C.ar    1  UNL1        0.1598
      8 F          -7.6612  -17.7542   22.6001 F       1  UNL1       -0.2026
      9 O          -5.0423  -20.8097   22.9788 O.2     1  UNL1       -0.2864
     10 C          -5.3338  -19.5932   22.1513 C.2     1  UNL1        0.2016
     11 C          -4.4711  -18.3730   22.2817 C.ar    1  UNL1        0.0620
     12 C          -4.7296  -17.2028   23.1838 C.ar    1  UNL1        0.1038
     13 N          -3.6167  -16.2154   22.9924 N.ar    1  UNL1       -0.2268
     14 C          -2.6704  -16.7754   21.9722 C.ar    1  UNL1        0.1415
     15 N          -1.3962  -16.2434   21.3864 N.ar    1  UNL1       -0.3374
     16 C          -0.6500  -17.0449   20.3613 C.ar    1  UNL1        0.0744
     17 C          -1.1781  -18.3784   19.9221 C.ar    1  UNL1        0.0300
     18 C          -2.4523  -18.9104   20.5079 C.ar    1  UNL1        0.0622
     19 CL         -2.9804  -20.2439   20.0686 Cl      1  UNL1       -0.0821
     20 C          -3.1985  -18.1089   21.5329 C.ar    1  UNL1        0.0491
     21 H          -1.0496  -15.3682   21.6747 H       1  UNL1        0.1674
     22 N          -9.9698  -17.7612   20.6842 N.pl3   1  UNL1       -0.2127
     23 H         -10.1380  -17.0188   20.0599 H       1  UNL1        0.1738
     24 S         -10.8771  -17.9728   21.8598 S.O2    1  UNL1        0.0759
     25 O         -10.5573  -16.5935   22.3549 O.2     1  UNL1       -0.1499
     26 O         -11.1968  -19.3522   21.3647 O.2     1  UNL1       -0.1499
     27 C         -11.7843  -18.1846   23.0353 C.ar    1  UNL1        0.1547
     28 C         -13.2694  -18.0535   22.8698 C.ar    1  UNL1        0.0521
     29 C         -14.1768  -18.2652   24.0453 C.ar    1  UNL1        0.1416
     30 F         -15.6619  -18.1341   23.8796 F       1  UNL1       -0.2041
     31 C         -13.5992  -18.6081   25.3864 C.ar    1  UNL1        0.0320
     32 C         -12.1141  -18.7391   25.5520 C.ar    1  UNL1        0.0333
     33 C         -11.2067  -18.5274   24.3765 C.ar    1  UNL1        0.1590
     34 F          -9.7216  -18.6585   24.5422 F       1  UNL1       -0.2027
@<TRIPOS>BOND
     1     9    10    2
     2    10     1    1
     3     1     2   ar
     4     2     3    1
     5     2     4   ar
     6     4     5   ar
     7     5     6   ar
     8     6    22    1
     9    22    24    1
    10    24    25    2
    11    24    26    2
    12    24    27    1
    13    27    28   ar
    14    28    29   ar
    15    29    30    1
    16    29    31   ar
    17    31    32   ar
    18    32    33   ar
    19    33    34    1
    20     6     7   ar
    21     7     8    1
    22    10    11    1
    23    11    12   ar
    24    12    13   ar
    25    13    14   ar
    26    14    15   ar
    27    15    16   ar
    28    16    17   ar
    29    17    18   ar
    30    18    19    1
    31    18    20   ar
    32     7     1   ar
    33    20    11   ar
    34    33    27   ar
    35    20    14    1
    36    22    23    1
    37    15    21    1
@<TRIPOS>MOLECULE
*****
 34 37 0 0 0
SMALL
GASTEIGER

@<TRIPOS>ATOM
      1 C          -6.6264  -19.5548   20.7027 C.ar    1  UNL1        0.0951
      2 C          -7.5585  -20.3021   19.7955 C.ar    1  UNL1        0.1454
      3 F          -7.0884  -21.5413   19.0931 F       1  UNL1       -0.2040
      4 C          -8.9606  -19.8100   19.5909 C.ar    1  UNL1        0.0312
      5 C          -9.4307  -18.5708   20.2933 C.ar    1  UNL1        0.0204
      6 C          -8.4986  -17.8236   21.2005 C.ar    1  UNL1        0.0924
      7 C          -7.0965  -18.3156   21.4051 C.ar    1  UNL1        0.1598
      8 F          -6.1643  -17.5685   22.3122 F       1  UNL1       -0.2026
      9 O          -4.8288  -21.4091   20.4199 O.2     1  UNL1       -0.2864
     10 C          -5.2242  -20.0469   20.9074 C.2     1  UNL1        0.2016
     11 C          -4.2175  -19.1765   21.5995 C.ar    1  UNL1        0.0620
     12 C          -4.1932  -18.8491   23.0632 C.ar    1  UNL1        0.1038
     13 N          -3.0190  -17.9510   23.3177 N.ar    1  UNL1       -0.2268
     14 C          -2.3177  -17.7233   22.0114 C.ar    1  UNL1        0.1415
     15 N          -1.1004  -16.9242   21.6517 N.ar    1  UNL1       -0.3374
     16 C          -0.6237  -16.8825   20.2301 C.ar    1  UNL1        0.0744
     17 C          -1.3644  -17.6399   19.1682 C.ar    1  UNL1        0.0300
     18 C          -2.5818  -18.4391   19.5279 C.ar    1  UNL1        0.0622
     19 CL         -3.3225  -19.1965   18.4660 Cl      1  UNL1       -0.0821
     20 C          -3.0584  -18.4807   20.9495 C.ar    1  UNL1        0.0491
     21 H          -0.6142  -16.4271   22.3487 H       1  UNL1        0.1674
     22 N          -8.9687  -16.5844   21.9029 N.pl3   1  UNL1       -0.2127
     23 H          -9.6642  -16.0204   21.4937 H       1  UNL1        0.1738
     24 S          -8.3791  -16.2045   23.2288 S.O2    1  UNL1        0.0759
     25 O          -9.0448  -17.3890   23.8642 O.2     1  UNL1       -0.1499
     26 O          -7.7133  -15.0201   22.5934 O.2     1  UNL1       -0.1499
     27 C          -7.7894  -15.8246   24.5546 C.ar    1  UNL1        0.1547
     28 C          -8.6763  -15.6778   25.7555 C.ar    1  UNL1        0.0521
     29 C          -8.0867  -15.2978   27.0814 C.ar    1  UNL1        0.1416
     30 F          -8.9736  -15.1511   28.2822 F       1  UNL1       -0.2041
     31 C          -6.6102  -15.0646   27.2065 C.ar    1  UNL1        0.0320
     32 C          -5.7234  -15.2114   26.0056 C.ar    1  UNL1        0.0333
     33 C          -6.3130  -15.5913   24.6797 C.ar    1  UNL1        0.1590
     34 F          -5.4261  -15.7381   23.4789 F       1  UNL1       -0.2027
@<TRIPOS>BOND
     1     9    10    2
     2    10     1    1
     3     1     2   ar
     4     2     3    1
     5     2     4   ar
     6     4     5   ar
     7     5     6   ar
     8     6    22    1
     9    22    24    1
    10    24    25    2
    11    24    26    2
    12    24    27    1
    13    27    28   ar
    14    28    29   ar
    15    29    30    1
    16    29    31   ar
    17    31    32   ar
    18    32    33   ar
    19    33    34    1
    20     6     7   ar
    21     7     8    1
    22    10    11    1
    23    11    12   ar
    24    12    13   ar
    25    13    14   ar
    26    14    15   ar
    27    15    16   ar
    28    16    17   ar
    29    17    18   ar
    30    18    19    1
    31    18    20   ar
    32     7     1   ar
    33    20    11   ar
    34    33    27   ar
    35    20    14    1
    36    22    23    1
    37    15    21    1
