@<TRIPOS>MOLECULE
*****
 29 33 0 0 0
SMALL
GASTEIGER

@<TRIPOS>ATOM
      1 C           2.4074   -0.6954   20.1807 C.ar    1  UNL1        0.0004
      2 C           2.2155   -0.2944   18.7481 C.ar    1  UNL1        0.0031
      3 C           1.4037    0.9212   18.4119 C.ar    1  UNL1        0.0370
      4 C           0.7838    1.7359   19.5082 C.ar    1  UNL1        0.1415
      5 C           0.9757    1.3350   20.9408 C.ar    1  UNL1        0.0698
      6 C           1.7875    0.1193   21.2770 C.ar    1  UNL1        0.0061
      7 C           0.4492    2.0015   22.1771 C.ar    1  UNL1        0.1692
      8 N           0.7144    1.4971   23.5646 N.ar    1  UNL1       -0.1290
      9 N           0.0297    2.4174   24.5312 N.ar    1  UNL1       -0.1330
     10 C          -0.6586    3.4906   23.7410 C.ar    1  UNL1        0.1477
     11 N          -0.3994    3.2336   22.2861 N.ar    1  UNL1       -0.2945
     12 C          -0.9310    4.1034   21.1858 C.3     1  UNL1        0.1559
     13 C          -0.7453    3.9561   19.7047 C.3     1  UNL1        0.2298
     14 O           0.0179    2.9024   18.9581 O.3     1  UNL1       -0.4733
     15 C           4.5272   -5.2237   18.7661 C.3     1  UNL1        0.0521
     16 C           4.2792   -4.1753   19.8097 C.ar    1  UNL1        0.0594
     17 C           3.4673   -2.9595   19.4734 C.ar    1  UNL1        0.0147
     18 C           3.2193   -1.9111   20.5170 C.ar    1  UNL1        0.0027
     19 C           3.7830   -2.0782   21.8970 C.ar    1  UNL1        0.0207
     20 C           4.5948   -3.2939   22.2333 C.ar    1  UNL1        0.0984
     21 N           4.8429   -4.3424   21.1897 N.ar    1  UNL1       -0.2481
     22 C          -1.4647    4.6222   24.3066 C.3     1  UNL1        0.0922
     23 C          -2.9398    4.4575   24.5232 C.ar    1  UNL1       -0.0138
     24 C          -3.7528    3.6430   23.5610 C.ar    1  UNL1       -0.0038
     25 C          -5.2279    3.4783   23.7776 C.ar    1  UNL1        0.0006
     26 C          -5.8900    4.1281   24.9564 C.ar    1  UNL1        0.0114
     27 C          -5.0770    4.9425   25.9185 C.ar    1  UNL1        0.0574
     28 CL         -5.7391    5.5922   27.0972 Cl      1  UNL1       -0.0823
     29 C          -3.6019    5.1072   25.7019 C.ar    1  UNL1        0.0076
@<TRIPOS>BOND
     1    15    16    1
     2    16    17   ar
     3    17    18   ar
     4    18     1    1
     5     1     2   ar
     6     2     3   ar
     7     3     4   ar
     8     4     5   ar
     9     5     6   ar
    10     5     7    1
    11     7     8   ar
    12     8     9   ar
    13     9    10   ar
    14    10    22    1
    15    22    23    1
    16    23    24   ar
    17    24    25   ar
    18    25    26   ar
    19    26    27   ar
    20    27    28    1
    21    27    29   ar
    22    10    11   ar
    23    11    12    1
    24    12    13    1
    25    13    14    1
    26    18    19   ar
    27    19    20   ar
    28    20    21   ar
    29    21    16   ar
    30     6     1   ar
    31    11     7   ar
    32    14     4    1
    33    29    23   ar
@<TRIPOS>MOLECULE
*****
 29 33 0 0 0
SMALL
GASTEIGER

@<TRIPOS>ATOM
      1 C           0.3194    1.8928   26.8935 C.ar    1  UNL1        0.0004
      2 C          -0.7512    2.9296   26.7236 C.ar    1  UNL1        0.0031
      3 C          -1.2040    3.3216   25.3484 C.ar    1  UNL1        0.0370
      4 C          -0.5863    2.6768   24.1431 C.ar    1  UNL1        0.1415
      5 C           0.4842    1.6401   24.3130 C.ar    1  UNL1        0.0698
      6 C           0.9371    1.2480   25.6882 C.ar    1  UNL1        0.0061
      7 C           1.2261    0.8796   23.2542 C.ar    1  UNL1        0.1692
      8 N           2.2839   -0.1400   23.5569 N.ar    1  UNL1       -0.1290
      9 N           2.7922   -0.6816   22.2537 N.ar    1  UNL1       -0.1330
     10 C           2.0485    0.0032   21.1456 C.ar    1  UNL1        0.1477
     11 N           1.0807    0.9680   21.7639 N.ar    1  UNL1       -0.2945
     12 C           0.1574    1.8389   20.9644 C.3     1  UNL1        0.1559
     13 C          -0.8485    2.8363   21.4576 C.3     1  UNL1        0.2298
     14 O          -1.1794    3.2092   22.8724 O.3     1  UNL1       -0.4733
     15 C           0.7415    2.9481   31.9639 C.3     1  UNL1        0.0521
     16 C           0.9834    2.0284   30.8039 C.ar    1  UNL1        0.0594
     17 C           0.5304    2.4205   29.4287 C.ar    1  UNL1        0.0147
     18 C           0.7724    1.5007   28.2687 C.ar    1  UNL1        0.0027
     19 C           1.4672    0.1889   28.4839 C.ar    1  UNL1        0.0207
     20 C           1.9201   -0.2032   29.8591 C.ar    1  UNL1        0.0984
     21 N           1.6782    0.7165   31.0191 N.ar    1  UNL1       -0.2481
     22 C           2.2393   -0.2351   19.6769 C.3     1  UNL1        0.0922
     23 C           3.3623   -1.1067   19.1981 C.ar    1  UNL1       -0.0138
     24 C           4.5845   -0.4874   18.5878 C.ar    1  UNL1       -0.0038
     25 C           5.7075   -1.3590   18.1090 C.ar    1  UNL1        0.0006
     26 C           5.6081   -2.8499   18.2405 C.ar    1  UNL1        0.0114
     27 C           4.3859   -3.4693   18.8509 C.ar    1  UNL1        0.0574
     28 CL          4.2866   -4.9601   18.9824 Cl      1  UNL1       -0.0823
     29 C           3.2629   -2.5976   19.3297 C.ar    1  UNL1        0.0076
@<TRIPOS>BOND
     1    15    16    1
     2    16    17   ar
     3    17    18   ar
     4    18     1    1
     5     1     2   ar
     6     2     3   ar
     7     3     4   ar
     8     4     5   ar
     9     5     6   ar
    10     5     7    1
    11     7     8   ar
    12     8     9   ar
    13     9    10   ar
    14    10    22    1
    15    22    23    1
    16    23    24   ar
    17    24    25   ar
    18    25    26   ar
    19    26    27   ar
    20    27    28    1
    21    27    29   ar
    22    10    11   ar
    23    11    12    1
    24    12    13    1
    25    13    14    1
    26    18    19   ar
    27    19    20   ar
    28    20    21   ar
    29    21    16   ar
    30     6     1   ar
    31    11     7   ar
    32    14     4    1
    33    29    23   ar
@<TRIPOS>MOLECULE
*****
 29 33 0 0 0
SMALL
GASTEIGER

@<TRIPOS>ATOM
      1 C           2.5858    0.0141   19.1515 C.ar    1  UNL1        0.0004
      2 C           1.6762    0.5587   18.0904 C.ar    1  UNL1        0.0031
      3 C           0.5677    1.4981   18.4625 C.ar    1  UNL1        0.0370
      4 C           0.3687    1.8930   19.8959 C.ar    1  UNL1        0.1415
      5 C           1.2782    1.3484   20.9571 C.ar    1  UNL1        0.0698
      6 C           2.3868    0.4090   20.5849 C.ar    1  UNL1        0.0061
      7 C           1.2552    1.6111   22.4337 C.ar    1  UNL1        0.1692
      8 N           2.2287    0.9997   23.3972 N.ar    1  UNL1       -0.1290
      9 N           1.8920    1.4941   24.7728 N.ar    1  UNL1       -0.1330
     10 C           0.7104    2.4110   24.6594 C.ar    1  UNL1        0.1477
     11 N           0.3167    2.4834   23.2138 N.ar    1  UNL1       -0.2945
     12 C          -0.8303    3.3083   22.7100 C.3     1  UNL1        0.1559
     13 C          -1.3223    3.4647   21.3017 C.3     1  UNL1        0.2298
     14 O          -0.7886    2.8348   20.0492 O.3     1  UNL1       -0.4733
     15 C           4.5507   -4.7940   19.0043 C.3     1  UNL1        0.0521
     16 C           4.6769   -3.3294   18.7058 C.ar    1  UNL1        0.0594
     17 C           3.5682   -2.3899   19.0779 C.ar    1  UNL1        0.0147
     18 C           3.6944   -0.9254   18.7794 C.ar    1  UNL1        0.0027
     19 C           4.9291   -0.4002   18.1087 C.ar    1  UNL1        0.0207
     20 C           6.0376   -1.3397   17.7366 C.ar    1  UNL1        0.0984
     21 N           5.9115   -2.8043   18.0351 N.ar    1  UNL1       -0.2481
     22 C           0.0400    3.1295   25.7928 C.3     1  UNL1        0.0922
     23 C           0.0187    2.5163   27.1616 C.ar    1  UNL1       -0.0138
     24 C           0.7227    3.1955   28.2987 C.ar    1  UNL1       -0.0038
     25 C           0.7013    2.5822   29.6675 C.ar    1  UNL1        0.0006
     26 C          -0.0241    1.2899   29.8991 C.ar    1  UNL1        0.0114
     27 C          -0.7281    0.6107   28.7619 C.ar    1  UNL1        0.0574
     28 CL         -1.4534   -0.6816   28.9935 Cl      1  UNL1       -0.0823
     29 C          -0.7067    1.2240   27.3931 C.ar    1  UNL1        0.0076
@<TRIPOS>BOND
     1    15    16    1
     2    16    17   ar
     3    17    18   ar
     4    18     1    1
     5     1     2   ar
     6     2     3   ar
     7     3     4   ar
     8     4     5   ar
     9     5     6   ar
    10     5     7    1
    11     7     8   ar
    12     8     9   ar
    13     9    10   ar
    14    10    22    1
    15    22    23    1
    16    23    24   ar
    17    24    25   ar
    18    25    26   ar
    19    26    27   ar
    20    27    28    1
    21    27    29   ar
    22    10    11   ar
    23    11    12    1
    24    12    13    1
    25    13    14    1
    26    18    19   ar
    27    19    20   ar
    28    20    21   ar
    29    21    16   ar
    30     6     1   ar
    31    11     7   ar
    32    14     4    1
    33    29    23   ar
@<TRIPOS>MOLECULE
*****
 29 33 0 0 0
SMALL
GASTEIGER

@<TRIPOS>ATOM
      1 C           3.6925   -0.3427   19.5854 C.ar    1  UNL1        0.0004
      2 C           4.7384    0.3380   18.7531 C.ar    1  UNL1        0.0031
      3 C           4.4819    1.7086   18.2003 C.ar    1  UNL1        0.0370
      4 C           3.1796    2.3985   18.4798 C.ar    1  UNL1        0.1415
      5 C           2.1338    1.7177   19.3122 C.ar    1  UNL1        0.0698
      6 C           2.3902    0.3471   19.8649 C.ar    1  UNL1        0.0061
      7 C           0.7781    2.2233   19.7078 C.ar    1  UNL1        0.1692
      8 N          -0.1829    1.4387   20.5509 N.ar    1  UNL1       -0.1290
      9 N          -1.4215    2.2650   20.7329 N.ar    1  UNL1       -0.1330
     10 C          -1.2259    3.5603   20.0023 C.ar    1  UNL1        0.1477
     11 N           0.1334    3.5346   19.3687 N.ar    1  UNL1       -0.2945
     12 C           0.6852    4.6641   18.5503 C.3     1  UNL1        0.1559
     13 C           2.0179    4.7614   17.8689 C.3     1  UNL1        0.2298
     14 O           3.1280    3.7530   17.8375 O.3     1  UNL1       -0.4733
     15 C           4.4578   -5.4272   18.8348 C.3     1  UNL1        0.0521
     16 C           4.3316   -4.2556   19.7630 C.ar    1  UNL1        0.0594
     17 C           4.0752   -2.8849   19.2101 C.ar    1  UNL1        0.0147
     18 C           3.9490   -1.7134   20.1383 C.ar    1  UNL1        0.0027
     19 C           4.0793   -1.9124   21.6193 C.ar    1  UNL1        0.0207
     20 C           4.3357   -3.2830   22.1722 C.ar    1  UNL1        0.0984
     21 N           4.4619   -4.4547   21.2440 N.ar    1  UNL1       -0.2481
     22 C          -2.2161    4.6841   19.9198 C.3     1  UNL1        0.0922
     23 C          -3.6789    4.3858   19.7737 C.ar    1  UNL1       -0.0138
     24 C          -4.2193    3.9087   18.4583 C.ar    1  UNL1       -0.0038
     25 C          -5.6821    3.6104   18.3123 C.ar    1  UNL1        0.0006
     26 C          -6.6043    3.7892   19.4817 C.ar    1  UNL1        0.0114
     27 C          -6.0639    4.2663   20.7971 C.ar    1  UNL1        0.0574
     28 CL         -6.9861    4.4451   21.9664 Cl      1  UNL1       -0.0823
     29 C          -4.6011    4.5646   20.9431 C.ar    1  UNL1        0.0076
@<TRIPOS>BOND
     1    15    16    1
     2    16    17   ar
     3    17    18   ar
     4    18     1    1
     5     1     2   ar
     6     2     3   ar
     7     3     4   ar
     8     4     5   ar
     9     5     6   ar
    10     5     7    1
    11     7     8   ar
    12     8     9   ar
    13     9    10   ar
    14    10    22    1
    15    22    23    1
    16    23    24   ar
    17    24    25   ar
    18    25    26   ar
    19    26    27   ar
    20    27    28    1
    21    27    29   ar
    22    10    11   ar
    23    11    12    1
    24    12    13    1
    25    13    14    1
    26    18    19   ar
    27    19    20   ar
    28    20    21   ar
    29    21    16   ar
    30     6     1   ar
    31    11     7   ar
    32    14     4    1
    33    29    23   ar
@<TRIPOS>MOLECULE
*****
 29 33 0 0 0
SMALL
GASTEIGER

@<TRIPOS>ATOM
      1 C           3.8383   -1.6322   22.2884 C.ar    1  UNL1        0.0004
      2 C           4.5798   -2.2149   23.4548 C.ar    1  UNL1        0.0031
      3 C           4.3340   -1.6895   24.8380 C.ar    1  UNL1        0.0370
      4 C           3.3465   -0.5814   25.0549 C.ar    1  UNL1        0.1415
      5 C           2.6050    0.0013   23.8885 C.ar    1  UNL1        0.0698
      6 C           2.8508   -0.5241   22.5053 C.ar    1  UNL1        0.0061
      7 C           1.5859    1.1020   23.8835 C.ar    1  UNL1        0.1692
      8 N           0.9111    1.5978   22.6390 N.ar    1  UNL1       -0.1290
      9 N          -0.0351    2.6941   23.0301 N.ar    1  UNL1       -0.1330
     10 C           0.0549    2.8758   24.5163 C.ar    1  UNL1        0.1477
     11 N           1.0567    1.8918   25.0438 N.ar    1  UNL1       -0.2945
     12 C           1.4159    1.7760   26.4955 C.3     1  UNL1        0.1559
     13 C           2.3930    0.8419   27.1456 C.3     1  UNL1        0.2298
     14 O           3.2522   -0.2073   26.5044 O.3     1  UNL1       -0.4733
     15 C           3.8246   -0.9307   17.1398 C.3     1  UNL1        0.0521
     16 C           4.0773   -1.8069   18.3308 C.ar    1  UNL1        0.0594
     17 C           3.8314   -1.2815   19.7141 C.ar    1  UNL1        0.0147
     18 C           4.0841   -2.1577   20.9051 C.ar    1  UNL1        0.0027
     19 C           4.5826   -3.5593   20.7128 C.ar    1  UNL1        0.0207
     20 C           4.8285   -4.0847   19.3295 C.ar    1  UNL1        0.0984
     21 N           4.5758   -3.2085   18.1385 N.ar    1  UNL1       -0.2481
     22 C          -0.7207    3.8674   25.3319 C.3     1  UNL1        0.0922
     23 C          -2.2204    3.8498   25.3065 C.ar    1  UNL1       -0.0138
     24 C          -2.9953    4.1582   26.5533 C.ar    1  UNL1       -0.0038
     25 C          -4.4950    4.1406   26.5278 C.ar    1  UNL1        0.0006
     26 C          -5.2197    3.8145   25.2557 C.ar    1  UNL1        0.0114
     27 C          -4.4449    3.5061   24.0089 C.ar    1  UNL1        0.0574
     28 CL         -5.1696    3.1800   22.7368 Cl      1  UNL1       -0.0823
     29 C          -2.9452    3.5237   24.0344 C.ar    1  UNL1        0.0076
@<TRIPOS>BOND
     1    15    16    1
     2    16    17   ar
     3    17    18   ar
     4    18     1    1
     5     1     2   ar
     6     2     3   ar
     7     3     4   ar
     8     4     5   ar
     9     5     6   ar
    10     5     7    1
    11     7     8   ar
    12     8     9   ar
    13     9    10   ar
    14    10    22    1
    15    22    23    1
    16    23    24   ar
    17    24    25   ar
    18    25    26   ar
    19    26    27   ar
    20    27    28    1
    21    27    29   ar
    22    10    11   ar
    23    11    12    1
    24    12    13    1
    25    13    14    1
    26    18    19   ar
    27    19    20   ar
    28    20    21   ar
    29    21    16   ar
    30     6     1   ar
    31    11     7   ar
    32    14     4    1
    33    29    23   ar
@<TRIPOS>MOLECULE
*****
 29 33 0 0 0
SMALL
GASTEIGER

@<TRIPOS>ATOM
      1 C           7.7866   -4.7479   26.5999 C.ar    1  UNL1        0.0004
      2 C           9.0910   -5.3980   26.2455 C.ar    1  UNL1        0.0031
      3 C           9.4885   -5.5464   24.8067 C.ar    1  UNL1        0.0370
      4 C           8.5814   -5.0447   23.7225 C.ar    1  UNL1        0.1415
      5 C           7.2770   -4.3946   24.0769 C.ar    1  UNL1        0.0698
      6 C           6.8796   -4.2462   25.5157 C.ar    1  UNL1        0.0061
      7 C           6.2337   -3.8298   23.1592 C.ar    1  UNL1        0.1692
      8 N           4.9608   -3.2005   23.6427 N.ar    1  UNL1       -0.1290
      9 N           4.1776   -2.7574   22.4426 N.ar    1  UNL1       -0.1330
     10 C           4.9664   -3.1129   21.2173 C.ar    1  UNL1        0.1477
     11 N           6.2371   -3.7756   21.6601 N.ar    1  UNL1       -0.2945
     12 C           7.2848   -4.2728   20.7087 C.3     1  UNL1        0.1559
     13 C           8.5877   -4.9471   21.0213 C.3     1  UNL1        0.2298
     14 O           9.1648   -5.2906   22.3626 O.3     1  UNL1       -0.4733
     15 C           6.2121   -1.7593   30.5483 C.3     1  UNL1        0.0521
     16 C           6.6018   -3.1052   30.0129 C.ar    1  UNL1        0.0594
     17 C           6.9993   -3.2536   28.5741 C.ar    1  UNL1        0.0147
     18 C           7.3891   -4.5995   28.0387 C.ar    1  UNL1        0.0027
     19 C           7.3813   -5.7970   28.9420 C.ar    1  UNL1        0.0207
     20 C           6.9838   -5.6486   30.3807 C.ar    1  UNL1        0.0984
     21 N           6.5941   -4.3027   30.9162 N.ar    1  UNL1       -0.2481
     22 C           4.5564   -2.8514   19.7983 C.3     1  UNL1        0.0922
     23 C           3.7771   -1.6157   19.4582 C.ar    1  UNL1       -0.0138
     24 C           4.3551   -0.5994   18.5186 C.ar    1  UNL1       -0.0038
     25 C           3.5756    0.6364   18.1786 C.ar    1  UNL1        0.0006
     26 C           2.2184    0.8557   18.7782 C.ar    1  UNL1        0.0114
     27 C           1.6404   -0.1606   19.7179 C.ar    1  UNL1        0.0574
     28 CL          0.2831    0.0587   20.3176 Cl      1  UNL1       -0.0823
     29 C           2.4198   -1.3964   20.0579 C.ar    1  UNL1        0.0076
@<TRIPOS>BOND
     1    15    16    1
     2    16    17   ar
     3    17    18   ar
     4    18     1    1
     5     1     2   ar
     6     2     3   ar
     7     3     4   ar
     8     4     5   ar
     9     5     6   ar
    10     5     7    1
    11     7     8   ar
    12     8     9   ar
    13     9    10   ar
    14    10    22    1
    15    22    23    1
    16    23    24   ar
    17    24    25   ar
    18    25    26   ar
    19    26    27   ar
    20    27    28    1
    21    27    29   ar
    22    10    11   ar
    23    11    12    1
    24    12    13    1
    25    13    14    1
    26    18    19   ar
    27    19    20   ar
    28    20    21   ar
    29    21    16   ar
    30     6     1   ar
    31    11     7   ar
    32    14     4    1
    33    29    23   ar
@<TRIPOS>MOLECULE
*****
 29 33 0 0 0
SMALL
GASTEIGER

@<TRIPOS>ATOM
      1 C           7.2450   -4.9032   23.9236 C.ar    1  UNL1        0.0004
      2 C           7.9954   -6.1839   23.7078 C.ar    1  UNL1        0.0031
      3 C           8.4715   -6.9817   24.8853 C.ar    1  UNL1        0.0370
      4 C           8.1972   -6.4989   26.2788 C.ar    1  UNL1        0.1415
      5 C           7.4467   -5.2182   26.4946 C.ar    1  UNL1        0.0698
      6 C           6.9706   -4.4204   25.3171 C.ar    1  UNL1        0.0061
      7 C           7.0699   -4.5619   27.7897 C.ar    1  UNL1        0.1692
      8 N           6.3120   -3.2701   27.8716 N.ar    1  UNL1       -0.1290
      9 N           6.1241   -2.9340   29.3214 N.ar    1  UNL1       -0.1330
     10 C           6.7660   -4.0182   30.1354 C.ar    1  UNL1        0.1477
     11 N           7.3505   -5.0243   29.1888 N.ar    1  UNL1       -0.2945
     12 C           8.0772   -6.2571   29.6384 C.3     1  UNL1        0.1559
     13 C           8.7028   -7.3320   28.7999 C.3     1  UNL1        0.2298
     14 O           8.7562   -7.4396   27.3047 O.3     1  UNL1       -0.4733
     15 C           8.2151   -2.5498   19.3936 C.3     1  UNL1        0.0521
     16 C           7.2539   -2.9286   20.4810 C.ar    1  UNL1        0.0594
     17 C           7.7300   -3.7265   21.6586 C.ar    1  UNL1        0.0147
     18 C           6.7688   -4.1053   22.7460 C.ar    1  UNL1        0.0027
     19 C           5.3313   -3.6862   22.6559 C.ar    1  UNL1        0.0207
     20 C           4.8552   -2.8883   21.4784 C.ar    1  UNL1        0.0984
     21 N           5.8164   -2.5095   20.3909 N.ar    1  UNL1       -0.2481
     22 C           6.8147   -4.0845   31.6332 C.3     1  UNL1        0.0922
     23 C           6.3675   -2.9092   32.4510 C.ar    1  UNL1       -0.0138
     24 C           4.9558   -2.8386   32.9531 C.ar    1  UNL1       -0.0038
     25 C           4.5086   -1.6633   33.7709 C.ar    1  UNL1        0.0006
     26 C           5.4731   -0.5588   34.0865 C.ar    1  UNL1        0.0114
     27 C           6.8848   -0.6294   33.5844 C.ar    1  UNL1        0.0574
     28 CL          7.8493    0.4751   33.9001 Cl      1  UNL1       -0.0823
     29 C           7.3320   -1.8047   32.7666 C.ar    1  UNL1        0.0076
@<TRIPOS>BOND
     1    15    16    1
     2    16    17   ar
     3    17    18   ar
     4    18     1    1
     5     1     2   ar
     6     2     3   ar
     7     3     4   ar
     8     4     5   ar
     9     5     6   ar
    10     5     7    1
    11     7     8   ar
    12     8     9   ar
    13     9    10   ar
    14    10    22    1
    15    22    23    1
    16    23    24   ar
    17    24    25   ar
    18    25    26   ar
    19    26    27   ar
    20    27    28    1
    21    27    29   ar
    22    10    11   ar
    23    11    12    1
    24    12    13    1
    25    13    14    1
    26    18    19   ar
    27    19    20   ar
    28    20    21   ar
    29    21    16   ar
    30     6     1   ar
    31    11     7   ar
    32    14     4    1
    33    29    23   ar
@<TRIPOS>MOLECULE
*****
 29 33 0 0 0
SMALL
GASTEIGER

@<TRIPOS>ATOM
      1 C           2.8451   -1.5043   20.5489 C.ar    1  UNL1        0.0004
      2 C           1.8287   -1.0405   19.5481 C.ar    1  UNL1        0.0031
      3 C           0.9018    0.0886   19.8888 C.ar    1  UNL1        0.0370
      4 C           0.9915    0.7538   21.2302 C.ar    1  UNL1        0.1415
      5 C           2.0079    0.2900   22.2310 C.ar    1  UNL1        0.0698
      6 C           2.9348   -0.8391   21.8903 C.ar    1  UNL1        0.0061
      7 C           2.2638    0.8106   23.6142 C.ar    1  UNL1        0.1692
      8 N           3.3195    0.2558   24.5239 N.ar    1  UNL1       -0.1290
      9 N           3.2746    1.0261   25.8103 N.ar    1  UNL1       -0.1330
     10 C           2.1910    2.0570   25.6956 C.ar    1  UNL1        0.1477
     11 N           1.5663    1.9239   24.3383 N.ar    1  UNL1       -0.2945
     12 C           0.4408    2.7913   23.8581 C.3     1  UNL1        0.1559
     13 C          -0.2654    2.7598   22.5351 C.3     1  UNL1        0.2298
     14 O          -0.0202    1.8530   21.3655 O.3     1  UNL1       -0.4733
     15 C           7.4728   -3.8224   21.0085 C.3     1  UNL1        0.0521
     16 C           6.0859   -3.7925   20.4380 C.ar    1  UNL1        0.0594
     17 C           5.1590   -2.6634   20.7787 C.ar    1  UNL1        0.0147
     18 C           3.7721   -2.6334   20.2082 C.ar    1  UNL1        0.0027
     19 C           3.3120   -3.7326   19.2971 C.ar    1  UNL1        0.0207
     20 C           4.2388   -4.8617   18.9564 C.ar    1  UNL1        0.0984
     21 N           5.6258   -4.8917   19.5269 N.ar    1  UNL1       -0.2481
     22 C           1.8008    3.0472   26.7526 C.3     1  UNL1        0.0922
     23 C           1.1880    2.5714   28.0364 C.ar    1  UNL1       -0.0138
     24 C           1.6185    3.1733   29.3412 C.ar    1  UNL1       -0.0038
     25 C           1.0056    2.6975   30.6250 C.ar    1  UNL1        0.0006
     26 C          -0.0376    1.6200   30.6039 C.ar    1  UNL1        0.0114
     27 C          -0.4681    1.0182   29.2992 C.ar    1  UNL1        0.0574
     28 CL         -1.5114   -0.0593   29.2781 Cl      1  UNL1       -0.0823
     29 C           0.1447    1.4939   28.0153 C.ar    1  UNL1        0.0076
@<TRIPOS>BOND
     1    15    16    1
     2    16    17   ar
     3    17    18   ar
     4    18     1    1
     5     1     2   ar
     6     2     3   ar
     7     3     4   ar
     8     4     5   ar
     9     5     6   ar
    10     5     7    1
    11     7     8   ar
    12     8     9   ar
    13     9    10   ar
    14    10    22    1
    15    22    23    1
    16    23    24   ar
    17    24    25   ar
    18    25    26   ar
    19    26    27   ar
    20    27    28    1
    21    27    29   ar
    22    10    11   ar
    23    11    12    1
    24    12    13    1
    25    13    14    1
    26    18    19   ar
    27    19    20   ar
    28    20    21   ar
    29    21    16   ar
    30     6     1   ar
    31    11     7   ar
    32    14     4    1
    33    29    23   ar
@<TRIPOS>MOLECULE
*****
 29 33 0 0 0
SMALL
GASTEIGER

@<TRIPOS>ATOM
      1 C           6.4786   -3.5634   31.3138 C.ar    1  UNL1        0.0004
      2 C           6.9705   -4.9264   31.7013 C.ar    1  UNL1        0.0031
      3 C           7.3224   -5.9264   30.6401 C.ar    1  UNL1        0.0370
      4 C           7.1823   -5.5634   29.1914 C.ar    1  UNL1        0.1415
      5 C           6.6904   -4.2004   28.8040 C.ar    1  UNL1        0.0698
      6 C           6.3386   -3.2004   29.8652 C.ar    1  UNL1        0.0061
      7 C           6.4794   -3.6380   27.4295 C.ar    1  UNL1        0.1692
      8 N           5.9785   -2.2475   27.1735 N.ar    1  UNL1       -0.1290
      9 N           5.8976   -2.0500   25.6887 N.ar    1  UNL1       -0.1330
     10 C           6.3485   -3.3184   25.0272 C.ar    1  UNL1        0.1477
     11 N           6.7081   -4.2999   26.1030 N.ar    1  UNL1       -0.2945
     12 C           7.2043   -5.6875   25.8233 C.3     1  UNL1        0.1559
     13 C           7.5945   -6.7560   26.8011 C.3     1  UNL1        0.2298
     14 O           7.5847   -6.7007   28.3001 O.3     1  UNL1       -0.4733
     15 C           7.8211    0.4265   34.3599 C.3     1  UNL1        0.0521
     16 C           6.7979   -0.5684   33.8981 C.ar    1  UNL1        0.0594
     17 C           7.1498   -1.5684   32.8368 C.ar    1  UNL1        0.0147
     18 C           6.1267   -2.5634   32.3750 C.ar    1  UNL1        0.0027
     19 C           4.7517   -2.5583   32.9744 C.ar    1  UNL1        0.0207
     20 C           4.3997   -1.5583   34.0356 C.ar    1  UNL1        0.0984
     21 N           5.4229   -0.5633   34.4974 N.ar    1  UNL1       -0.2481
     22 C           6.4262   -3.5624   23.5491 C.3     1  UNL1        0.0922
     23 C           5.3525   -3.0348   22.6443 C.ar    1  UNL1       -0.0138
     24 C           4.5381   -1.8460   23.0607 C.ar    1  UNL1       -0.0038
     25 C           3.4643   -1.3185   22.1558 C.ar    1  UNL1        0.0006
     26 C           3.2050   -1.9797   20.8347 C.ar    1  UNL1        0.0114
     27 C           4.0194   -3.1686   20.4183 C.ar    1  UNL1        0.0574
     28 CL          3.7602   -3.8299   19.0972 Cl      1  UNL1       -0.0823
     29 C           5.0932   -3.6961   21.3232 C.ar    1  UNL1        0.0076
@<TRIPOS>BOND
     1    15    16    1
     2    16    17   ar
     3    17    18   ar
     4    18     1    1
     5     1     2   ar
     6     2     3   ar
     7     3     4   ar
     8     4     5   ar
     9     5     6   ar
    10     5     7    1
    11     7     8   ar
    12     8     9   ar
    13     9    10   ar
    14    10    22    1
    15    22    23    1
    16    23    24   ar
    17    24    25   ar
    18    25    26   ar
    19    26    27   ar
    20    27    28    1
    21    27    29   ar
    22    10    11   ar
    23    11    12    1
    24    12    13    1
    25    13    14    1
    26    18    19   ar
    27    19    20   ar
    28    20    21   ar
    29    21    16   ar
    30     6     1   ar
    31    11     7   ar
    32    14     4    1
    33    29    23   ar
