@<TRIPOS>MOLECULE
*****
 34 37 0 0 0
SMALL
GASTEIGER

@<TRIPOS>ATOM
      1 N          -7.6692  -19.4956   21.3804 N.3     1  UNL1       -0.2679
      2 C          -8.5100  -19.1129   22.5622 C.3     1  UNL1        0.0978
      3 C          -9.5301  -20.0726   23.0992 C.3     1  UNL1        0.0224
      4 C         -10.3709  -19.6899   24.2809 C.3     1  UNL1        0.0065
      5 C         -10.1917  -18.3475   24.9257 C.3     1  UNL1        0.0277
      6 C          -9.1716  -17.3878   24.3887 C.ar    1  UNL1       -0.0073
      7 C          -8.9924  -16.0453   25.0334 C.ar    1  UNL1       -0.0015
      8 C          -7.9723  -15.0856   24.4964 C.ar    1  UNL1        0.0203
      9 C          -7.1315  -15.4683   23.3147 C.ar    1  UNL1        0.0985
     10 N          -7.3107  -16.8107   22.6699 N.ar    1  UNL1       -0.2471
     11 C          -8.3308  -17.7705   23.2069 C.ar    1  UNL1        0.0695
     12 C          -8.1500  -19.2002   19.9907 C.3     1  UNL1        0.0725
     13 C          -9.3186  -19.9519   19.4256 C.3     1  UNL1        0.0191
     14 C         -10.7168  -19.4930   19.7160 C.3     1  UNL1        0.0227
     15 C         -11.0383  -18.0280   19.7268 C.3     1  UNL1        0.0910
     16 N         -11.7842  -15.5282   22.7178 N.am    1  UNL1       -0.3133
     17 C         -11.1351  -16.1448   21.5141 C.2     1  UNL1        0.2976
     18 O          -9.9338  -15.4947   20.8942 O.2     1  UNL1       -0.2531
     19 N         -11.6874  -17.4114   20.9305 N.am    1  UNL1       -0.2891
     20 H         -11.4217  -14.6969   23.1008 H       1  UNL1        0.1465
     21 H         -12.5726  -15.9549   23.1246 H       1  UNL1        0.1465
     22 H         -12.4758  -17.8381   21.3373 H       1  UNL1        0.1510
     23 C          -6.3476  -20.1738   21.5885 C.3     1  UNL1        0.0886
     24 C          -5.0780  -19.3772   21.5279 C.3     1  UNL1        0.0764
     25 C          -4.2219  -19.4230   20.2970 C.3     1  UNL1        0.0626
     26 C          -2.9523  -18.6263   20.2364 C.ar    1  UNL1        0.0577
     27 N          -2.0962  -18.6721   19.0056 N.ar    1  UNL1       -0.2484
     28 C          -0.8267  -17.8755   18.9451 C.ar    1  UNL1        0.0984
     29 C          -0.4133  -17.0331   20.1153 C.ar    1  UNL1        0.0204
     30 C          -1.2694  -16.9874   21.3462 C.ar    1  UNL1       -0.0002
     31 C          -2.5389  -17.7840   21.4067 C.ar    1  UNL1        0.0073
     32 C          -3.3950  -17.7382   22.6376 C.3     1  UNL1        0.0968
     33 N          -4.6646  -18.5348   22.6981 N.3     1  UNL1       -0.2934
     34 H          -5.4209  -17.8712   22.8650 H       1  UNL1        0.1236
@<TRIPOS>BOND
     1    16    17   am
     2    17    18    2
     3    17    19   am
     4    19    15    1
     5    15    14    1
     6    14    13    1
     7    13    12    1
     8    12     1    1
     9     1    23    1
    10    24    23    1
    11    24    25    1
    12    25    26    1
    13    26    27   ar
    14    27    28   ar
    15    28    29   ar
    16    29    30   ar
    17    30    31   ar
    18    31    32    1
    19    32    33    1
    20     2     1    1
    21     2     3    1
    22     3     4    1
    23     4     5    1
    24     5     6    1
    25     6     7   ar
    26     7     8   ar
    27     8     9   ar
    28     9    10   ar
    29    10    11   ar
    30    33    24    1
    31    11     2    1
    32    31    26   ar
    33    11     6   ar
    34    16    20    1
    35    16    21    1
    36    19    22    1
    37    33    34    1
@<TRIPOS>MOLECULE
*****
 34 37 0 0 0
SMALL
GASTEIGER

@<TRIPOS>ATOM
      1 N          -7.7139  -18.8647   21.3033 N.3     1  UNL1       -0.2679
      2 C          -8.9450  -19.1151   22.1229 C.3     1  UNL1        0.0978
      3 C          -8.9066  -20.1024   23.2515 C.3     1  UNL1        0.0224
      4 C         -10.1376  -20.3528   24.0712 C.3     1  UNL1        0.0065
      5 C         -11.4071  -19.6159   23.7622 C.3     1  UNL1        0.0277
      6 C         -11.4455  -18.6287   22.6336 C.ar    1  UNL1       -0.0073
      7 C         -12.7150  -17.8918   22.3246 C.ar    1  UNL1       -0.0015
      8 C         -12.7534  -16.9045   21.1959 C.ar    1  UNL1        0.0203
      9 C         -11.5223  -16.6541   20.3763 C.ar    1  UNL1        0.0985
     10 N         -10.2529  -17.3910   20.6853 N.ar    1  UNL1       -0.2471
     11 C         -10.2144  -18.3783   21.8139 C.ar    1  UNL1        0.0695
     12 C          -7.1947  -19.9309   20.3848 C.3     1  UNL1        0.0725
     13 C          -6.0278  -20.7765   20.8012 C.3     1  UNL1        0.0191
     14 C          -4.7172  -20.6523   20.0822 C.3     1  UNL1        0.0227
     15 C          -4.1444  -19.2959   19.7960 C.3     1  UNL1        0.0910
     16 N          -2.1312  -17.8973   22.9172 N.am    1  UNL1       -0.3133
     17 C          -2.5530  -18.7873   21.7857 C.2     1  UNL1        0.2976
     18 O          -1.8053  -20.0587   21.5127 O.2     1  UNL1       -0.2531
     19 N          -3.7225  -18.4059   20.9274 N.am    1  UNL1       -0.2891
     20 H          -1.3635  -18.1476   23.4805 H       1  UNL1        0.1465
     21 H          -2.6219  -17.0628   23.0964 H       1  UNL1        0.1465
     22 H          -4.2133  -17.5714   21.1067 H       1  UNL1        0.1510
     23 C          -7.0021  -17.5481   21.4021 C.3     1  UNL1        0.0886
     24 C          -6.7036  -16.9560   22.7476 C.3     1  UNL1        0.0764
     25 C          -7.8261  -16.6084   23.6798 C.3     1  UNL1        0.0626
     26 C          -7.5276  -16.0163   25.0253 C.ar    1  UNL1        0.0577
     27 N          -8.6501  -15.6686   25.9575 N.ar    1  UNL1       -0.2484
     28 C          -8.3515  -15.0765   27.3029 C.ar    1  UNL1        0.0984
     29 C          -6.9304  -14.8321   27.7162 C.ar    1  UNL1        0.0204
     30 C          -5.8079  -15.1798   26.7840 C.ar    1  UNL1       -0.0002
     31 C          -6.1065  -15.7718   25.4385 C.ar    1  UNL1        0.0073
     32 C          -4.9839  -16.1195   24.5063 C.3     1  UNL1        0.0968
     33 N          -5.2825  -16.7116   23.1608 N.3     1  UNL1       -0.2934
     34 H          -4.8058  -17.6126   23.1233 H       1  UNL1        0.1236
@<TRIPOS>BOND
     1    16    17   am
     2    17    18    2
     3    17    19   am
     4    19    15    1
     5    15    14    1
     6    14    13    1
     7    13    12    1
     8    12     1    1
     9     1    23    1
    10    24    23    1
    11    24    25    1
    12    25    26    1
    13    26    27   ar
    14    27    28   ar
    15    28    29   ar
    16    29    30   ar
    17    30    31   ar
    18    31    32    1
    19    32    33    1
    20     2     1    1
    21     2     3    1
    22     3     4    1
    23     4     5    1
    24     5     6    1
    25     6     7   ar
    26     7     8   ar
    27     8     9   ar
    28     9    10   ar
    29    10    11   ar
    30    33    24    1
    31    11     2    1
    32    31    26   ar
    33    11     6   ar
    34    16    20    1
    35    16    21    1
    36    19    22    1
    37    33    34    1
@<TRIPOS>MOLECULE
*****
 34 37 0 0 0
SMALL
GASTEIGER

@<TRIPOS>ATOM
      1 N          -7.8592  -17.8762   22.7046 N.3     1  UNL1       -0.2679
      2 C          -9.2893  -18.0991   23.0982 C.3     1  UNL1        0.0978
      3 C          -9.6131  -18.8747   24.3406 C.3     1  UNL1        0.0224
      4 C         -11.0432  -19.0977   24.7343 C.3     1  UNL1        0.0065
      5 C         -12.1496  -18.5450   23.8856 C.3     1  UNL1        0.0277
      6 C         -11.8259  -17.7693   22.6432 C.ar    1  UNL1       -0.0073
      7 C         -12.9323  -17.2166   21.7944 C.ar    1  UNL1       -0.0015
      8 C         -12.6086  -16.4409   20.5521 C.ar    1  UNL1        0.0203
      9 C         -11.1784  -16.2180   20.1584 C.ar    1  UNL1        0.0985
     10 N         -10.0720  -16.7707   21.0071 N.ar    1  UNL1       -0.2471
     11 C         -10.3957  -17.5464   22.2495 C.ar    1  UNL1        0.0695
     12 C          -7.3142  -16.4815   22.6164 C.3     1  UNL1        0.0725
     13 C          -7.0404  -15.7026   23.8688 C.3     1  UNL1        0.0191
     14 C          -5.6975  -15.7946   24.5307 C.3     1  UNL1        0.0227
     15 C          -5.5894  -15.7025   26.0239 C.3     1  UNL1        0.0910
     16 N          -8.7358  -14.3926   28.0574 N.am    1  UNL1       -0.3133
     17 C          -7.8205  -15.3034   27.2940 C.2     1  UNL1        0.2976
     18 O          -8.2211  -16.7259   27.0371 O.2     1  UNL1       -0.2531
     19 N          -6.5047  -14.7917   26.7874 N.am    1  UNL1       -0.2891
     20 H          -9.5994  -14.7285   28.3899 H       1  UNL1        0.1465
     21 H          -8.4728  -13.4590   28.2260 H       1  UNL1        0.1465
     22 H          -6.2418  -13.8581   26.9559 H       1  UNL1        0.1510
     23 C          -6.9740  -19.0479   22.3991 C.3     1  UNL1        0.0886
     24 C          -5.7634  -18.8674   21.5320 C.3     1  UNL1        0.0764
     25 C          -4.4148  -18.6703   22.1584 C.3     1  UNL1        0.0626
     26 C          -3.2041  -18.4898   21.2912 C.ar    1  UNL1        0.0577
     27 N          -1.8556  -18.2927   21.9176 N.ar    1  UNL1       -0.2484
     28 C          -0.6450  -18.1122   21.0504 C.ar    1  UNL1        0.0984
     29 C          -0.7831  -18.1288   19.5569 C.ar    1  UNL1        0.0204
     30 C          -2.1317  -18.3259   18.9305 C.ar    1  UNL1       -0.0002
     31 C          -3.3422  -18.5064   19.7977 C.ar    1  UNL1        0.0073
     32 C          -4.6909  -18.7035   19.1713 C.3     1  UNL1        0.0968
     33 N          -5.9014  -18.8840   20.0384 N.3     1  UNL1       -0.2934
     34 H          -6.3095  -19.7853   19.7905 H       1  UNL1        0.1236
@<TRIPOS>BOND
     1    16    17   am
     2    17    18    2
     3    17    19   am
     4    19    15    1
     5    15    14    1
     6    14    13    1
     7    13    12    1
     8    12     1    1
     9     1    23    1
    10    24    23    1
    11    24    25    1
    12    25    26    1
    13    26    27   ar
    14    27    28   ar
    15    28    29   ar
    16    29    30   ar
    17    30    31   ar
    18    31    32    1
    19    32    33    1
    20     2     1    1
    21     2     3    1
    22     3     4    1
    23     4     5    1
    24     5     6    1
    25     6     7   ar
    26     7     8   ar
    27     8     9   ar
    28     9    10   ar
    29    10    11   ar
    30    33    24    1
    31    11     2    1
    32    31    26   ar
    33    11     6   ar
    34    16    20    1
    35    16    21    1
    36    19    22    1
    37    33    34    1
@<TRIPOS>MOLECULE
*****
 34 37 0 0 0
SMALL
GASTEIGER

@<TRIPOS>ATOM
      1 N          -9.0450  -18.4870   23.5197 N.3     1  UNL1       -0.2679
      2 C         -10.5135  -18.2213   23.3685 C.3     1  UNL1        0.0978
      3 C         -11.4746  -18.7036   24.4143 C.3     1  UNL1        0.0224
      4 C         -12.9431  -18.4379   24.2630 C.3     1  UNL1        0.0065
      5 C         -13.4505  -17.6899   23.0659 C.3     1  UNL1        0.0277
      6 C         -12.4895  -17.2076   22.0202 C.ar    1  UNL1       -0.0073
      7 C         -12.9969  -16.4596   20.8230 C.ar    1  UNL1       -0.0015
      8 C         -12.0358  -15.9774   19.7772 C.ar    1  UNL1        0.0203
      9 C         -10.5673  -16.2431   19.9285 C.ar    1  UNL1        0.0985
     10 N         -10.0599  -16.9910   21.1255 N.ar    1  UNL1       -0.2471
     11 C         -11.0209  -17.4733   22.1714 C.ar    1  UNL1        0.0695
     12 C          -8.2000  -17.5740   24.3578 C.3     1  UNL1        0.0725
     13 C          -8.8463  -16.4998   25.1816 C.3     1  UNL1        0.0191
     14 C          -8.1511  -15.9686   26.3999 C.3     1  UNL1        0.0227
     15 C          -6.7243  -15.5146   26.3111 C.3     1  UNL1        0.0910
     16 N          -4.7852  -14.6722   22.9524 N.am    1  UNL1       -0.3133
     17 C          -5.2622  -15.4140   24.1658 C.2     1  UNL1        0.2976
     18 O          -4.7539  -16.7969   24.4473 O.2     1  UNL1       -0.2531
     19 N          -6.2473  -14.7729   25.0977 N.am    1  UNL1       -0.2891
     20 H          -4.1386  -15.0930   22.3408 H       1  UNL1        0.1465
     21 H          -5.1188  -13.7645   22.7676 H       1  UNL1        0.1465
     22 H          -6.5809  -13.8652   24.9129 H       1  UNL1        0.1510
     23 C          -8.4214  -19.6658   22.8329 C.3     1  UNL1        0.0886
     24 C          -7.2351  -19.4700   21.9361 C.3     1  UNL1        0.0764
     25 C          -5.8470  -19.6074   22.4878 C.3     1  UNL1        0.0626
     26 C          -4.6607  -19.4117   21.5909 C.ar    1  UNL1        0.0577
     27 N          -3.2726  -19.5490   22.1426 N.ar    1  UNL1       -0.2484
     28 C          -2.0864  -19.3533   21.2457 C.ar    1  UNL1        0.0984
     29 C          -2.2881  -19.0203   19.7972 C.ar    1  UNL1        0.0204
     30 C          -3.6762  -18.8829   19.2455 C.ar    1  UNL1       -0.0002
     31 C          -4.8624  -19.0786   20.1423 C.ar    1  UNL1        0.0073
     32 C          -6.2506  -18.9413   19.5906 C.3     1  UNL1        0.0968
     33 N          -7.4368  -19.1370   20.4875 N.3     1  UNL1       -0.2934
     34 H          -7.9883  -19.8949   20.0851 H       1  UNL1        0.1236
@<TRIPOS>BOND
     1    16    17   am
     2    17    18    2
     3    17    19   am
     4    19    15    1
     5    15    14    1
     6    14    13    1
     7    13    12    1
     8    12     1    1
     9     1    23    1
    10    24    23    1
    11    24    25    1
    12    25    26    1
    13    26    27   ar
    14    27    28   ar
    15    28    29   ar
    16    29    30   ar
    17    30    31   ar
    18    31    32    1
    19    32    33    1
    20     2     1    1
    21     2     3    1
    22     3     4    1
    23     4     5    1
    24     5     6    1
    25     6     7   ar
    26     7     8   ar
    27     8     9   ar
    28     9    10   ar
    29    10    11   ar
    30    33    24    1
    31    11     2    1
    32    31    26   ar
    33    11     6   ar
    34    16    20    1
    35    16    21    1
    36    19    22    1
    37    33    34    1
@<TRIPOS>MOLECULE
*****
 34 37 0 0 0
SMALL
GASTEIGER

@<TRIPOS>ATOM
      1 N          -8.5706  -17.7939   22.8363 N.3     1  UNL1       -0.2679
      2 C          -9.8951  -17.3882   22.2608 C.3     1  UNL1        0.0978
      3 C          -9.9514  -16.6494   20.9566 C.3     1  UNL1        0.0224
      4 C         -11.2759  -16.2436   20.3811 C.3     1  UNL1        0.0065
      5 C         -12.5440  -16.5767   21.1097 C.3     1  UNL1        0.0277
      6 C         -12.4876  -17.3155   22.4139 C.ar    1  UNL1       -0.0073
      7 C         -13.7557  -17.6486   23.1427 C.ar    1  UNL1       -0.0015
      8 C         -13.6994  -18.3874   24.4469 C.ar    1  UNL1        0.0203
      9 C         -12.3749  -18.7931   25.0224 C.ar    1  UNL1        0.0985
     10 N         -11.1069  -18.4601   24.2937 N.ar    1  UNL1       -0.2471
     11 C         -11.1632  -17.7212   22.9895 C.ar    1  UNL1        0.0695
     12 C          -7.9121  -16.9391   23.8782 C.3     1  UNL1        0.0725
     13 C          -7.0094  -15.8146   23.4649 C.3     1  UNL1        0.0191
     14 C          -5.7269  -15.5720   24.2040 C.3     1  UNL1        0.0227
     15 C          -5.6992  -15.6456   25.7020 C.3     1  UNL1        0.0910
     16 N          -8.6239  -14.3827   28.0687 N.am    1  UNL1       -0.3133
     17 C          -7.7506  -15.2927   27.2567 C.2     1  UNL1        0.2976
     18 O          -8.0553  -16.7598   27.1876 O.2     1  UNL1       -0.2531
     19 N          -6.5725  -14.7356   26.5139 N.am    1  UNL1       -0.2891
     20 H          -9.3971  -14.7484   28.5562 H       1  UNL1        0.1465
     21 H          -8.4239  -13.4198   28.1141 H       1  UNL1        0.1465
     22 H          -6.3725  -13.7727   26.5593 H       1  UNL1        0.1510
     23 C          -7.9047  -19.0545   22.3699 C.3     1  UNL1        0.0886
     24 C          -6.6231  -18.9827   21.5938 C.3     1  UNL1        0.0764
     25 C          -5.3131  -18.8787   22.3171 C.3     1  UNL1        0.0626
     26 C          -4.0315  -18.8070   21.5409 C.ar    1  UNL1        0.0577
     27 N          -2.7215  -18.7030   22.2642 N.ar    1  UNL1       -0.2484
     28 C          -1.4400  -18.6313   21.4881 C.ar    1  UNL1        0.0984
     29 C          -1.4684  -18.6636   19.9887 C.ar    1  UNL1        0.0204
     30 C          -2.7783  -18.7676   19.2654 C.ar    1  UNL1       -0.0002
     31 C          -4.0599  -18.8393   20.0415 C.ar    1  UNL1        0.0073
     32 C          -5.3699  -18.9433   19.3183 C.3     1  UNL1        0.0968
     33 N          -6.6515  -19.0150   20.0944 N.3     1  UNL1       -0.2934
     34 H          -7.1091  -19.8866   19.8273 H       1  UNL1        0.1236
@<TRIPOS>BOND
     1    16    17   am
     2    17    18    2
     3    17    19   am
     4    19    15    1
     5    15    14    1
     6    14    13    1
     7    13    12    1
     8    12     1    1
     9     1    23    1
    10    24    23    1
    11    24    25    1
    12    25    26    1
    13    26    27   ar
    14    27    28   ar
    15    28    29   ar
    16    29    30   ar
    17    30    31   ar
    18    31    32    1
    19    32    33    1
    20     2     1    1
    21     2     3    1
    22     3     4    1
    23     4     5    1
    24     5     6    1
    25     6     7   ar
    26     7     8   ar
    27     8     9   ar
    28     9    10   ar
    29    10    11   ar
    30    33    24    1
    31    11     2    1
    32    31    26   ar
    33    11     6   ar
    34    16    20    1
    35    16    21    1
    36    19    22    1
    37    33    34    1
@<TRIPOS>MOLECULE
*****
 34 37 0 0 0
SMALL
GASTEIGER

@<TRIPOS>ATOM
      1 N          -7.4769  -18.5683   22.3739 N.3     1  UNL1       -0.2679
      2 C          -8.6169  -18.7606   21.4181 C.3     1  UNL1        0.0978
      3 C          -8.3635  -19.3278   20.0528 C.3     1  UNL1        0.0224
      4 C          -9.5035  -19.5200   19.0971 C.3     1  UNL1        0.0065
      5 C         -10.8969  -19.1451   19.5066 C.3     1  UNL1        0.0277
      6 C         -11.1504  -18.5779   20.8719 C.ar    1  UNL1       -0.0073
      7 C         -12.5438  -18.2029   21.2815 C.ar    1  UNL1       -0.0015
      8 C         -12.7973  -17.6357   22.6468 C.ar    1  UNL1        0.0203
      9 C         -11.6573  -17.4435   23.6025 C.ar    1  UNL1        0.0985
     10 N         -10.2638  -17.8184   23.1930 N.ar    1  UNL1       -0.2471
     11 C         -10.0104  -18.3856   21.8276 C.ar    1  UNL1        0.0695
     12 C          -7.5034  -17.4334   23.3542 C.3     1  UNL1        0.0725
     13 C          -6.9441  -16.0960   22.9687 C.3     1  UNL1        0.0191
     14 C          -5.9683  -15.4023   23.8723 C.3     1  UNL1        0.0227
     15 C          -5.9176  -15.7514   25.3302 C.3     1  UNL1        0.0910
     16 N          -8.6270  -14.5136   27.9528 N.am    1  UNL1       -0.3133
     17 C          -7.9124  -15.3713   26.9509 C.2     1  UNL1        0.2976
     18 O          -8.4780  -16.7067   26.5677 O.2     1  UNL1       -0.2531
     19 N          -6.6322  -14.8936   26.3321 N.am    1  UNL1       -0.2891
     20 H          -9.4672  -14.8271   28.3589 H       1  UNL1        0.1465
     21 H          -8.2557  -13.6371   28.2042 H       1  UNL1        0.1465
     22 H          -6.2609  -14.0172   26.5836 H       1  UNL1        0.1510
     23 C          -6.3105  -19.5110   22.3492 C.3     1  UNL1        0.0886
     24 C          -4.9388  -18.9986   22.0235 C.3     1  UNL1        0.0764
     25 C          -4.4378  -19.0424   20.6103 C.3     1  UNL1        0.0626
     26 C          -3.0661  -18.5300   20.2846 C.ar    1  UNL1        0.0577
     27 N          -2.5652  -18.5739   18.8714 N.ar    1  UNL1       -0.2484
     28 C          -1.1936  -18.0615   18.5457 C.ar    1  UNL1        0.0984
     29 C          -0.3229  -17.5053   19.6332 C.ar    1  UNL1        0.0204
     30 C          -0.8239  -17.4614   21.0463 C.ar    1  UNL1       -0.0002
     31 C          -2.1955  -17.9738   21.3720 C.ar    1  UNL1        0.0073
     32 C          -2.6966  -17.9299   22.7853 C.3     1  UNL1        0.0968
     33 N          -4.0682  -18.4423   23.1109 N.3     1  UNL1       -0.2934
     34 H          -4.5805  -17.6664   23.5303 H       1  UNL1        0.1236
@<TRIPOS>BOND
     1    16    17   am
     2    17    18    2
     3    17    19   am
     4    19    15    1
     5    15    14    1
     6    14    13    1
     7    13    12    1
     8    12     1    1
     9     1    23    1
    10    24    23    1
    11    24    25    1
    12    25    26    1
    13    26    27   ar
    14    27    28   ar
    15    28    29   ar
    16    29    30   ar
    17    30    31   ar
    18    31    32    1
    19    32    33    1
    20     2     1    1
    21     2     3    1
    22     3     4    1
    23     4     5    1
    24     5     6    1
    25     6     7   ar
    26     7     8   ar
    27     8     9   ar
    28     9    10   ar
    29    10    11   ar
    30    33    24    1
    31    11     2    1
    32    31    26   ar
    33    11     6   ar
    34    16    20    1
    35    16    21    1
    36    19    22    1
    37    33    34    1
@<TRIPOS>MOLECULE
*****
 34 37 0 0 0
SMALL
GASTEIGER

@<TRIPOS>ATOM
      1 N          -8.9318  -18.9276   23.1664 N.3     1  UNL1       -0.2679
      2 C         -10.0864  -18.4198   22.3546 C.3     1  UNL1        0.0978
      3 C          -9.8752  -18.0029   20.9293 C.3     1  UNL1        0.0224
      4 C         -11.0298  -17.4950   20.1175 C.3     1  UNL1        0.0065
      5 C         -12.3955  -17.4042   20.7309 C.3     1  UNL1        0.0277
      6 C         -12.6067  -17.8211   22.1562 C.ar    1  UNL1       -0.0073
      7 C         -13.9725  -17.7303   22.7698 C.ar    1  UNL1       -0.0015
      8 C         -14.1837  -18.1472   24.1951 C.ar    1  UNL1        0.0203
      9 C         -13.0291  -18.6550   25.0069 C.ar    1  UNL1        0.0985
     10 N         -11.6634  -18.7459   24.3934 N.ar    1  UNL1       -0.2471
     11 C         -11.4521  -18.3289   22.9680 C.ar    1  UNL1        0.0695
     12 C          -8.6005  -18.2871   24.4817 C.3     1  UNL1        0.0725
     13 C          -8.8497  -16.8222   24.6864 C.3     1  UNL1        0.0191
     14 C          -8.4852  -16.1743   25.9892 C.3     1  UNL1        0.0227
     15 C          -7.5041  -15.0399   26.0141 C.3     1  UNL1        0.0910
     16 N          -4.8821  -14.8673   23.0399 N.am    1  UNL1       -0.3133
     17 C          -5.5643  -15.2968   24.3049 C.2     1  UNL1        0.2976
     18 O          -4.9888  -16.4127   25.1257 O.2     1  UNL1       -0.2531
     19 N          -6.8219  -14.6104   24.7491 N.am    1  UNL1       -0.2891
     20 H          -4.0566  -15.3178   22.7484 H       1  UNL1        0.1465
     21 H          -5.2597  -14.1349   22.5012 H       1  UNL1        0.1465
     22 H          -7.1996  -13.8781   24.2104 H       1  UNL1        0.1510
     23 C          -8.1085  -20.0759   22.6630 C.3     1  UNL1        0.0886
     24 C          -6.8499  -19.8143   21.8898 C.3     1  UNL1        0.0764
     25 C          -5.8367  -18.8402   22.4136 C.3     1  UNL1        0.0626
     26 C          -4.5781  -18.5786   21.6405 C.ar    1  UNL1        0.0577
     27 N          -3.5650  -17.6044   22.1643 N.ar    1  UNL1       -0.2484
     28 C          -2.3065  -17.3429   21.3912 C.ar    1  UNL1        0.0984
     29 C          -2.0612  -18.0555   20.0943 C.ar    1  UNL1        0.0204
     30 C          -3.0744  -19.0296   19.5705 C.ar    1  UNL1       -0.0002
     31 C          -4.3328  -19.2912   20.3436 C.ar    1  UNL1        0.0073
     32 C          -5.3461  -20.2654   19.8198 C.3     1  UNL1        0.0968
     33 N          -6.6046  -20.5269   20.5929 N.3     1  UNL1       -0.2934
     34 H          -6.6219  -21.5259   20.7980 H       1  UNL1        0.1236
@<TRIPOS>BOND
     1    16    17   am
     2    17    18    2
     3    17    19   am
     4    19    15    1
     5    15    14    1
     6    14    13    1
     7    13    12    1
     8    12     1    1
     9     1    23    1
    10    24    23    1
    11    24    25    1
    12    25    26    1
    13    26    27   ar
    14    27    28   ar
    15    28    29   ar
    16    29    30   ar
    17    30    31   ar
    18    31    32    1
    19    32    33    1
    20     2     1    1
    21     2     3    1
    22     3     4    1
    23     4     5    1
    24     5     6    1
    25     6     7   ar
    26     7     8   ar
    27     8     9   ar
    28     9    10   ar
    29    10    11   ar
    30    33    24    1
    31    11     2    1
    32    31    26   ar
    33    11     6   ar
    34    16    20    1
    35    16    21    1
    36    19    22    1
    37    33    34    1
@<TRIPOS>MOLECULE
*****
 34 37 0 0 0
SMALL
GASTEIGER

@<TRIPOS>ATOM
      1 N          -6.5298  -19.0304   22.2243 N.3     1  UNL1       -0.2679
      2 C          -5.3168  -19.3073   21.3865 C.3     1  UNL1        0.0978
      3 C          -5.3123  -20.4651   20.4329 C.3     1  UNL1        0.0224
      4 C          -4.0993  -20.7420   19.5951 C.3     1  UNL1        0.0065
      5 C          -2.8908  -19.8610   19.7109 C.3     1  UNL1        0.0277
      6 C          -2.8953  -18.7032   20.6644 C.ar    1  UNL1       -0.0073
      7 C          -1.6868  -17.8221   20.7802 C.ar    1  UNL1       -0.0015
      8 C          -1.6914  -16.6643   21.7338 C.ar    1  UNL1        0.0203
      9 C          -2.9044  -16.3874   22.5716 C.ar    1  UNL1        0.0985
     10 N          -4.1129  -17.2684   22.4559 N.ar    1  UNL1       -0.2471
     11 C          -4.1084  -18.4263   21.5023 C.ar    1  UNL1        0.0695
     12 C          -6.6881  -17.6997   22.8982 C.3     1  UNL1        0.0725
     13 C          -7.9488  -16.9089   22.7099 C.3     1  UNL1        0.0191
     14 C          -7.8789  -15.4880   22.2344 C.3     1  UNL1        0.0227
     15 C          -8.8738  -14.9828   21.2320 C.3     1  UNL1        0.0910
     16 N         -12.3224  -16.1820   19.6763 N.am    1  UNL1       -0.3133
     17 C         -10.9930  -15.5025   19.8216 C.2     1  UNL1        0.2976
     18 O         -10.4534  -14.6632   18.7016 O.2     1  UNL1       -0.2531
     19 N         -10.2033  -15.6623   21.0868 N.am    1  UNL1       -0.2891
     20 H         -12.8407  -16.0771   18.8459 H       1  UNL1        0.1465
     21 H         -12.6766  -16.7329   20.4114 H       1  UNL1        0.1465
     22 H         -10.5574  -16.2132   21.8218 H       1  UNL1        0.1510
     23 C          -7.5846  -20.0843   22.3883 C.3     1  UNL1        0.0886
     24 C          -8.9071  -19.7326   23.0025 C.3     1  UNL1        0.0764
     25 C          -9.9742  -19.0886   22.1678 C.3     1  UNL1        0.0626
     26 C         -11.2967  -18.7369   22.7820 C.ar    1  UNL1        0.0577
     27 N         -12.3638  -18.0930   21.9473 N.ar    1  UNL1       -0.2484
     28 C         -13.6863  -17.7413   22.5615 C.ar    1  UNL1        0.0984
     29 C         -13.9417  -18.0336   24.0104 C.ar    1  UNL1        0.0204
     30 C         -12.8747  -18.6776   24.8451 C.ar    1  UNL1       -0.0002
     31 C         -11.5522  -19.0292   24.2309 C.ar    1  UNL1        0.0073
     32 C         -10.4851  -19.6732   25.0656 C.3     1  UNL1        0.0968
     33 N          -9.1626  -20.0249   24.4514 N.3     1  UNL1       -0.2934
     34 H          -9.0382  -21.0296   24.5755 H       1  UNL1        0.1236
@<TRIPOS>BOND
     1    16    17   am
     2    17    18    2
     3    17    19   am
     4    19    15    1
     5    15    14    1
     6    14    13    1
     7    13    12    1
     8    12     1    1
     9     1    23    1
    10    24    23    1
    11    24    25    1
    12    25    26    1
    13    26    27   ar
    14    27    28   ar
    15    28    29   ar
    16    29    30   ar
    17    30    31   ar
    18    31    32    1
    19    32    33    1
    20     2     1    1
    21     2     3    1
    22     3     4    1
    23     4     5    1
    24     5     6    1
    25     6     7   ar
    26     7     8   ar
    27     8     9   ar
    28     9    10   ar
    29    10    11   ar
    30    33    24    1
    31    11     2    1
    32    31    26   ar
    33    11     6   ar
    34    16    20    1
    35    16    21    1
    36    19    22    1
    37    33    34    1
@<TRIPOS>MOLECULE
*****
 34 37 0 0 0
SMALL
GASTEIGER

@<TRIPOS>ATOM
      1 N          -6.3608  -19.0187   22.2997 N.3     1  UNL1       -0.2679
      2 C          -5.2047  -19.2283   21.3672 C.3     1  UNL1        0.0978
      3 C          -5.2398  -20.3469   20.3686 C.3     1  UNL1        0.0224
      4 C          -4.0837  -20.5565   19.4361 C.3     1  UNL1        0.0065
      5 C          -2.8925  -19.6474   19.5022 C.3     1  UNL1        0.0277
      6 C          -2.8574  -18.5287   20.5009 C.ar    1  UNL1       -0.0073
      7 C          -1.6661  -17.6195   20.5670 C.ar    1  UNL1       -0.0015
      8 C          -1.6309  -16.5008   21.5656 C.ar    1  UNL1        0.0203
      9 C          -2.7870  -16.2913   22.4981 C.ar    1  UNL1        0.0985
     10 N          -3.9783  -17.2004   22.4320 N.ar    1  UNL1       -0.2471
     11 C          -4.0135  -18.3191   21.4333 C.ar    1  UNL1        0.0695
     12 C          -6.4331  -17.7765   23.1374 C.3     1  UNL1        0.0725
     13 C          -7.1242  -16.5546   22.6089 C.3     1  UNL1        0.0191
     14 C          -8.5590  -16.2937   22.9596 C.3     1  UNL1        0.0227
     15 C          -8.9161  -15.7771   24.3218 C.3     1  UNL1        0.0910
     16 N          -6.5823  -14.8328   27.3897 N.am    1  UNL1       -0.3133
     17 C          -7.6163  -15.5322   26.5580 C.2     1  UNL1        0.2976
     18 O          -8.3845  -16.6862   27.1309 O.2     1  UNL1       -0.2531
     19 N          -7.8821  -15.0777   25.1535 N.am    1  UNL1       -0.2891
     20 H          -6.4079  -15.1311   28.3115 H       1  UNL1        0.1465
     21 H          -6.0781  -14.0754   27.0137 H       1  UNL1        0.1465
     22 H          -7.3780  -14.3202   24.7775 H       1  UNL1        0.1510
     23 C          -7.4446  -20.0513   22.3945 C.3     1  UNL1        0.0886
     24 C          -8.7895  -19.6787   22.9447 C.3     1  UNL1        0.0764
     25 C          -9.8337  -19.0936   22.0407 C.3     1  UNL1        0.0626
     26 C         -11.1786  -18.7210   22.5909 C.ar    1  UNL1        0.0577
     27 N         -12.2228  -18.1358   21.6870 N.ar    1  UNL1       -0.2484
     28 C         -13.5676  -17.7633   22.2372 C.ar    1  UNL1        0.0984
     29 C         -13.8681  -17.9759   23.6913 C.ar    1  UNL1        0.0204
     30 C         -12.8239  -18.5610   24.5952 C.ar    1  UNL1       -0.0002
     31 C         -11.4791  -18.9335   24.0450 C.ar    1  UNL1        0.0073
     32 C         -10.4348  -19.5187   24.9490 C.3     1  UNL1        0.0968
     33 N          -9.0900  -19.8913   24.3988 N.3     1  UNL1       -0.2934
     34 H          -8.9616  -20.8861   24.5836 H       1  UNL1        0.1236
@<TRIPOS>BOND
     1    16    17   am
     2    17    18    2
     3    17    19   am
     4    19    15    1
     5    15    14    1
     6    14    13    1
     7    13    12    1
     8    12     1    1
     9     1    23    1
    10    24    23    1
    11    24    25    1
    12    25    26    1
    13    26    27   ar
    14    27    28   ar
    15    28    29   ar
    16    29    30   ar
    17    30    31   ar
    18    31    32    1
    19    32    33    1
    20     2     1    1
    21     2     3    1
    22     3     4    1
    23     4     5    1
    24     5     6    1
    25     6     7   ar
    26     7     8   ar
    27     8     9   ar
    28     9    10   ar
    29    10    11   ar
    30    33    24    1
    31    11     2    1
    32    31    26   ar
    33    11     6   ar
    34    16    20    1
    35    16    21    1
    36    19    22    1
    37    33    34    1
