@<TRIPOS>MOLECULE
*****
 34 37 0 0 0
SMALL
GASTEIGER

@<TRIPOS>ATOM
      1 C           6.9126   -2.3746   18.8428 C.2     1  UNL1        0.2551
      2 O           7.1879   -2.0885   17.3963 O.2     1  UNL1       -0.2694
      3 N           8.0322   -2.7864   19.7522 N.am    1  UNL1       -0.2738
      4 C           9.4270   -2.9121   19.2150 C.3     1  UNL1        0.1152
      5 C           7.7569   -3.0725   21.1987 C.3     1  UNL1        0.0972
      6 C           7.3609   -2.0649   22.2369 C.3     1  UNL1        0.0431
      7 C           7.1885   -2.7862   23.5408 C.3     1  UNL1        0.0968
      8 N           7.4779   -4.2395   23.3084 N.am    1  UNL1       -0.2623
      9 C           7.4253   -5.3252   24.3420 C.2     1  UNL1        0.3073
     10 O           7.7419   -6.7407   23.9597 O.2     1  UNL1       -0.2523
     11 N           7.0561   -4.9955   25.7580 N.am    1  UNL1       -0.2626
     12 C           6.7157   -3.6334   26.2860 C.3     1  UNL1        0.0964
     13 C           6.4117   -3.7660   27.7489 C.3     1  UNL1        0.0390
     14 C           6.5641   -5.2101   28.1249 C.3     1  UNL1        0.0758
     15 C           6.9623   -5.9700   26.8945 C.3     1  UNL1        0.1106
     16 C           7.8292   -4.4165   21.8609 C.3     1  UNL1        0.1147
     17 N           6.3550   -5.7921   29.4915 N.3     1  UNL1       -0.2982
     18 H           6.4076   -6.8058   29.3911 H       1  UNL1        0.1232
     19 C           7.2771   -5.4197   30.6144 C.3     1  UNL1        0.0541
     20 C           8.5948   -6.1202   30.7664 C.3     1  UNL1        0.0171
     21 C           6.8817   -4.3469   31.5853 C.3     1  UNL1        0.0171
     22 C           3.4552   -1.3114   20.2506 C.ar    1  UNL1        0.0296
     23 C           3.2871   -2.7993   20.1621 C.ar    1  UNL1        0.0071
     24 C           4.5617   -3.3788   19.6240 C.ar    1  UNL1        0.0115
     25 C           5.5177   -2.2489   19.3799 C.ar    1  UNL1        0.0830
     26 S           4.8338   -0.9713   19.7671 S.2     1  UNL1       -0.0824
     27 C           0.3663    1.6175   21.7101 C.ar    1  UNL1       -0.0222
     28 C           1.6583    1.4566   22.4549 C.ar    1  UNL1       -0.0043
     29 C           2.6879    0.4803   21.9684 C.ar    1  UNL1        0.0002
     30 C           2.4256   -0.3351   20.7371 C.ar    1  UNL1        0.0060
     31 C           1.1336   -0.1742   19.9922 C.ar    1  UNL1        0.0002
     32 C           0.1040    0.8021   20.4787 C.ar    1  UNL1       -0.0043
     33 C          -0.6020    3.1096   23.6037 C.3     1  UNL1        0.0050
     34 C          -0.6633    2.5938   22.1965 C.3     1  UNL1        0.0264
@<TRIPOS>BOND
     1    33    34    1
     2    34    27    1
     3    27    28   ar
     4    28    29   ar
     5    29    30   ar
     6    30    22    1
     7    22    23   ar
     8    23    24   ar
     9    24    25   ar
    10    25     1    1
    11     1     2    2
    12     1     3   am
    13     3     4    1
    14     5     3    1
    15     5     6    1
    16     6     7    1
    17     7     8    1
    18     8     9   am
    19     9    10    2
    20     9    11   am
    21    11    12    1
    22    12    13    1
    23    13    14    1
    24    14    17    1
    25    17    19    1
    26    19    20    1
    27    19    21    1
    28    14    15    1
    29     8    16    1
    30    25    26   ar
    31    30    31   ar
    32    31    32   ar
    33    32    27   ar
    34    26    22   ar
    35    16     5    1
    36    15    11    1
    37    17    18    1
@<TRIPOS>MOLECULE
*****
 34 37 0 0 0
SMALL
GASTEIGER

@<TRIPOS>ATOM
      1 C          -0.9985    3.2136   23.2524 C.2     1  UNL1        0.2551
      2 O          -1.7519    3.8252   22.1086 O.2     1  UNL1       -0.2694
      3 N          -1.5655    3.2709   24.6399 N.am    1  UNL1       -0.2738
      4 C          -2.8857    3.9397   24.8836 C.3     1  UNL1        0.1152
      5 C          -0.8121    2.6593   25.7838 C.3     1  UNL1        0.0972
      6 C          -0.3300    1.2412   25.8642 C.3     1  UNL1        0.0431
      7 C           0.3715    1.0638   27.1782 C.3     1  UNL1        0.0968
      8 N           0.3229    2.3723   27.9098 N.am    1  UNL1       -0.2623
      9 C           0.9038    2.6467   29.2653 C.2     1  UNL1        0.3073
     10 O           0.7768    4.0120   29.8734 O.2     1  UNL1       -0.2523
     11 N           1.6118    1.5558   30.0126 N.am    1  UNL1       -0.2626
     12 C           1.8160    0.1487   29.5347 C.3     1  UNL1        0.0964
     13 C           2.5703   -0.5964   30.5959 C.3     1  UNL1        0.0390
     14 C           2.8323    0.3503   31.7295 C.3     1  UNL1        0.0758
     15 C           2.2400    1.6804   31.3691 C.3     1  UNL1        0.1106
     16 C          -0.4086    3.3584   27.0481 C.3     1  UNL1        0.1147
     17 N           3.5591    0.0241   33.0005 N.3     1  UNL1       -0.2982
     18 H           2.8553   -0.2840   33.6714 H       1  UNL1        0.1232
     19 C           4.6412   -1.0148   33.0002 C.3     1  UNL1        0.0541
     20 C           6.0344   -0.6464   32.5840 C.3     1  UNL1        0.0171
     21 C           4.3300   -2.4220   33.4161 C.3     1  UNL1        0.0171
     22 C           2.0004    0.9323   22.3209 C.ar    1  UNL1        0.0296
     23 C           2.7066    2.0986   22.9461 C.ar    1  UNL1        0.0071
     24 C           1.6692    3.0952   23.3712 C.ar    1  UNL1        0.0115
     25 C           0.3218    2.5448   23.0086 C.ar    1  UNL1        0.0830
     26 S           0.5264    1.2081   22.3595 S.2     1  UNL1       -0.0824
     27 C           3.9593   -2.7477   20.6268 C.ar    1  UNL1       -0.0222
     28 C           4.1720   -2.3796   22.0653 C.ar    1  UNL1       -0.0043
     29 C           3.5190   -1.1529   22.6300 C.ar    1  UNL1        0.0002
     30 C           2.6533   -0.2944   21.7562 C.ar    1  UNL1        0.0060
     31 C           2.4407   -0.6625   20.3177 C.ar    1  UNL1        0.0002
     32 C           3.0937   -1.8892   19.7531 C.ar    1  UNL1       -0.0043
     33 C           3.8201   -4.9208   19.2097 C.3     1  UNL1        0.0050
     34 C           4.6123   -3.9744   20.0621 C.3     1  UNL1        0.0264
@<TRIPOS>BOND
     1    33    34    1
     2    34    27    1
     3    27    28   ar
     4    28    29   ar
     5    29    30   ar
     6    30    22    1
     7    22    23   ar
     8    23    24   ar
     9    24    25   ar
    10    25     1    1
    11     1     2    2
    12     1     3   am
    13     3     4    1
    14     5     3    1
    15     5     6    1
    16     6     7    1
    17     7     8    1
    18     8     9   am
    19     9    10    2
    20     9    11   am
    21    11    12    1
    22    12    13    1
    23    13    14    1
    24    14    17    1
    25    17    19    1
    26    19    20    1
    27    19    21    1
    28    14    15    1
    29     8    16    1
    30    25    26   ar
    31    30    31   ar
    32    31    32   ar
    33    32    27   ar
    34    26    22   ar
    35    16     5    1
    36    15    11    1
    37    17    18    1
@<TRIPOS>MOLECULE
*****
 34 37 0 0 0
SMALL
GASTEIGER

@<TRIPOS>ATOM
      1 C           0.4733    4.7876   20.2662 C.2     1  UNL1        0.2551
      2 O           0.4692    5.6546   19.0421 O.2     1  UNL1       -0.2694
      3 N           0.3934    5.4119   21.6277 N.am    1  UNL1       -0.2738
      4 C           0.3095    6.9032   21.7652 C.3     1  UNL1        0.1152
      5 C           0.3976    4.5449   22.8518 C.3     1  UNL1        0.0972
      6 C          -0.8128    4.0681   23.5986 C.3     1  UNL1        0.0431
      7 C          -0.3456    3.2310   24.7523 C.3     1  UNL1        0.0968
      8 N           1.1534    3.1904   24.7185 N.am    1  UNL1       -0.2623
      9 C           2.0379    2.4651   25.6889 C.2     1  UNL1        0.3073
     10 O           3.5283    2.5153   25.5273 O.2     1  UNL1       -0.2523
     11 N           1.4320    1.6895   26.8208 N.am    1  UNL1       -0.2626
     12 C          -0.0335    1.5490   27.1084 C.3     1  UNL1        0.0964
     13 C          -0.1861    0.6910   28.3293 C.3     1  UNL1        0.0390
     14 C           1.1851    0.3012   28.7962 C.3     1  UNL1        0.0758
     15 C           2.1851    0.9184   27.8640 C.3     1  UNL1        0.1106
     16 C           1.6128    4.0024   23.5439 C.3     1  UNL1        0.1147
     17 N           1.5007   -0.5553   29.9865 N.3     1  UNL1       -0.2982
     18 H           1.8100   -1.4579   29.6260 H       1  UNL1        0.1232
     19 C           2.5328   -0.1088   30.9792 C.3     1  UNL1        0.0541
     20 C           3.7098   -0.9873   31.2839 C.3     1  UNL1        0.0171
     21 C           2.3879    1.2162   31.6672 C.3     1  UNL1        0.0171
     22 C           1.4098    1.0597   19.7267 C.ar    1  UNL1        0.0296
     23 C          -0.0365    0.9431   20.1071 C.ar    1  UNL1        0.0071
     24 C          -0.5633    2.3254   20.3555 C.ar    1  UNL1        0.0115
     25 C           0.5573    3.2963   20.1286 C.ar    1  UNL1        0.0830
     26 S           1.7768    2.5140   19.7399 S.2     1  UNL1       -0.0824
     27 C           4.1640   -2.3543   18.7219 C.ar    1  UNL1       -0.0222
     28 C           3.3457   -2.3956   19.9783 C.ar    1  UNL1       -0.0043
     29 C           2.4276   -1.2576   20.3132 C.ar    1  UNL1        0.0002
     30 C           2.3279   -0.0783   19.3917 C.ar    1  UNL1        0.0060
     31 C           3.1461   -0.0370   18.1353 C.ar    1  UNL1        0.0002
     32 C           4.0642   -1.1749   17.8004 C.ar    1  UNL1       -0.0043
     33 C           4.7022   -4.8957   18.7555 C.3     1  UNL1        0.0050
     34 C           5.0821   -3.4922   18.3870 C.3     1  UNL1        0.0264
@<TRIPOS>BOND
     1    33    34    1
     2    34    27    1
     3    27    28   ar
     4    28    29   ar
     5    29    30   ar
     6    30    22    1
     7    22    23   ar
     8    23    24   ar
     9    24    25   ar
    10    25     1    1
    11     1     2    2
    12     1     3   am
    13     3     4    1
    14     5     3    1
    15     5     6    1
    16     6     7    1
    17     7     8    1
    18     8     9   am
    19     9    10    2
    20     9    11   am
    21    11    12    1
    22    12    13    1
    23    13    14    1
    24    14    17    1
    25    17    19    1
    26    19    20    1
    27    19    21    1
    28    14    15    1
    29     8    16    1
    30    25    26   ar
    31    30    31   ar
    32    31    32   ar
    33    32    27   ar
    34    26    22   ar
    35    16     5    1
    36    15    11    1
    37    17    18    1
@<TRIPOS>MOLECULE
*****
 34 37 0 0 0
SMALL
GASTEIGER

@<TRIPOS>ATOM
      1 C           5.7625   -0.3821   18.3015 C.2     1  UNL1        0.2551
      2 O           6.6044   -0.4561   17.0623 O.2     1  UNL1       -0.2694
      3 N           5.0374    0.8864   18.6410 N.am    1  UNL1       -0.2738
      4 C           5.1542    2.0808   17.7412 C.3     1  UNL1        0.1152
      5 C           4.1955    0.9604   19.8802 C.3     1  UNL1        0.0972
      6 C           2.6989    0.8770   19.9357 C.3     1  UNL1        0.0431
      7 C           2.2809    0.9959   21.3713 C.3     1  UNL1        0.0968
      8 N           3.5191    1.1527   22.2032 N.am    1  UNL1       -0.2623
      9 C           3.5659    1.3047   23.6947 C.2     1  UNL1        0.3073
     10 O           4.8855    1.4530   24.3925 O.2     1  UNL1       -0.2523
     11 N           2.2932    1.3086   24.4885 N.am    1  UNL1       -0.2626
     12 C           0.9069    1.1705   23.9324 C.3     1  UNL1        0.0964
     13 C          -0.0598    1.2277   25.0780 C.3     1  UNL1        0.0390
     14 C           0.7290    1.4011   26.3420 C.3     1  UNL1        0.0758
     15 C           2.1832    1.4511   25.9777 C.3     1  UNL1        0.1106
     16 C           4.7025    1.1308   21.2817 C.3     1  UNL1        0.1147
     17 N           0.1630    1.5061   27.7271 N.3     1  UNL1       -0.2982
     18 H          -0.7867    1.8654   27.6306 H       1  UNL1        0.1232
     19 C           0.0784    0.2871   28.5971 C.3     1  UNL1        0.0541
     20 C           1.3289   -0.3211   29.1595 C.3     1  UNL1        0.0171
     21 C          -1.2567   -0.3237   28.9047 C.3     1  UNL1        0.0171
     22 C           6.1250   -3.2424   20.9001 C.ar    1  UNL1        0.0296
     23 C           4.8072   -3.5869   20.2717 C.ar    1  UNL1        0.0071
     24 C           4.5110   -2.5574   19.2218 C.ar    1  UNL1        0.0115
     25 C           5.6458   -1.5765   19.2013 C.ar    1  UNL1        0.0830
     26 S           6.6432   -1.9999   20.2385 S.2     1  UNL1       -0.0824
     27 C           8.1653   -5.5340   24.1919 C.ar    1  UNL1       -0.0222
     28 C           6.9227   -4.7466   24.4849 C.ar    1  UNL1       -0.0043
     29 C           6.2426   -3.9828   23.3876 C.ar    1  UNL1        0.0002
     30 C           6.8051   -4.0063   21.9973 C.ar    1  UNL1        0.0060
     31 C           8.0477   -4.7936   21.7043 C.ar    1  UNL1        0.0002
     32 C           8.7278   -5.5574   22.8016 C.ar    1  UNL1       -0.0043
     33 C           8.5703   -7.7617   25.4658 C.3     1  UNL1        0.0050
     34 C           8.8454   -6.2978   25.2891 C.3     1  UNL1        0.0264
@<TRIPOS>BOND
     1    33    34    1
     2    34    27    1
     3    27    28   ar
     4    28    29   ar
     5    29    30   ar
     6    30    22    1
     7    22    23   ar
     8    23    24   ar
     9    24    25   ar
    10    25     1    1
    11     1     2    2
    12     1     3   am
    13     3     4    1
    14     5     3    1
    15     5     6    1
    16     6     7    1
    17     7     8    1
    18     8     9   am
    19     9    10    2
    20     9    11   am
    21    11    12    1
    22    12    13    1
    23    13    14    1
    24    14    17    1
    25    17    19    1
    26    19    20    1
    27    19    21    1
    28    14    15    1
    29     8    16    1
    30    25    26   ar
    31    30    31   ar
    32    31    32   ar
    33    32    27   ar
    34    26    22   ar
    35    16     5    1
    36    15    11    1
    37    17    18    1
@<TRIPOS>MOLECULE
*****
 34 37 0 0 0
SMALL
GASTEIGER

@<TRIPOS>ATOM
      1 C          -0.9622    4.5748   26.8799 C.2     1  UNL1        0.2551
      2 O          -1.6751    5.6358   27.6648 O.2     1  UNL1       -0.2694
      3 N          -0.6476    4.7982   25.4304 N.am    1  UNL1       -0.2738
      4 C          -1.0458    6.0826   24.7658 C.3     1  UNL1        0.1152
      5 C           0.0653    3.7372   24.6455 C.3     1  UNL1        0.0972
      6 C           1.3941    3.1309   24.9869 C.3     1  UNL1        0.0431
      7 C           1.7246    2.1152   23.9338 C.3     1  UNL1        0.0968
      8 N           0.6000    2.0937   22.9415 N.am    1  UNL1       -0.2623
      9 C           0.5156    1.2227   21.7232 C.2     1  UNL1        0.3073
     10 O          -0.6774    1.3122   20.8183 O.2     1  UNL1       -0.2523
     11 N           1.6243    0.2622   21.4097 N.am    1  UNL1       -0.2626
     12 C           2.8725    0.0626   22.2172 C.3     1  UNL1        0.0964
     13 C           3.6990   -0.9904   21.5403 C.3     1  UNL1        0.0390
     14 C           2.9616   -1.4415   20.3145 C.3     1  UNL1        0.0758
     15 C           1.6793   -0.6675   20.2338 C.3     1  UNL1        0.1106
     16 C          -0.4256    3.0961   23.3813 C.3     1  UNL1        0.1147
     17 N           3.4251   -2.4838   19.3405 N.3     1  UNL1       -0.2982
     18 H           2.5895   -2.8625   18.8946 H       1  UNL1        0.1232
     19 C           4.3729   -2.1122   18.2389 C.3     1  UNL1        0.0541
     20 C           5.7247   -2.7580   18.1630 C.3     1  UNL1        0.0171
     21 C           3.9691   -1.0949   17.2133 C.3     1  UNL1        0.0171
     22 C           0.5710    1.6802   28.9622 C.ar    1  UNL1        0.0296
     23 C          -0.4732    0.9478   28.1727 C.ar    1  UNL1        0.0071
     24 C          -1.1747    1.9430   27.2966 C.ar    1  UNL1        0.0115
     25 C          -0.5640    3.2904   27.5446 C.ar    1  UNL1        0.0830
     26 S           0.5149    3.1280   28.5740 S.2     1  UNL1       -0.0824
     27 C           3.3789   -0.1457   31.9675 C.ar    1  UNL1       -0.0222
     28 C           2.5653    1.0592   32.3366 C.ar    1  UNL1       -0.0043
     29 C           1.6293    1.6678   31.3348 C.ar    1  UNL1        0.0002
     30 C           1.5070    1.0715   29.9639 C.ar    1  UNL1        0.0060
     31 C           2.3206   -0.1333   29.5948 C.ar    1  UNL1        0.0002
     32 C           3.2565   -0.7419   30.5965 C.ar    1  UNL1       -0.0043
     33 C           4.2371   -2.2210   33.2738 C.3     1  UNL1        0.0050
     34 C           4.3149   -0.7543   32.9692 C.3     1  UNL1        0.0264
@<TRIPOS>BOND
     1    33    34    1
     2    34    27    1
     3    27    28   ar
     4    28    29   ar
     5    29    30   ar
     6    30    22    1
     7    22    23   ar
     8    23    24   ar
     9    24    25   ar
    10    25     1    1
    11     1     2    2
    12     1     3   am
    13     3     4    1
    14     5     3    1
    15     5     6    1
    16     6     7    1
    17     7     8    1
    18     8     9   am
    19     9    10    2
    20     9    11   am
    21    11    12    1
    22    12    13    1
    23    13    14    1
    24    14    17    1
    25    17    19    1
    26    19    20    1
    27    19    21    1
    28    14    15    1
    29     8    16    1
    30    25    26   ar
    31    30    31   ar
    32    31    32   ar
    33    32    27   ar
    34    26    22   ar
    35    16     5    1
    36    15    11    1
    37    17    18    1
@<TRIPOS>MOLECULE
*****
 34 37 0 0 0
SMALL
GASTEIGER

@<TRIPOS>ATOM
      1 C           6.0010   -1.8697   18.6625 C.2     1  UNL1        0.2551
      2 O           6.7640   -2.3403   17.4598 O.2     1  UNL1       -0.2694
      3 N           4.7391   -1.0779   18.4875 N.am    1  UNL1       -0.2738
      4 C           4.2402   -0.7568   17.1099 C.3     1  UNL1        0.1152
      5 C           3.9761   -0.6073   19.6901 C.3     1  UNL1        0.0972
      6 C           2.9303   -1.3863   20.4312 C.3     1  UNL1        0.0431
      7 C           2.4328   -0.5354   21.5619 C.3     1  UNL1        0.0968
      8 N           3.1712    0.7695   21.5197 N.am    1  UNL1       -0.2623
      9 C           2.9880    1.9173   22.4678 C.2     1  UNL1        0.3073
     10 O           3.8022    3.1659   22.3001 O.2     1  UNL1       -0.2523
     11 N           1.9907    1.8165   23.5837 N.am    1  UNL1       -0.2626
     12 C           1.1098    0.6379   23.8750 C.3     1  UNL1        0.0964
     13 C           0.2738    0.9696   25.0755 C.3     1  UNL1        0.0390
     14 C           0.6380    2.3532   25.5261 C.3     1  UNL1        0.0758
     15 C           1.6992    2.8766   24.6041 C.3     1  UNL1        0.1106
     16 C           4.1251    0.7252   20.3629 C.3     1  UNL1        0.1147
     17 N           0.0453    3.0848   26.6937 N.3     1  UNL1       -0.2982
     18 H          -0.9444    3.2183   26.4858 H       1  UNL1        0.1232
     19 C           0.1226    2.4906   28.0688 C.3     1  UNL1        0.0541
     20 C           1.0172    3.1072   29.1030 C.3     1  UNL1        0.0171
     21 C          -0.6945    1.2798   28.4097 C.3     1  UNL1        0.0171
     22 C           7.2219   -3.4177   22.0059 C.ar    1  UNL1        0.0296
     23 C           7.3138   -1.9526   22.3142 C.ar    1  UNL1        0.0071
     24 C           6.8676   -1.1943   21.0993 C.ar    1  UNL1        0.0115
     25 C           6.5000   -2.1908   20.0401 C.ar    1  UNL1        0.0830
     26 S           6.7190   -3.5649   20.6005 S.2     1  UNL1       -0.0824
     27 C           8.2710   -6.7807   24.8059 C.ar    1  UNL1       -0.0222
     28 C           8.8089   -6.7750   23.4057 C.ar    1  UNL1       -0.0043
     29 C           8.4592   -5.6540   22.4724 C.ar    1  UNL1        0.0002
     30 C           7.5716   -4.5387   22.9392 C.ar    1  UNL1        0.0060
     31 C           7.0337   -4.5443   24.3394 C.ar    1  UNL1        0.0002
     32 C           7.3833   -5.6653   25.2727 C.ar    1  UNL1       -0.0043
     33 C           7.6641   -8.3010   26.8234 C.3     1  UNL1        0.0050
     34 C           8.6206   -7.9017   25.7392 C.3     1  UNL1        0.0264
@<TRIPOS>BOND
     1    33    34    1
     2    34    27    1
     3    27    28   ar
     4    28    29   ar
     5    29    30   ar
     6    30    22    1
     7    22    23   ar
     8    23    24   ar
     9    24    25   ar
    10    25     1    1
    11     1     2    2
    12     1     3   am
    13     3     4    1
    14     5     3    1
    15     5     6    1
    16     6     7    1
    17     7     8    1
    18     8     9   am
    19     9    10    2
    20     9    11   am
    21    11    12    1
    22    12    13    1
    23    13    14    1
    24    14    17    1
    25    17    19    1
    26    19    20    1
    27    19    21    1
    28    14    15    1
    29     8    16    1
    30    25    26   ar
    31    30    31   ar
    32    31    32   ar
    33    32    27   ar
    34    26    22   ar
    35    16     5    1
    36    15    11    1
    37    17    18    1
@<TRIPOS>MOLECULE
*****
 34 37 0 0 0
SMALL
GASTEIGER

@<TRIPOS>ATOM
      1 C           3.9261   -0.7313   17.6727 C.2     1  UNL1        0.2551
      2 O           4.0572   -1.0112   16.2049 O.2     1  UNL1       -0.2694
      3 N           4.4994   -1.6906   18.6732 N.am    1  UNL1       -0.2738
      4 C           5.2038   -2.9297   18.2059 C.3     1  UNL1        0.1152
      5 C           4.3683   -1.4108   20.1410 C.3     1  UNL1        0.0972
      6 C           3.1516   -1.6626   20.9814 C.3     1  UNL1        0.0431
      7 C           3.4623   -1.2374   22.3860 C.3     1  UNL1        0.0968
      8 N           4.8710   -0.7229   22.4137 N.am    1  UNL1       -0.2623
      9 C           5.5930   -0.1941   23.6174 C.2     1  UNL1        0.3073
     10 O           7.0077    0.2884   23.4916 O.2     1  UNL1       -0.2523
     11 N           4.9002   -0.1477   24.9471 N.am    1  UNL1       -0.2626
     12 C           3.4951   -0.5928   25.2251 C.3     1  UNL1        0.0964
     13 C           3.2174   -0.3683   26.6821 C.3     1  UNL1        0.0390
     14 C           4.4510    0.2156   27.3044 C.3     1  UNL1        0.0758
     15 C           5.4911    0.3519   26.2321 C.3     1  UNL1        0.1106
     16 C           5.4310   -0.8300   21.0263 C.3     1  UNL1        0.1147
     17 N           4.6157    0.5963   28.7459 N.3     1  UNL1       -0.2982
     18 H           4.0111    1.4015   28.9087 H       1  UNL1        0.1232
     19 C           4.3094   -0.4002   29.8244 C.3     1  UNL1        0.0541
     20 C           2.9255   -0.4839   30.3971 C.3     1  UNL1        0.0171
     21 C           5.3869   -1.3129   30.3303 C.3     1  UNL1        0.0171
     22 C           1.4769    2.0684   18.7809 C.ar    1  UNL1        0.0296
     23 C           2.7984    2.7607   18.9371 C.ar    1  UNL1        0.0071
     24 C           3.8767    1.7962   18.5410 C.ar    1  UNL1        0.0115
     25 C           3.2217    0.5078   18.1399 C.ar    1  UNL1        0.0830
     26 S           1.7385    0.6760   18.2882 S.2     1  UNL1       -0.0824
     27 C          -2.5631    3.8550   19.6394 C.ar    1  UNL1       -0.0222
     28 C          -1.9140    4.0748   18.3051 C.ar    1  UNL1       -0.0043
     29 C          -0.5673    3.4793   18.0189 C.ar    1  UNL1        0.0002
     30 C           0.1302    2.6640   19.0670 C.ar    1  UNL1        0.0060
     31 C          -0.5188    2.4441   20.4013 C.ar    1  UNL1        0.0002
     32 C          -1.8655    3.0397   20.6875 C.ar    1  UNL1       -0.0043
     33 C          -5.0771    3.5569   20.2230 C.3     1  UNL1        0.0050
     34 C          -3.9097    4.4505   19.9256 C.3     1  UNL1        0.0264
@<TRIPOS>BOND
     1    33    34    1
     2    34    27    1
     3    27    28   ar
     4    28    29   ar
     5    29    30   ar
     6    30    22    1
     7    22    23   ar
     8    23    24   ar
     9    24    25   ar
    10    25     1    1
    11     1     2    2
    12     1     3   am
    13     3     4    1
    14     5     3    1
    15     5     6    1
    16     6     7    1
    17     7     8    1
    18     8     9   am
    19     9    10    2
    20     9    11   am
    21    11    12    1
    22    12    13    1
    23    13    14    1
    24    14    17    1
    25    17    19    1
    26    19    20    1
    27    19    21    1
    28    14    15    1
    29     8    16    1
    30    25    26   ar
    31    30    31   ar
    32    31    32   ar
    33    32    27   ar
    34    26    22   ar
    35    16     5    1
    36    15    11    1
    37    17    18    1
@<TRIPOS>MOLECULE
*****
 34 37 0 0 0
SMALL
GASTEIGER

@<TRIPOS>ATOM
      1 C           5.5512    0.0938   19.2902 C.2     1  UNL1        0.2551
      2 O           5.6188    0.7327   17.9347 O.2     1  UNL1       -0.2694
      3 N           6.7980   -0.4404   19.9306 N.am    1  UNL1       -0.2738
      4 C           8.1123   -0.3357   19.2155 C.3     1  UNL1        0.1152
      5 C           6.7304   -1.0792   21.2860 C.3     1  UNL1        0.0972
      6 C           6.4572   -0.3731   22.5809 C.3     1  UNL1        0.0431
      7 C           6.4821   -1.3938   23.6798 C.3     1  UNL1        0.0968
      8 N           6.7706   -2.7308   23.0640 N.am    1  UNL1       -0.2623
      9 C           6.8855   -4.0335   23.7987 C.2     1  UNL1        0.3073
     10 O           7.1796   -5.2964   23.0446 O.2     1  UNL1       -0.2523
     11 N           6.7064   -4.0733   25.2874 N.am    1  UNL1       -0.2626
     12 C           6.4101   -2.8984   26.1715 C.3     1  UNL1        0.0964
     13 C           6.3127   -3.3940   27.5839 C.3     1  UNL1        0.0390
     14 C           6.5488   -4.8752   27.5727 C.3     1  UNL1        0.0758
     15 C           6.7921   -5.2951   26.1534 C.3     1  UNL1        0.1106
     16 C           6.9241   -2.5364   21.5846 C.3     1  UNL1        0.1147
     17 N           6.5426   -5.7781   28.7706 N.3     1  UNL1       -0.2982
     18 H           6.1146   -6.6557   28.4756 H       1  UNL1        0.1232
     19 C           7.8325   -6.1321   29.4495 C.3     1  UNL1        0.0541
     20 C           8.1863   -5.5009   30.7634 C.3     1  UNL1        0.0171
     21 C           8.7685   -7.1174   28.8145 C.3     1  UNL1        0.0171
     22 C           2.3065    0.5213   21.3770 C.ar    1  UNL1        0.0296
     23 C           2.1216   -0.8648   20.8342 C.ar    1  UNL1        0.0071
     24 C           3.3145   -1.1936   19.9864 C.ar    1  UNL1        0.0115
     25 C           4.2368   -0.0108   20.0052 C.ar    1  UNL1        0.0830
     26 S           3.6138    1.0491   20.8646 S.2     1  UNL1       -0.0824
     27 C          -0.5575    2.7116   24.0695 C.ar    1  UNL1       -0.0222
     28 C           0.2890    1.6020   24.6192 C.ar    1  UNL1       -0.0043
     29 C           1.2437    0.8719   23.7216 C.ar    1  UNL1        0.0002
     30 C           1.3518    1.2514   22.2745 C.ar    1  UNL1        0.0060
     31 C           0.5053    2.3610   21.7249 C.ar    1  UNL1        0.0002
     32 C          -0.4494    3.0911   22.6224 C.ar    1  UNL1       -0.0043
     33 C          -2.9893    3.3531   24.7214 C.3     1  UNL1        0.0050
     34 C          -1.5122    3.4417   24.9671 C.3     1  UNL1        0.0264
@<TRIPOS>BOND
     1    33    34    1
     2    34    27    1
     3    27    28   ar
     4    28    29   ar
     5    29    30   ar
     6    30    22    1
     7    22    23   ar
     8    23    24   ar
     9    24    25   ar
    10    25     1    1
    11     1     2    2
    12     1     3   am
    13     3     4    1
    14     5     3    1
    15     5     6    1
    16     6     7    1
    17     7     8    1
    18     8     9   am
    19     9    10    2
    20     9    11   am
    21    11    12    1
    22    12    13    1
    23    13    14    1
    24    14    17    1
    25    17    19    1
    26    19    20    1
    27    19    21    1
    28    14    15    1
    29     8    16    1
    30    25    26   ar
    31    30    31   ar
    32    31    32   ar
    33    32    27   ar
    34    26    22   ar
    35    16     5    1
    36    15    11    1
    37    17    18    1
@<TRIPOS>MOLECULE
*****
 34 37 0 0 0
SMALL
GASTEIGER

@<TRIPOS>ATOM
      1 C          -3.0345  -19.8685   20.8399 C.2     1  UNL1        0.2551
      2 O          -1.6638  -20.4064   20.5537 O.2     1  UNL1       -0.2694
      3 N          -4.2429  -20.5573   20.2784 N.am    1  UNL1       -0.2738
      4 C          -4.0806  -21.7840   19.4306 C.3     1  UNL1        0.1152
      5 C          -5.6135  -20.0194   20.5647 C.3     1  UNL1        0.0972
      6 C          -6.3521  -19.0052   19.7426 C.3     1  UNL1        0.0431
      7 C          -7.6813  -18.7602   20.3932 C.3     1  UNL1        0.0968
      8 N          -7.7642  -19.6230   21.6173 N.am    1  UNL1       -0.2623
      9 C          -8.9218  -19.6950   22.5685 C.2     1  UNL1        0.3073
     10 O          -8.8610  -20.6094   23.7561 O.2     1  UNL1       -0.2523
     11 N         -10.1402  -18.8527   22.3321 N.am    1  UNL1       -0.2626
     12 C         -10.3441  -17.8969   21.1942 C.3     1  UNL1        0.0964
     13 C         -11.6986  -17.2717   21.3510 C.3     1  UNL1        0.0390
     14 C         -12.3318  -17.8411   22.5858 C.3     1  UNL1        0.0758
     15 C         -11.3687  -18.8182   23.1922 C.3     1  UNL1        0.1106
     16 C          -6.4863  -20.4013   21.7234 C.3     1  UNL1        0.1147
     17 N         -13.6898  -17.4943   23.1203 N.3     1  UNL1       -0.2982
     18 H         -14.3465  -17.6007   22.3471 H       1  UNL1        0.1232
     19 C         -14.2575  -18.2593   24.2790 C.3     1  UNL1        0.0541
     20 C         -15.6998  -18.6710   24.2714 C.3     1  UNL1        0.0171
     21 C         -13.3828  -18.6125   25.4453 C.3     1  UNL1        0.0171
     22 C          -4.0342  -17.0690   23.3357 C.ar    1  UNL1        0.0296
     23 C          -2.8586  -16.4391   22.6492 C.ar    1  UNL1        0.0071
     24 C          -2.3410  -17.4111   21.6308 C.ar    1  UNL1        0.0115
     25 C          -3.1967  -18.6418   21.6878 C.ar    1  UNL1        0.0830
     26 S          -4.2431  -18.4303   22.7414 S.2     1  UNL1       -0.0824
     27 C          -6.5010  -15.2024   26.6038 C.ar    1  UNL1       -0.0222
     28 C          -5.3358  -16.0803   26.9521 C.ar    1  UNL1       -0.0043
     29 C          -4.5135  -16.7025   25.8627 C.ar    1  UNL1        0.0002
     30 C          -4.8565  -16.4468   24.4250 C.ar    1  UNL1        0.0060
     31 C          -6.0217  -15.5688   24.0768 C.ar    1  UNL1        0.0002
     32 C          -6.8439  -14.9466   25.1661 C.ar    1  UNL1       -0.0043
     33 C          -8.7895  -14.8808   27.7908 C.3     1  UNL1        0.0050
     34 C          -7.3233  -14.5802   27.6932 C.3     1  UNL1        0.0264
@<TRIPOS>BOND
     1    33    34    1
     2    34    27    1
     3    27    28   ar
     4    28    29   ar
     5    29    30   ar
     6    30    22    1
     7    22    23   ar
     8    23    24   ar
     9    24    25   ar
    10    25     1    1
    11     1     2    2
    12     1     3   am
    13     3     4    1
    14     5     3    1
    15     5     6    1
    16     6     7    1
    17     7     8    1
    18     8     9   am
    19     9    10    2
    20     9    11   am
    21    11    12    1
    22    12    13    1
    23    13    14    1
    24    14    17    1
    25    17    19    1
    26    19    20    1
    27    19    21    1
    28    14    15    1
    29     8    16    1
    30    25    26   ar
    31    30    31   ar
    32    31    32   ar
    33    32    27   ar
    34    26    22   ar
    35    16     5    1
    36    15    11    1
    37    17    18    1
