@<TRIPOS>MOLECULE
*****
 29 32 0 0 0
SMALL
GASTEIGER

@<TRIPOS>ATOM
      1 C          -6.6858  -20.0044   20.8748 C.2     1  UNL1       -0.0021
      2 C          -6.1686  -21.1096   20.0024 C.2     1  UNL1        0.0942
      3 N          -4.6732  -21.1297   20.1176 N.2     1  UNL1       -0.2482
      4 C          -4.2662  -20.0370   21.0612 C.2     1  UNL1        0.0633
      5 C          -2.9236  -19.5855   21.5548 C.3     1  UNL1        0.0753
      6 C          -2.8250  -18.4385   22.5163 C.2     1  UNL1        0.0203
      7 C          -4.0689  -17.7430   22.9843 C.2     1  UNL1        0.1317
      8 C          -5.4114  -18.1945   22.4907 C.2     1  UNL1        0.0407
      9 C          -5.5101  -19.3415   21.5292 C.2     1  UNL1        0.0148
     10 C         -11.0063  -18.8756   21.4312 C.3     1  UNL1        0.0540
     11 C         -10.4106  -18.9071   20.0549 C.3     1  UNL1        0.0160
     12 C          -8.9704  -19.2833   19.8695 C.3     1  UNL1        0.0058
     13 C          -8.1260  -19.6281   21.0602 C.3     1  UNL1        0.0240
     14 C          -8.7217  -19.5966   22.4366 C.3     1  UNL1        0.0058
     15 C         -10.1619  -19.2203   22.6220 C.3     1  UNL1        0.0160
     16 N         -12.4464  -18.4993   21.6166 N.3     1  UNL1       -0.2985
     17 H         -12.7665  -18.1126   20.7287 H       1  UNL1        0.1232
     18 C         -13.7125  -17.9490   23.8176 C.3     1  UNL1        0.0185
     19 C         -12.8337  -17.5164   22.6815 C.3     1  UNL1        0.0686
     20 N          -3.9702  -16.5959   23.9458 N.pl3   1  UNL1       -0.1992
     21 H          -3.2252  -16.5547   24.5881 H       1  UNL1        0.2985
     22 C          -5.0066  -15.5117   23.9289 C.2     1  UNL1        0.3224
     23 N          -4.9583  -14.4444   22.8760 N.2     1  UNL1       -0.0985
     24 H          -4.2464  -14.4556   22.1961 H       1  UNL1        0.3633
     25 C          -6.0914  -15.4948   24.9648 C.ar    1  UNL1        0.1114
     26 C          -5.8907  -15.4869   26.4513 C.ar    1  UNL1        0.0144
     27 C          -7.2425  -15.4700   27.1014 C.ar    1  UNL1        0.0077
     28 C          -8.2785  -15.4674   26.0165 C.ar    1  UNL1        0.0357
     29 S          -7.5670  -15.4827   24.6961 S.2     1  UNL1       -0.0792
@<TRIPOS>BOND
     1    18    19    1
     2    19    16    1
     3    10    16    1
     4    10    11    1
     5    11    12    1
     6    12    13    1
     7    13     1    1
     8     1     2    2
     9     2     3    1
    10     3     4    2
    11     4     5    1
    12     5     6    1
    13     6     7    2
    14     7    20    1
    15    20    22    1
    16    22    23    2
    17    22    25    1
    18    25    26   ar
    19    26    27   ar
    20    27    28   ar
    21    28    29   ar
    22     7     8    1
    23     8     9    2
    24    13    14    1
    25    14    15    1
    26    15    10    1
    27     9     1    1
    28     9     4    1
    29    29    25   ar
    30    16    17    1
    31    20    21    1
    32    23    24    1
@<TRIPOS>MOLECULE
*****
 29 32 0 0 0
SMALL
GASTEIGER

@<TRIPOS>ATOM
      1 C          -7.6921  -19.4797   20.1334 C.2     1  UNL1       -0.0021
      2 C          -8.2796  -20.1933   18.9520 C.2     1  UNL1        0.0942
      3 N          -9.7703  -20.0366   19.0102 N.2     1  UNL1       -0.2482
      4 C         -10.1040  -19.2262   20.2275 C.2     1  UNL1        0.0633
      5 C         -11.4115  -18.7572   20.7936 C.3     1  UNL1        0.0753
      6 C         -11.4346  -17.9440   22.0538 C.2     1  UNL1        0.0203
      7 C         -10.1502  -17.5998   22.7479 C.2     1  UNL1        0.1317
      8 C          -8.8427  -18.0688   22.1819 C.2     1  UNL1        0.0407
      9 C          -8.8196  -18.8820   20.9217 C.2     1  UNL1        0.0148
     10 C          -3.3153  -19.1838   21.1364 C.3     1  UNL1        0.0540
     11 C          -4.3160  -19.4591   22.2193 C.3     1  UNL1        0.0160
     12 C          -5.7749  -19.5577   21.8850 C.3     1  UNL1        0.0058
     13 C          -6.2332  -19.3811   20.4677 C.3     1  UNL1        0.0240
     14 C          -5.2324  -19.1058   19.3847 C.3     1  UNL1        0.0058
     15 C          -3.7735  -19.0072   19.7190 C.3     1  UNL1        0.0160
     16 N          -1.8563  -19.0852   21.4707 N.3     1  UNL1       -0.2985
     17 H          -1.7905  -19.0260   22.4869 H       1  UNL1        0.1232
     18 C          -1.4736  -16.5394   21.1213 C.3     1  UNL1        0.0185
     19 C          -1.0345  -17.9591   20.9172 C.3     1  UNL1        0.0686
     20 N         -10.1734  -16.7866   24.0082 N.pl3   1  UNL1       -0.1992
     21 H         -10.6765  -15.9409   24.0391 H       1  UNL1        0.2985
     22 C          -9.4299  -17.2618   25.2212 C.2     1  UNL1        0.3224
     23 N          -9.8120  -18.5562   25.8757 N.2     1  UNL1       -0.0985
     24 H         -10.5508  -19.0939   25.5092 H       1  UNL1        0.3633
     25 C          -8.3043  -16.4425   25.7797 C.ar    1  UNL1        0.1114
     26 C          -8.0456  -16.1744   27.2327 C.ar    1  UNL1        0.0144
     27 C          -6.8212  -15.3137   27.3343 C.ar    1  UNL1        0.0077
     28 C          -6.3233  -15.0500   25.9441 C.ar    1  UNL1        0.0357
     29 S          -7.2399  -15.7477   24.9833 S.2     1  UNL1       -0.0792
@<TRIPOS>BOND
     1    18    19    1
     2    19    16    1
     3    10    16    1
     4    10    11    1
     5    11    12    1
     6    12    13    1
     7    13     1    1
     8     1     2    2
     9     2     3    1
    10     3     4    2
    11     4     5    1
    12     5     6    1
    13     6     7    2
    14     7    20    1
    15    20    22    1
    16    22    23    2
    17    22    25    1
    18    25    26   ar
    19    26    27   ar
    20    27    28   ar
    21    28    29   ar
    22     7     8    1
    23     8     9    2
    24    13    14    1
    25    14    15    1
    26    15    10    1
    27     9     1    1
    28     9     4    1
    29    29    25   ar
    30    16    17    1
    31    20    21    1
    32    23    24    1
@<TRIPOS>MOLECULE
*****
 29 32 0 0 0
SMALL
GASTEIGER

@<TRIPOS>ATOM
      1 C         -10.1514  -18.2705   22.7892 C.2     1  UNL1       -0.0021
      2 C         -11.5531  -18.7773   22.6208 C.2     1  UNL1        0.0942
      3 N         -11.6277  -19.5083   21.3131 N.2     1  UNL1       -0.2482
      4 C         -10.2721  -19.4533   20.6733 C.2     1  UNL1        0.0633
      5 C          -9.7508  -20.0009   19.3778 C.3     1  UNL1        0.0753
      6 C          -8.3169  -19.7835   18.9946 C.2     1  UNL1        0.0203
      7 C          -7.4045  -19.0185   19.9069 C.2     1  UNL1        0.1317
      8 C          -7.9259  -18.4709   21.2023 C.2     1  UNL1        0.0407
      9 C          -9.3597  -18.6883   21.5855 C.2     1  UNL1        0.0148
     10 C          -8.5945  -15.9111   26.2905 C.3     1  UNL1        0.0540
     11 C          -8.6941  -15.2693   24.9384 C.3     1  UNL1        0.0160
     12 C          -9.2131  -16.0558   23.7713 C.3     1  UNL1        0.0058
     13 C          -9.6324  -17.4840   23.9563 C.3     1  UNL1        0.0240
     14 C          -9.5327  -18.1259   25.3084 C.3     1  UNL1        0.0058
     15 C          -9.0138  -17.3394   26.4755 C.3     1  UNL1        0.0160
     16 N          -8.0755  -15.1246   27.4576 N.3     1  UNL1       -0.2985
     17 H          -8.5905  -14.2443   27.4718 H       1  UNL1        0.1232
     18 C          -5.6657  -15.2893   26.5006 C.3     1  UNL1        0.0185
     19 C          -6.6189  -14.7755   27.5386 C.3     1  UNL1        0.0686
     20 N          -5.9706  -18.8012   19.5236 N.pl3   1  UNL1       -0.1992
     21 H          -5.7462  -18.1983   18.7784 H       1  UNL1        0.2985
     22 C          -4.8787  -19.5023   20.2759 C.2     1  UNL1        0.3224
     23 N          -4.5381  -20.9263   19.9498 N.2     1  UNL1       -0.0985
     24 H          -5.0313  -21.4007   19.2420 H       1  UNL1        0.3633
     25 C          -4.1272  -18.7795   21.3544 C.ar    1  UNL1        0.1114
     26 C          -4.6224  -18.5088   22.7442 C.ar    1  UNL1        0.0144
     27 C          -3.5499  -17.7625   23.4811 C.ar    1  UNL1        0.0077
     28 C          -2.3920  -17.5720   22.5467 C.ar    1  UNL1        0.0357
     29 S          -2.7489  -18.2006   21.2323 S.2     1  UNL1       -0.0792
@<TRIPOS>BOND
     1    18    19    1
     2    19    16    1
     3    10    16    1
     4    10    11    1
     5    11    12    1
     6    12    13    1
     7    13     1    1
     8     1     2    2
     9     2     3    1
    10     3     4    2
    11     4     5    1
    12     5     6    1
    13     6     7    2
    14     7    20    1
    15    20    22    1
    16    22    23    2
    17    22    25    1
    18    25    26   ar
    19    26    27   ar
    20    27    28   ar
    21    28    29   ar
    22     7     8    1
    23     8     9    2
    24    13    14    1
    25    14    15    1
    26    15    10    1
    27     9     1    1
    28     9     4    1
    29    29    25   ar
    30    16    17    1
    31    20    21    1
    32    23    24    1
@<TRIPOS>MOLECULE
*****
 29 32 0 0 0
SMALL
GASTEIGER

@<TRIPOS>ATOM
      1 C          -9.6514  -17.8654   21.8083 C.2     1  UNL1       -0.0021
      2 C         -10.9830  -17.7697   21.1243 C.2     1  UNL1        0.0942
      3 N         -10.9312  -18.6182   19.8885 N.2     1  UNL1       -0.2482
      4 C          -9.5677  -19.2383   19.8086 C.2     1  UNL1        0.0633
      5 C          -8.9442  -20.1665   18.8088 C.3     1  UNL1        0.0753
      6 C          -7.5298  -20.6294   18.9955 C.2     1  UNL1        0.0203
      7 C          -6.7388  -20.1641   20.1821 C.2     1  UNL1        0.1317
      8 C          -7.3623  -19.2359   21.1819 C.2     1  UNL1        0.0407
      9 C          -8.7768  -18.7730   20.9951 C.2     1  UNL1        0.0148
     10 C          -8.4853  -15.7931   25.6288 C.3     1  UNL1        0.0540
     11 C          -9.1971  -17.1125   25.6783 C.3     1  UNL1        0.0160
     12 C          -9.5858  -17.8033   24.4047 C.3     1  UNL1        0.0058
     13 C          -9.2627  -17.1746   23.0818 C.3     1  UNL1        0.0240
     14 C          -8.5509  -15.8552   23.0323 C.3     1  UNL1        0.0058
     15 C          -8.1622  -15.1645   24.3058 C.3     1  UNL1        0.0160
     16 N          -8.0966  -15.1024   26.9023 N.3     1  UNL1       -0.2985
     17 H          -8.2887  -14.1096   26.7693 H       1  UNL1        0.1232
     18 C          -5.5463  -15.2976   26.4468 C.3     1  UNL1        0.0185
     19 C          -6.6901  -15.2067   27.4130 C.3     1  UNL1        0.0686
     20 N          -5.3242  -20.6270   20.3687 N.pl3   1  UNL1       -0.1992
     21 H          -5.0305  -21.4818   19.9785 H       1  UNL1        0.2985
     22 C          -4.3573  -19.7876   21.1500 C.2     1  UNL1        0.3224
     23 N          -4.5078  -19.6578   22.6368 N.2     1  UNL1       -0.0985
     24 H          -5.2412  -20.1235   23.0998 H       1  UNL1        0.3633
     25 C          -3.2398  -19.0780   20.4445 C.ar    1  UNL1        0.1114
     26 C          -1.8475  -18.8857   20.9686 C.ar    1  UNL1        0.0144
     27 C          -1.0656  -18.1250   19.9391 C.ar    1  UNL1        0.0077
     28 C          -1.9746  -17.8471   18.7786 C.ar    1  UNL1        0.0357
     29 S          -3.3183  -18.4361   19.0910 S.2     1  UNL1       -0.0792
@<TRIPOS>BOND
     1    18    19    1
     2    19    16    1
     3    10    16    1
     4    10    11    1
     5    11    12    1
     6    12    13    1
     7    13     1    1
     8     1     2    2
     9     2     3    1
    10     3     4    2
    11     4     5    1
    12     5     6    1
    13     6     7    2
    14     7    20    1
    15    20    22    1
    16    22    23    2
    17    22    25    1
    18    25    26   ar
    19    26    27   ar
    20    27    28   ar
    21    28    29   ar
    22     7     8    1
    23     8     9    2
    24    13    14    1
    25    14    15    1
    26    15    10    1
    27     9     1    1
    28     9     4    1
    29    29    25   ar
    30    16    17    1
    31    20    21    1
    32    23    24    1
@<TRIPOS>MOLECULE
*****
 29 32 0 0 0
SMALL
GASTEIGER

@<TRIPOS>ATOM
      1 C          -3.5503  -17.8230   23.1487 C.2     1  UNL1       -0.0021
      2 C          -2.0570  -17.8314   23.0078 C.2     1  UNL1        0.0942
      3 N          -1.7026  -18.7611   21.8853 N.2     1  UNL1       -0.2482
      4 C          -2.9769  -19.3273   21.3324 C.2     1  UNL1        0.0633
      5 C          -3.2448  -20.2959   20.2189 C.3     1  UNL1        0.0753
      6 C          -4.6548  -20.6847   19.8862 C.2     1  UNL1        0.0203
      7 C          -5.7968  -20.1049   20.6670 C.2     1  UNL1        0.1317
      8 C          -5.5288  -19.1364   21.7806 C.2     1  UNL1        0.0407
      9 C          -4.1189  -18.7476   22.1133 C.2     1  UNL1        0.0148
     10 C          -5.9107  -15.4424   26.1506 C.3     1  UNL1        0.0540
     11 C          -4.8891  -16.4363   26.6178 C.3     1  UNL1        0.0160
     12 C          -4.1023  -17.2299   25.6172 C.3     1  UNL1        0.0058
     13 C          -4.3371  -17.0295   24.1493 C.3     1  UNL1        0.0240
     14 C          -5.3588  -16.0355   23.6821 C.3     1  UNL1        0.0058
     15 C          -6.1456  -15.2420   24.6828 C.3     1  UNL1        0.0160
     16 N          -6.6975  -14.6488   27.1513 N.3     1  UNL1       -0.2985
     17 H          -6.1396  -14.6151   28.0046 H       1  UNL1        0.1232
     18 C          -8.5060  -16.5090   27.2885 C.3     1  UNL1        0.0185
     19 C          -8.0722  -15.0971   27.5502 C.3     1  UNL1        0.0686
     20 N          -7.2069  -20.4938   20.3343 N.pl3   1  UNL1       -0.1992
     21 H          -7.4132  -21.4201   20.0721 H       1  UNL1        0.2985
     22 C          -8.3024  -19.4715   20.4011 C.2     1  UNL1        0.3224
     23 N          -8.9756  -19.0102   19.1425 N.2     1  UNL1       -0.0985
     24 H          -8.6983  -19.3784   18.2726 H       1  UNL1        0.3633
     25 C          -8.7250  -18.9104   21.7266 C.ar    1  UNL1        0.1114
     26 C          -8.6867  -17.4647   22.1245 C.ar    1  UNL1        0.0144
     27 C          -9.1980  -17.3573   23.5306 C.ar    1  UNL1        0.0077
     28 C          -9.5523  -18.7367   24.0016 C.ar    1  UNL1        0.0357
     29 S          -9.2599  -19.6966   22.8866 S.2     1  UNL1       -0.0792
@<TRIPOS>BOND
     1    18    19    1
     2    19    16    1
     3    10    16    1
     4    10    11    1
     5    11    12    1
     6    12    13    1
     7    13     1    1
     8     1     2    2
     9     2     3    1
    10     3     4    2
    11     4     5    1
    12     5     6    1
    13     6     7    2
    14     7    20    1
    15    20    22    1
    16    22    23    2
    17    22    25    1
    18    25    26   ar
    19    26    27   ar
    20    27    28   ar
    21    28    29   ar
    22     7     8    1
    23     8     9    2
    24    13    14    1
    25    14    15    1
    26    15    10    1
    27     9     1    1
    28     9     4    1
    29    29    25   ar
    30    16    17    1
    31    20    21    1
    32    23    24    1
@<TRIPOS>MOLECULE
*****
 29 32 0 0 0
SMALL
GASTEIGER

@<TRIPOS>ATOM
      1 C          -5.8735  -18.9457   21.6176 C.2     1  UNL1       -0.0021
      2 C          -4.7110  -19.8323   21.2821 C.2     1  UNL1        0.0942
      3 N          -5.1456  -20.7772   20.2012 N.2     1  UNL1       -0.2482
      4 C          -6.5767  -20.4746   19.8687 C.2     1  UNL1        0.0633
      5 C          -7.5282  -21.0835   18.8820 C.3     1  UNL1        0.0753
      6 C          -8.9296  -20.5604   18.7706 C.2     1  UNL1        0.0203
      7 C          -9.3794  -19.4284   19.6460 C.2     1  UNL1        0.1317
      8 C          -8.4279  -18.8195   20.6327 C.2     1  UNL1        0.0407
      9 C          -7.0265  -19.3426   20.7441 C.2     1  UNL1        0.0148
     10 C          -5.8977  -15.6700   24.7030 C.3     1  UNL1        0.0540
     11 C          -4.6209  -16.3888   24.3823 C.3     1  UNL1        0.0160
     12 C          -4.6128  -17.4807   23.3538 C.3     1  UNL1        0.0058
     13 C          -5.8815  -17.8538   22.6461 C.3     1  UNL1        0.0240
     14 C          -7.1585  -17.1349   22.9668 C.3     1  UNL1        0.0058
     15 C          -7.1665  -16.0430   23.9952 C.3     1  UNL1        0.0160
     16 N          -5.9058  -14.5781   25.7314 N.3     1  UNL1       -0.2985
     17 H          -4.9354  -14.2948   25.8677 H       1  UNL1        0.1232
     18 C          -7.0507  -16.1816   27.4249 C.3     1  UNL1        0.0185
     19 C          -6.4771  -14.8356   27.0942 C.3     1  UNL1        0.0686
     20 N         -10.7809  -18.9054   19.5346 N.pl3   1  UNL1       -0.1992
     21 H         -11.4243  -19.3457   18.9334 H       1  UNL1        0.2985
     22 C         -11.2021  -17.7115   20.3391 C.2     1  UNL1        0.3224
     23 N         -11.0121  -16.3299   19.7866 N.2     1  UNL1       -0.0985
     24 H         -10.6110  -16.2068   18.8960 H       1  UNL1        0.3633
     25 C         -11.8132  -17.8992   21.6961 C.ar    1  UNL1        0.1114
     26 C         -13.2194  -17.5512   22.0854 C.ar    1  UNL1        0.0144
     27 C         -13.4007  -17.9047   23.5319 C.ar    1  UNL1        0.0077
     28 C         -12.1066  -18.4711   24.0364 C.ar    1  UNL1        0.0357
     29 S         -11.1255  -18.4677   22.9018 S.2     1  UNL1       -0.0792
@<TRIPOS>BOND
     1    18    19    1
     2    19    16    1
     3    10    16    1
     4    10    11    1
     5    11    12    1
     6    12    13    1
     7    13     1    1
     8     1     2    2
     9     2     3    1
    10     3     4    2
    11     4     5    1
    12     5     6    1
    13     6     7    2
    14     7    20    1
    15    20    22    1
    16    22    23    2
    17    22    25    1
    18    25    26   ar
    19    26    27   ar
    20    27    28   ar
    21    28    29   ar
    22     7     8    1
    23     8     9    2
    24    13    14    1
    25    14    15    1
    26    15    10    1
    27     9     1    1
    28     9     4    1
    29    29    25   ar
    30    16    17    1
    31    20    21    1
    32    23    24    1
@<TRIPOS>MOLECULE
*****
 29 32 0 0 0
SMALL
GASTEIGER

@<TRIPOS>ATOM
      1 C          -8.7068  -16.8041   23.2002 C.2     1  UNL1       -0.0021
      2 C          -9.6686  -16.0260   24.0483 C.2     1  UNL1        0.0942
      3 N          -8.8829  -15.3280   25.1186 N.2     1  UNL1       -0.2482
      4 C          -7.4355  -15.6748   24.9319 C.2     1  UNL1        0.0633
      5 C          -6.2026  -15.2777   25.6884 C.3     1  UNL1        0.0753
      6 C          -4.8609  -15.7929   25.2592 C.2     1  UNL1        0.0203
      7 C          -4.7521  -16.7052   24.0735 C.2     1  UNL1        0.1317
      8 C          -5.9850  -17.1023   23.3170 C.2     1  UNL1        0.0407
      9 C          -7.3267  -16.5871   23.7463 C.2     1  UNL1        0.0148
     10 C          -9.7741  -19.3440   19.6420 C.3     1  UNL1        0.0540
     11 C         -10.7601  -18.3469   20.1747 C.3     1  UNL1        0.0160
     12 C         -10.4043  -17.5003   21.3607 C.3     1  UNL1        0.0058
     13 C          -9.0626  -17.6507   22.0141 C.3     1  UNL1        0.0240
     14 C          -8.0765  -18.6478   21.4815 C.3     1  UNL1        0.0058
     15 C          -8.4323  -19.4944   20.2954 C.3     1  UNL1        0.0160
     16 N         -10.1299  -20.1906   18.4560 N.3     1  UNL1       -0.2985
     17 H         -10.8833  -20.8110   18.7525 H       1  UNL1        0.1232
     18 C          -9.2509  -21.4893   16.3846 C.3     1  UNL1        0.0185
     19 C          -9.0867  -21.0538   17.8106 C.3     1  UNL1        0.0686
     20 N          -3.4103  -17.2204   23.6443 N.pl3   1  UNL1       -0.1992
     21 H          -2.8132  -17.6459   24.3013 H       1  UNL1        0.2985
     22 C          -2.9782  -17.0874   22.2141 C.2     1  UNL1        0.3224
     23 N          -2.3245  -15.8223   21.7426 N.2     1  UNL1       -0.0985
     24 H          -2.1790  -15.0793   22.3719 H       1  UNL1        0.3633
     25 C          -3.1999  -18.2194   21.2552 C.ar    1  UNL1        0.1114
     26 C          -3.9216  -19.4999   21.5546 C.ar    1  UNL1        0.0144
     27 C          -3.9066  -20.3416   20.3130 C.ar    1  UNL1        0.0077
     28 C          -3.1757  -19.5813   19.2464 C.ar    1  UNL1        0.0357
     29 S          -2.7389  -18.2697   19.8287 S.2     1  UNL1       -0.0792
@<TRIPOS>BOND
     1    18    19    1
     2    19    16    1
     3    10    16    1
     4    10    11    1
     5    11    12    1
     6    12    13    1
     7    13     1    1
     8     1     2    2
     9     2     3    1
    10     3     4    2
    11     4     5    1
    12     5     6    1
    13     6     7    2
    14     7    20    1
    15    20    22    1
    16    22    23    2
    17    22    25    1
    18    25    26   ar
    19    26    27   ar
    20    27    28   ar
    21    28    29   ar
    22     7     8    1
    23     8     9    2
    24    13    14    1
    25    14    15    1
    26    15    10    1
    27     9     1    1
    28     9     4    1
    29    29    25   ar
    30    16    17    1
    31    20    21    1
    32    23    24    1
@<TRIPOS>MOLECULE
*****
 29 32 0 0 0
SMALL
GASTEIGER

@<TRIPOS>ATOM
      1 C          -7.9156  -16.1284   23.9640 C.2     1  UNL1       -0.0021
      2 C          -7.5950  -14.7833   24.5452 C.2     1  UNL1        0.0942
      3 N          -6.1042  -14.6184   24.5376 N.2     1  UNL1       -0.2482
      4 C          -5.5033  -15.8617   23.9517 C.2     1  UNL1        0.0633
      5 C          -4.0814  -16.2646   23.6953 C.3     1  UNL1        0.0753
      6 C          -3.7790  -17.6007   23.0843 C.2     1  UNL1        0.0203
      7 C          -4.8985  -18.5339   22.7298 C.2     1  UNL1        0.1317
      8 C          -6.3204  -18.1311   22.9863 C.2     1  UNL1        0.0407
      9 C          -6.6228  -16.7950   23.5972 C.2     1  UNL1        0.0148
     10 C         -12.0328  -17.8604   23.4167 C.3     1  UNL1        0.0540
     11 C         -11.0582  -18.5218   24.3456 C.3     1  UNL1        0.0160
     12 C          -9.6858  -17.9445   24.5280 C.3     1  UNL1        0.0058
     13 C          -9.2879  -16.7058   23.7816 C.3     1  UNL1        0.0240
     14 C         -10.2625  -16.0443   22.8527 C.3     1  UNL1        0.0058
     15 C         -11.6349  -16.6217   22.6703 C.3     1  UNL1        0.0160
     16 N         -13.4051  -18.4378   23.2343 N.3     1  UNL1       -0.2985
     17 H         -13.7364  -18.1269   22.3211 H       1  UNL1        0.1232
     18 C         -14.3176  -18.4762   25.6666 C.3     1  UNL1        0.0185
     19 C         -14.4900  -18.1190   24.2199 C.3     1  UNL1        0.0686
     20 N          -4.5961  -19.8701   22.1188 N.pl3   1  UNL1       -0.1992
     21 H          -4.6075  -20.6807   22.6774 H       1  UNL1        0.2985
     22 C          -4.2762  -19.9712   20.6568 C.2     1  UNL1        0.3224
     23 N          -5.0430  -20.9210   19.7852 N.2     1  UNL1       -0.0985
     24 H          -5.7563  -21.4781   20.1727 H       1  UNL1        0.3633
     25 C          -3.1895  -19.1223   20.0664 C.ar    1  UNL1        0.1114
     26 C          -3.3507  -18.1361   18.9477 C.ar    1  UNL1        0.0144
     27 C          -2.0116  -17.5149   18.6809 C.ar    1  UNL1        0.0077
     28 C          -1.0229  -18.1173   19.6347 C.ar    1  UNL1        0.0357
     29 S          -1.7509  -19.1107   20.4909 S.2     1  UNL1       -0.0792
@<TRIPOS>BOND
     1    18    19    1
     2    19    16    1
     3    10    16    1
     4    10    11    1
     5    11    12    1
     6    12    13    1
     7    13     1    1
     8     1     2    2
     9     2     3    1
    10     3     4    2
    11     4     5    1
    12     5     6    1
    13     6     7    2
    14     7    20    1
    15    20    22    1
    16    22    23    2
    17    22    25    1
    18    25    26   ar
    19    26    27   ar
    20    27    28   ar
    21    28    29   ar
    22     7     8    1
    23     8     9    2
    24    13    14    1
    25    14    15    1
    26    15    10    1
    27     9     1    1
    28     9     4    1
    29    29    25   ar
    30    16    17    1
    31    20    21    1
    32    23    24    1
@<TRIPOS>MOLECULE
*****
 29 32 0 0 0
SMALL
GASTEIGER

@<TRIPOS>ATOM
      1 C         -15.5164   -3.9066   19.0203 C.2     1  UNL1       -0.0021
      2 C         -16.5959   -2.8670   18.9571 C.2     1  UNL1        0.0942
      3 N         -15.9396   -1.5249   18.8230 N.2     1  UNL1       -0.2482
      4 C         -14.4545   -1.7350   18.8033 C.2     1  UNL1        0.0633
      5 C         -13.3066   -0.7761   18.6901 C.3     1  UNL1        0.0753
      6 C         -11.8972   -1.2892   18.6988 C.2     1  UNL1        0.0203
      7 C         -11.6356   -2.7612   18.8208 C.2     1  UNL1        0.1317
      8 C         -12.7835   -3.7200   18.9340 C.2     1  UNL1        0.0407
      9 C         -14.1930   -3.2069   18.9252 C.2     1  UNL1        0.0148
     10 C         -16.1388   -8.3450   19.4240 C.3     1  UNL1        0.0540
     11 C         -17.2570   -7.3985   19.7460 C.3     1  UNL1        0.0160
     12 C         -17.0495   -5.9190   19.6114 C.3     1  UNL1        0.0058
     13 C         -15.7239   -5.3860   19.1549 C.3     1  UNL1        0.0240
     14 C         -14.6056   -6.3326   18.8329 C.3     1  UNL1        0.0058
     15 C         -14.8131   -7.8121   18.9675 C.3     1  UNL1        0.0160
     16 N         -16.3463   -9.8245   19.5586 N.3     1  UNL1       -0.2985
     17 H         -15.4387  -10.2294   19.7883 H       1  UNL1        0.1232
     18 C         -18.3229  -10.4373   17.9878 C.3     1  UNL1        0.0185
     19 C         -16.8930  -10.6131   18.4058 C.3     1  UNL1        0.0686
     20 N         -10.2261   -3.2743   18.8295 N.pl3   1  UNL1       -0.1992
     21 H          -9.6232   -3.0446   19.5732 H       1  UNL1        0.2985
     22 C          -9.7351   -4.1372   17.7051 C.2     1  UNL1        0.3224
     23 N          -8.8703   -3.5482   16.6302 N.2     1  UNL1       -0.0985
     24 H          -8.6251   -2.5953   16.6627 H       1  UNL1        0.3633
     25 C         -10.1088   -5.5891   17.6556 C.ar    1  UNL1        0.1114
     26 C          -9.5518   -6.6731   18.5301 C.ar    1  UNL1        0.0144
     27 C         -10.2038   -7.9659   18.1379 C.ar    1  UNL1        0.0077
     28 C         -11.1637   -7.6807   17.0211 C.ar    1  UNL1        0.0357
     29 S         -11.1049   -6.2118   16.7230 S.2     1  UNL1       -0.0792
@<TRIPOS>BOND
     1    18    19    1
     2    19    16    1
     3    10    16    1
     4    10    11    1
     5    11    12    1
     6    12    13    1
     7    13     1    1
     8     1     2    2
     9     2     3    1
    10     3     4    2
    11     4     5    1
    12     5     6    1
    13     6     7    2
    14     7    20    1
    15    20    22    1
    16    22    23    2
    17    22    25    1
    18    25    26   ar
    19    26    27   ar
    20    27    28   ar
    21    28    29   ar
    22     7     8    1
    23     8     9    2
    24    13    14    1
    25    14    15    1
    26    15    10    1
    27     9     1    1
    28     9     4    1
    29    29    25   ar
    30    16    17    1
    31    20    21    1
    32    23    24    1
