@<TRIPOS>MOLECULE
*****
 40 45 0 0 0
SMALL
GASTEIGER

@<TRIPOS>ATOM
      1 C           5.1689   -1.9050   27.0208 C.3     1  UNL1        0.0933
      2 C           5.9443   -1.8074   28.3012 C.3     1  UNL1        0.0442
      3 C           5.2892   -1.2605   29.5349 C.3     1  UNL1        0.0953
      4 N           3.8588   -0.8112   29.4881 N.am    1  UNL1       -0.2794
      5 C           3.2038   -0.2643   30.7217 C.2     1  UNL1        0.2252
      6 O           1.7734    0.1850   30.6749 O.2     1  UNL1       -0.2749
      7 C           3.0836   -0.9088   28.2077 C.3     1  UNL1        0.0953
      8 C           3.7386   -1.4557   26.9741 C.3     1  UNL1        0.0442
      9 N           6.6551   -2.6667   23.5170 N.ar    1  UNL1       -0.2758
     10 C           5.9227   -1.7591   24.4604 C.ar    1  UNL1        0.3317
     11 O           5.3836   -0.3979   24.1342 O.2     1  UNL1       -0.2463
     12 N           5.8240   -2.4519   25.7872 N.ar    1  UNL1       -0.2817
     13 C           6.4954   -3.7875   25.6638 C.ar    1  UNL1        0.0796
     14 C           6.7055   -4.9000   26.6478 C.ar    1  UNL1        0.0188
     15 C           7.4291   -6.1452   26.2287 C.ar    1  UNL1        0.0016
     16 C           7.9428   -6.2780   24.8257 C.ar    1  UNL1        0.0016
     17 C           7.7327   -5.1655   23.8417 C.ar    1  UNL1        0.0188
     18 C           7.0091   -3.9203   24.2608 C.ar    1  UNL1        0.0800
     19 C           6.9770   -2.3723   22.0819 C.3     1  UNL1        0.1374
     20 C           5.0648   -2.3989   18.6044 C.ar    1  UNL1        0.1385
     21 C           4.0502   -3.4767   18.8470 C.ar    1  UNL1        0.0369
     22 C           4.0112   -4.1864   20.1680 C.ar    1  UNL1        0.0029
     23 C           4.9868   -3.8183   21.2462 C.ar    1  UNL1       -0.0022
     24 C           6.0015   -2.7404   21.0036 C.ar    1  UNL1        0.0035
     25 C           6.0404   -2.0308   19.6827 C.ar    1  UNL1        0.0345
     26 C           3.9540   -0.8222   16.8637 C.3     1  UNL1        0.2525
     27 O           5.1038   -1.6893   17.2835 O.3     1  UNL1       -0.4714
     28 C           3.9791   -0.1667   32.0020 C.3     1  UNL1        0.0795
     29 C           4.6269    1.1294   32.3897 C.3     1  UNL1        0.0264
     30 C           5.4023    1.2269   33.6701 C.3     1  UNL1        0.0729
     31 N           5.5298    0.0282   34.5628 N.3     1  UNL1       -0.2689
     32 C           4.8820   -1.2679   34.1752 C.3     1  UNL1        0.0729
     33 C           4.1067   -1.3654   32.8948 C.3     1  UNL1        0.0264
     34 C           6.3052    0.1258   35.8431 C.3     1  UNL1        0.0992
     35 C           5.7157    0.8375   37.0246 C.ar    1  UNL1       -0.0031
     36 C           6.5525    1.7994   37.8149 C.ar    1  UNL1        0.0178
     37 C           5.9630    2.5111   38.9964 C.ar    1  UNL1        0.0986
     38 N           4.5367    2.2609   39.3876 N.ar    1  UNL1       -0.2423
     39 C           3.6999    1.2991   38.5973 C.ar    1  UNL1        0.0986
     40 C           4.2894    0.5874   37.4158 C.ar    1  UNL1        0.0178
@<TRIPOS>BOND
     1    26    27    1
     2    27    20    1
     3    20    21   ar
     4    21    22   ar
     5    22    23   ar
     6    23    24   ar
     7    24    19    1
     8    19     9    1
     9     9    10   ar
    10    10    11    2
    11    10    12   ar
    12    12     1    1
    13     1     2    1
    14     2     3    1
    15     3     4    1
    16     4     5   am
    17     5     6    2
    18     5    28    1
    19    28    29    1
    20    29    30    1
    21    30    31    1
    22    31    34    1
    23    34    35    1
    24    35    36   ar
    25    36    37   ar
    26    37    38   ar
    27    38    39   ar
    28    39    40   ar
    29    31    32    1
    30    32    33    1
    31     4     7    1
    32     7     8    1
    33    12    13   ar
    34    13    14   ar
    35    14    15   ar
    36    15    16   ar
    37    16    17   ar
    38    17    18   ar
    39    24    25   ar
    40    25    20   ar
    41    18     9   ar
    42     8     1    1
    43    18    13   ar
    44    33    28    1
    45    40    35   ar
@<TRIPOS>MOLECULE
*****
 40 45 0 0 0
SMALL
GASTEIGER

@<TRIPOS>ATOM
      1 C           7.0685   -4.0947   27.1250 C.3     1  UNL1        0.0933
      2 C           6.9913   -2.8207   27.9132 C.3     1  UNL1        0.0442
      3 C           6.8239   -2.8695   29.4030 C.3     1  UNL1        0.0953
      4 N           6.7337   -4.1921   30.1047 N.am    1  UNL1       -0.2794
      5 C           6.5663   -4.2409   31.5945 C.2     1  UNL1        0.2252
      6 O           6.4760   -5.5636   32.2962 O.2     1  UNL1       -0.2749
      7 C           6.8109   -5.4660   29.3165 C.3     1  UNL1        0.0953
      8 C           6.9783   -5.4173   27.8267 C.3     1  UNL1        0.0442
      9 N           7.1845   -3.2877   23.3302 N.ar    1  UNL1       -0.2758
     10 C           6.8343   -2.9117   24.7394 C.ar    1  UNL1        0.3317
     11 O           6.1947   -1.6272   25.1763 O.2     1  UNL1       -0.2463
     12 N           7.2359   -4.0459   25.6351 N.ar    1  UNL1       -0.2817
     13 C           7.8344   -5.1228   24.7795 C.ar    1  UNL1        0.0796
     14 C           8.4042   -6.4696   25.1135 C.ar    1  UNL1        0.0188
     15 C           8.9421   -7.3477   24.0229 C.ar    1  UNL1        0.0016
     16 C           8.9104   -6.8791   22.5983 C.ar    1  UNL1        0.0016
     17 C           8.3406   -5.5323   22.2643 C.ar    1  UNL1        0.0188
     18 C           7.8026   -4.6542   23.3549 C.ar    1  UNL1        0.0800
     19 C           6.9567   -2.4450   22.1103 C.3     1  UNL1        0.1374
     20 C           4.9385   -2.6556   18.6997 C.ar    1  UNL1        0.1385
     21 C           3.9288   -3.7137   19.0327 C.ar    1  UNL1        0.0369
     22 C           3.9283   -4.3489   20.3915 C.ar    1  UNL1        0.0029
     23 C           4.9376   -3.9260   21.4174 C.ar    1  UNL1       -0.0022
     24 C           5.9474   -2.8679   21.0845 C.ar    1  UNL1        0.0035
     25 C           5.9478   -2.2327   19.7256 C.ar    1  UNL1        0.0345
     26 C           3.9830   -0.9061   17.0336 C.3     1  UNL1        0.2525
     27 O           4.9389   -2.0205   17.3408 O.3     1  UNL1       -0.4714
     28 C           6.4891   -2.9670   32.3826 C.3     1  UNL1        0.0795
     29 C           5.1592   -2.4517   32.8471 C.3     1  UNL1        0.0264
     30 C           5.0821   -1.1777   33.6352 C.3     1  UNL1        0.0729
     31 N           6.3350   -0.4190   33.9587 N.3     1  UNL1       -0.2689
     32 C           7.6649   -0.9342   33.4942 C.3     1  UNL1        0.0729
     33 C           7.7420   -2.2082   32.7062 C.3     1  UNL1        0.0264
     34 C           6.2578    0.8550   34.7468 C.3     1  UNL1        0.0992
     35 C           5.0181    1.1813   35.5256 C.ar    1  UNL1       -0.0031
     36 C           4.7855    0.5478   36.8653 C.ar    1  UNL1        0.0178
     37 C           3.5457    0.8741   37.6441 C.ar    1  UNL1        0.0986
     38 N           2.5386    1.8338   37.0832 N.ar    1  UNL1       -0.2423
     39 C           2.7712    2.4672   35.7436 C.ar    1  UNL1        0.0986
     40 C           4.0109    2.1410   34.9648 C.ar    1  UNL1        0.0178
@<TRIPOS>BOND
     1    26    27    1
     2    27    20    1
     3    20    21   ar
     4    21    22   ar
     5    22    23   ar
     6    23    24   ar
     7    24    19    1
     8    19     9    1
     9     9    10   ar
    10    10    11    2
    11    10    12   ar
    12    12     1    1
    13     1     2    1
    14     2     3    1
    15     3     4    1
    16     4     5   am
    17     5     6    2
    18     5    28    1
    19    28    29    1
    20    29    30    1
    21    30    31    1
    22    31    34    1
    23    34    35    1
    24    35    36   ar
    25    36    37   ar
    26    37    38   ar
    27    38    39   ar
    28    39    40   ar
    29    31    32    1
    30    32    33    1
    31     4     7    1
    32     7     8    1
    33    12    13   ar
    34    13    14   ar
    35    14    15   ar
    36    15    16   ar
    37    16    17   ar
    38    17    18   ar
    39    24    25   ar
    40    25    20   ar
    41    18     9   ar
    42     8     1    1
    43    18    13   ar
    44    33    28    1
    45    40    35   ar
@<TRIPOS>MOLECULE
*****
 40 45 0 0 0
SMALL
GASTEIGER

@<TRIPOS>ATOM
      1 C           6.4558   -3.4116   27.1115 C.3     1  UNL1        0.0933
      2 C           6.4040   -2.2299   28.0341 C.3     1  UNL1        0.0442
      3 C           6.4317   -2.4363   29.5196 C.3     1  UNL1        0.0953
      4 N           6.5112   -3.8244   30.0825 N.am    1  UNL1       -0.2794
      5 C           6.5390   -4.0308   31.5680 C.2     1  UNL1        0.2252
      6 O           6.6185   -5.4189   32.1309 O.2     1  UNL1       -0.2749
      7 C           6.5630   -5.0060   29.1600 C.3     1  UNL1        0.0953
      8 C           6.5353   -4.7995   27.6745 C.3     1  UNL1        0.0442
      9 N           5.7696   -2.4653   23.4104 N.ar    1  UNL1       -0.2758
     10 C           5.4152   -2.4007   24.8665 C.ar    1  UNL1        0.3317
     11 O           4.2522   -1.6615   25.4590 O.2     1  UNL1       -0.2463
     12 N           6.4281   -3.2051   25.6261 N.ar    1  UNL1       -0.2817
     13 C           7.4084   -3.7668   24.6394 C.ar    1  UNL1        0.0796
     14 C           8.6191   -4.6356   24.8111 C.ar    1  UNL1        0.0188
     15 C           9.4227   -5.0471   23.6133 C.ar    1  UNL1        0.0016
     16 C           9.0157   -4.5899   22.2439 C.ar    1  UNL1        0.0016
     17 C           7.8051   -3.7211   22.0722 C.ar    1  UNL1        0.0188
     18 C           7.0014   -3.3096   23.2700 C.ar    1  UNL1        0.0800
     19 C           5.0231   -1.8020   22.2910 C.3     1  UNL1        0.1374
     20 C           5.7534   -2.3432   18.4280 C.ar    1  UNL1        0.1385
     21 C           5.0337   -3.6359   18.1818 C.ar    1  UNL1        0.0369
     22 C           4.3103   -4.3174   19.3053 C.ar    1  UNL1        0.0029
     23 C           4.3069   -3.7061   20.6751 C.ar    1  UNL1       -0.0022
     24 C           5.0266   -2.4133   20.9213 C.ar    1  UNL1        0.0035
     25 C           5.7499   -1.7318   19.7977 C.ar    1  UNL1        0.0345
     26 C           6.5362   -0.1639   17.2498 C.3     1  UNL1        0.2525
     27 O           6.4767   -1.6617   17.3043 O.3     1  UNL1       -0.4714
     28 C           6.4872   -2.8492   32.4904 C.3     1  UNL1        0.0795
     29 C           7.7385   -2.0803   32.7954 C.3     1  UNL1        0.0264
     30 C           7.6866   -0.8986   33.7179 C.3     1  UNL1        0.0729
     31 N           6.3834   -0.4858   34.3354 N.3     1  UNL1       -0.2689
     32 C           5.1321   -1.2547   34.0305 C.3     1  UNL1        0.0729
     33 C           5.1840   -2.4363   33.1080 C.3     1  UNL1        0.0264
     34 C           6.3316    0.6959   35.2579 C.3     1  UNL1        0.0992
     35 C           5.0240    1.1250   35.8544 C.ar    1  UNL1       -0.0031
     36 C           4.1174    2.0449   35.0915 C.ar    1  UNL1        0.0178
     37 C           2.8098    2.4740   35.6880 C.ar    1  UNL1        0.0986
     38 N           2.4086    1.9832   37.0475 N.ar    1  UNL1       -0.2423
     39 C           3.3152    1.0633   37.8104 C.ar    1  UNL1        0.0986
     40 C           4.6228    0.6342   37.2139 C.ar    1  UNL1        0.0178
@<TRIPOS>BOND
     1    26    27    1
     2    27    20    1
     3    20    21   ar
     4    21    22   ar
     5    22    23   ar
     6    23    24   ar
     7    24    19    1
     8    19     9    1
     9     9    10   ar
    10    10    11    2
    11    10    12   ar
    12    12     1    1
    13     1     2    1
    14     2     3    1
    15     3     4    1
    16     4     5   am
    17     5     6    2
    18     5    28    1
    19    28    29    1
    20    29    30    1
    21    30    31    1
    22    31    34    1
    23    34    35    1
    24    35    36   ar
    25    36    37   ar
    26    37    38   ar
    27    38    39   ar
    28    39    40   ar
    29    31    32    1
    30    32    33    1
    31     4     7    1
    32     7     8    1
    33    12    13   ar
    34    13    14   ar
    35    14    15   ar
    36    15    16   ar
    37    16    17   ar
    38    17    18   ar
    39    24    25   ar
    40    25    20   ar
    41    18     9   ar
    42     8     1    1
    43    18    13   ar
    44    33    28    1
    45    40    35   ar
@<TRIPOS>MOLECULE
*****
 40 45 0 0 0
SMALL
GASTEIGER

@<TRIPOS>ATOM
      1 C           6.3966   -2.9720   27.0845 C.3     1  UNL1        0.0933
      2 C           6.3207   -1.8300   28.0542 C.3     1  UNL1        0.0442
      3 C           6.3855   -2.0934   29.5295 C.3     1  UNL1        0.0953
      4 N           6.5262   -3.4986   30.0351 N.am    1  UNL1       -0.2794
      5 C           6.5910   -3.7619   31.5104 C.2     1  UNL1        0.2252
      6 O           6.7316   -5.1671   32.0159 O.2     1  UNL1       -0.2749
      7 C           6.6020   -4.6404   29.0654 C.3     1  UNL1        0.0953
      8 C           6.5372   -4.3771   27.5901 C.3     1  UNL1        0.0442
      9 N           6.8778   -2.6728   23.2447 N.ar    1  UNL1       -0.2758
     10 C           7.3387   -3.1516   24.5894 C.ar    1  UNL1        0.3317
     11 O           8.5872   -3.9357   24.8659 O.2     1  UNL1       -0.2463
     12 N           6.3318   -2.7086   25.6092 N.ar    1  UNL1       -0.2817
     13 C           5.2486   -1.9561   24.8947 C.ar    1  UNL1        0.0796
     14 C           3.9987   -1.2881   25.3859 C.ar    1  UNL1        0.0188
     15 C           3.0862   -0.5980   24.4158 C.ar    1  UNL1        0.0016
     16 C           3.4237   -0.5759   22.9545 C.ar    1  UNL1        0.0016
     17 C           4.6737   -1.2438   22.4632 C.ar    1  UNL1        0.0188
     18 C           5.5861   -1.9339   23.4333 C.ar    1  UNL1        0.0800
     19 C           7.5846   -2.8941   21.9402 C.3     1  UNL1        0.1374
     20 C           6.3021   -2.2049   18.2484 C.ar    1  UNL1        0.1385
     21 C           5.2179   -3.2344   18.1281 C.ar    1  UNL1        0.0369
     22 C           4.9225   -4.1505   19.2785 C.ar    1  UNL1        0.0029
     23 C           5.7115   -4.0370   20.5492 C.ar    1  UNL1       -0.0022
     24 C           6.7958   -3.0075   20.6696 C.ar    1  UNL1        0.0035
     25 C           7.0911   -2.0914   19.5191 C.ar    1  UNL1        0.0345
     26 C           6.3031    0.1776   17.2121 C.3     1  UNL1        0.2525
     27 O           6.5974   -1.2888   17.0979 O.3     1  UNL1       -0.4714
     28 C           6.5151   -2.6200   32.4800 C.3     1  UNL1        0.0795
     29 C           7.7585   -1.8676   32.8515 C.3     1  UNL1        0.0264
     30 C           7.6825   -0.7256   33.8213 C.3     1  UNL1        0.0729
     31 N           6.3632   -0.3361   34.4194 N.3     1  UNL1       -0.2689
     32 C           5.1199   -1.0884   34.0478 C.3     1  UNL1        0.0729
     33 C           5.1958   -2.2304   33.0782 C.3     1  UNL1        0.0264
     34 C           6.2874    0.8058   35.3890 C.3     1  UNL1        0.0992
     35 C           4.9664    1.2029   35.9784 C.ar    1  UNL1       -0.0031
     36 C           4.5448    0.6567   37.3103 C.ar    1  UNL1        0.0178
     37 C           3.2238    1.0538   37.8996 C.ar    1  UNL1        0.0986
     38 N           2.3244    1.9970   37.1571 N.ar    1  UNL1       -0.2423
     39 C           2.7460    2.5431   35.8252 C.ar    1  UNL1        0.0986
     40 C           4.0670    2.1461   35.2358 C.ar    1  UNL1        0.0178
@<TRIPOS>BOND
     1    26    27    1
     2    27    20    1
     3    20    21   ar
     4    21    22   ar
     5    22    23   ar
     6    23    24   ar
     7    24    19    1
     8    19     9    1
     9     9    10   ar
    10    10    11    2
    11    10    12   ar
    12    12     1    1
    13     1     2    1
    14     2     3    1
    15     3     4    1
    16     4     5   am
    17     5     6    2
    18     5    28    1
    19    28    29    1
    20    29    30    1
    21    30    31    1
    22    31    34    1
    23    34    35    1
    24    35    36   ar
    25    36    37   ar
    26    37    38   ar
    27    38    39   ar
    28    39    40   ar
    29    31    32    1
    30    32    33    1
    31     4     7    1
    32     7     8    1
    33    12    13   ar
    34    13    14   ar
    35    14    15   ar
    36    15    16   ar
    37    16    17   ar
    38    17    18   ar
    39    24    25   ar
    40    25    20   ar
    41    18     9   ar
    42     8     1    1
    43    18    13   ar
    44    33    28    1
    45    40    35   ar
@<TRIPOS>MOLECULE
*****
 40 45 0 0 0
SMALL
GASTEIGER

@<TRIPOS>ATOM
      1 C           8.3839   -3.7823   24.1640 C.3     1  UNL1        0.0933
      2 C           7.1312   -3.1397   23.6463 C.3     1  UNL1        0.0442
      3 C           7.0306   -2.7489   22.2016 C.3     1  UNL1        0.0953
      4 N           8.1828   -3.0005   21.2747 N.am    1  UNL1       -0.2794
      5 C           8.0822   -2.6096   19.8300 C.2     1  UNL1        0.2252
      6 O           9.2343   -2.8612   18.9030 O.2     1  UNL1       -0.2749
      7 C           9.4354   -3.6430   21.7924 C.3     1  UNL1        0.0953
      8 C           9.5359   -4.0339   23.2371 C.3     1  UNL1        0.0442
      9 N           8.7499   -4.0568   28.0184 N.ar    1  UNL1       -0.2758
     10 C           8.7227   -3.2413   26.7597 C.ar    1  UNL1        0.3317
     11 O           8.9023   -1.7549   26.6682 O.2     1  UNL1       -0.2463
     12 N           8.4844   -4.1732   25.6087 N.ar    1  UNL1       -0.2817
     13 C           8.3643   -5.5646   26.1560 C.ar    1  UNL1        0.0796
     14 C           8.1268   -6.8878   25.4907 C.ar    1  UNL1        0.0188
     15 C           8.0533   -8.1390   26.3146 C.ar    1  UNL1        0.0016
     16 C           8.2173   -8.0671   27.8039 C.ar    1  UNL1        0.0016
     17 C           8.4549   -6.7439   28.4692 C.ar    1  UNL1        0.0188
     18 C           8.5284   -5.4927   27.6453 C.ar    1  UNL1        0.0800
     19 C           8.9614   -3.5291   29.4065 C.3     1  UNL1        0.1374
     20 C           5.6198   -1.8427   30.7255 C.ar    1  UNL1        0.1385
     21 C           5.4209   -2.5796   32.0167 C.ar    1  UNL1        0.0369
     22 C           6.4021   -3.6331   32.4379 C.ar    1  UNL1        0.0029
     23 C           7.5823   -3.9496   31.5678 C.ar    1  UNL1       -0.0022
     24 C           7.7813   -3.2126   30.2765 C.ar    1  UNL1        0.0035
     25 C           6.8000   -2.1592   29.8554 C.ar    1  UNL1        0.0345
     26 C           3.4455   -0.4895   31.1626 C.3     1  UNL1        0.2525
     27 O           4.6386   -0.7892   30.3043 O.3     1  UNL1       -0.4714
     28 C           6.8295   -1.9671   19.3124 C.3     1  UNL1        0.0795
     29 C           5.7426   -2.8134   18.7187 C.3     1  UNL1        0.0264
     30 C           4.4899   -2.1708   18.2011 C.3     1  UNL1        0.0729
     31 N           4.3242   -0.6819   18.2771 N.3     1  UNL1       -0.2689
     32 C           5.4111    0.1644   18.8707 C.3     1  UNL1        0.0729
     33 C           6.6637   -0.4782   19.3883 C.3     1  UNL1        0.0264
     34 C           3.0715   -0.0394   17.7595 C.3     1  UNL1        0.0992
     35 C           1.9870    0.3657   18.7133 C.ar    1  UNL1       -0.0031
     36 C           1.6160   -0.5353   19.8537 C.ar    1  UNL1        0.0178
     37 C           0.5315   -0.1302   20.8075 C.ar    1  UNL1        0.0986
     38 N          -0.1819    1.1761   20.6210 N.ar    1  UNL1       -0.2423
     39 C           0.1892    2.0771   19.4806 C.ar    1  UNL1        0.0986
     40 C           1.2736    1.6720   18.5268 C.ar    1  UNL1        0.0178
@<TRIPOS>BOND
     1    26    27    1
     2    27    20    1
     3    20    21   ar
     4    21    22   ar
     5    22    23   ar
     6    23    24   ar
     7    24    19    1
     8    19     9    1
     9     9    10   ar
    10    10    11    2
    11    10    12   ar
    12    12     1    1
    13     1     2    1
    14     2     3    1
    15     3     4    1
    16     4     5   am
    17     5     6    2
    18     5    28    1
    19    28    29    1
    20    29    30    1
    21    30    31    1
    22    31    34    1
    23    34    35    1
    24    35    36   ar
    25    36    37   ar
    26    37    38   ar
    27    38    39   ar
    28    39    40   ar
    29    31    32    1
    30    32    33    1
    31     4     7    1
    32     7     8    1
    33    12    13   ar
    34    13    14   ar
    35    14    15   ar
    36    15    16   ar
    37    16    17   ar
    38    17    18   ar
    39    24    25   ar
    40    25    20   ar
    41    18     9   ar
    42     8     1    1
    43    18    13   ar
    44    33    28    1
    45    40    35   ar
@<TRIPOS>MOLECULE
*****
 40 45 0 0 0
SMALL
GASTEIGER

@<TRIPOS>ATOM
      1 C           3.8387   -0.0655   28.2028 C.3     1  UNL1        0.0933
      2 C           3.6411    0.5446   29.5589 C.3     1  UNL1        0.0442
      3 C           4.3399   -0.0370   30.7520 C.3     1  UNL1        0.0953
      4 N           5.2362   -1.2286   30.5891 N.am    1  UNL1       -0.2794
      5 C           5.9351   -1.8101   31.7822 C.2     1  UNL1        0.2252
      6 O           6.8314   -3.0017   31.6193 O.2     1  UNL1       -0.2749
      7 C           5.4338   -1.8386   29.2331 C.3     1  UNL1        0.0953
      8 C           4.7350   -1.2571   28.0400 C.3     1  UNL1        0.0442
      9 N           2.6955    1.3478   24.7734 N.ar    1  UNL1       -0.2758
     10 C           3.7502    0.7557   25.6606 C.ar    1  UNL1        0.3317
     11 O           5.1664    0.4560   25.2677 O.2     1  UNL1       -0.2463
     12 N           3.1398    0.5160   27.0097 N.ar    1  UNL1       -0.2817
     13 C           1.7080    0.9599   26.9562 C.ar    1  UNL1        0.0796
     14 C           0.6188    0.9624   27.9875 C.ar    1  UNL1        0.0188
     15 C          -0.7450    1.4790   27.6367 C.ar    1  UNL1        0.0016
     16 C          -1.0196    1.9931   26.2546 C.ar    1  UNL1        0.0016
     17 C           0.0696    1.9906   25.2233 C.ar    1  UNL1        0.0188
     18 C           1.4334    1.4740   25.5741 C.ar    1  UNL1        0.0800
     19 C           2.8720    1.7441   23.3375 C.3     1  UNL1        0.1374
     20 C           2.7194   -1.1609   20.6380 C.ar    1  UNL1        0.1385
     21 C           1.3533   -0.9390   20.0596 C.ar    1  UNL1        0.0369
     22 C           0.4934    0.1774   20.5738 C.ar    1  UNL1        0.0029
     23 C           0.9997    1.0717   21.6664 C.ar    1  UNL1       -0.0022
     24 C           2.3658    0.8498   22.2449 C.ar    1  UNL1        0.0035
     25 C           3.2256   -0.2666   21.7306 C.ar    1  UNL1        0.0345
     26 C           3.9098   -2.3574   18.6628 C.3     1  UNL1        0.2525
     27 O           3.5792   -2.2773   20.1237 O.3     1  UNL1       -0.4714
     28 C           5.7374   -1.2000   33.1381 C.3     1  UNL1        0.0795
     29 C           6.7164   -0.1879   33.6551 C.3     1  UNL1        0.0264
     30 C           6.5187    0.4222   35.0112 C.3     1  UNL1        0.0729
     31 N           5.3420    0.0202   35.8501 N.3     1  UNL1       -0.2689
     32 C           4.3630   -0.9918   35.3331 C.3     1  UNL1        0.0729
     33 C           4.5607   -1.6019   33.9771 C.3     1  UNL1        0.0264
     34 C           5.1444    0.6304   37.2061 C.3     1  UNL1        0.0992
     35 C           3.8960    1.4065   37.5046 C.ar    1  UNL1       -0.0031
     36 C           3.5202    2.5804   36.6497 C.ar    1  UNL1        0.0178
     37 C           2.2718    3.3566   36.9483 C.ar    1  UNL1        0.0986
     38 N           1.3993    2.9589   38.1017 N.ar    1  UNL1       -0.2423
     39 C           1.7750    1.7850   38.9566 C.ar    1  UNL1        0.0986
     40 C           3.0234    1.0088   38.6580 C.ar    1  UNL1        0.0178
@<TRIPOS>BOND
     1    26    27    1
     2    27    20    1
     3    20    21   ar
     4    21    22   ar
     5    22    23   ar
     6    23    24   ar
     7    24    19    1
     8    19     9    1
     9     9    10   ar
    10    10    11    2
    11    10    12   ar
    12    12     1    1
    13     1     2    1
    14     2     3    1
    15     3     4    1
    16     4     5   am
    17     5     6    2
    18     5    28    1
    19    28    29    1
    20    29    30    1
    21    30    31    1
    22    31    34    1
    23    34    35    1
    24    35    36   ar
    25    36    37   ar
    26    37    38   ar
    27    38    39   ar
    28    39    40   ar
    29    31    32    1
    30    32    33    1
    31     4     7    1
    32     7     8    1
    33    12    13   ar
    34    13    14   ar
    35    14    15   ar
    36    15    16   ar
    37    16    17   ar
    38    17    18   ar
    39    24    25   ar
    40    25    20   ar
    41    18     9   ar
    42     8     1    1
    43    18    13   ar
    44    33    28    1
    45    40    35   ar
@<TRIPOS>MOLECULE
*****
 40 45 0 0 0
SMALL
GASTEIGER

@<TRIPOS>ATOM
      1 C           0.8279    2.0148   19.1218 C.3     1  UNL1        0.0933
      2 C          -0.1342    2.0530   20.2720 C.3     1  UNL1        0.0442
      3 C          -1.3397    2.9436   20.2122 C.3     1  UNL1        0.0953
      4 N          -1.5831    3.7960   19.0022 N.am    1  UNL1       -0.2794
      5 C          -2.7886    4.6867   18.9424 C.2     1  UNL1        0.2252
      6 O          -3.0320    5.5391   17.7324 O.2     1  UNL1       -0.2749
      7 C          -0.6210    3.7578   17.8521 C.3     1  UNL1        0.0953
      8 C           0.5845    2.8672   17.9119 C.3     1  UNL1        0.0442
      9 N           3.4599   -0.8097   19.5215 N.ar    1  UNL1       -0.2758
     10 C           2.0486   -0.3110   19.6178 C.ar    1  UNL1        0.3317
     11 O           0.8609   -1.1074   20.0707 O.2     1  UNL1       -0.2463
     12 N           2.0334    1.1241   19.1816 N.ar    1  UNL1       -0.2817
     13 C           3.4354    1.5123   18.8158 C.ar    1  UNL1        0.0796
     14 C           4.0231    2.7997   18.3186 C.ar    1  UNL1        0.0188
     15 C           5.4924    2.8918   18.0314 C.ar    1  UNL1        0.0016
     16 C           6.3741    1.6966   18.2414 C.ar    1  UNL1        0.0016
     17 C           5.7864    0.4092   18.7387 C.ar    1  UNL1        0.0188
     18 C           4.3170    0.3171   19.0259 C.ar    1  UNL1        0.0800
     19 C           3.9315   -2.1926   19.8612 C.3     1  UNL1        0.1374
     20 C           5.9589   -3.8717   22.8311 C.ar    1  UNL1        0.1385
     21 C           5.4280   -3.1049   24.0059 C.ar    1  UNL1        0.0369
     22 C           4.3983   -2.0339   23.7991 C.ar    1  UNL1        0.0029
     23 C           3.8994   -1.7298   22.4176 C.ar    1  UNL1       -0.0022
     24 C           4.4303   -2.4967   21.2427 C.ar    1  UNL1        0.0035
     25 C           5.4601   -3.5676   21.4495 C.ar    1  UNL1        0.0345
     26 C           7.6608   -5.0894   24.3708 C.3     1  UNL1        0.2525
     27 O           6.9886   -4.9426   23.0379 O.3     1  UNL1       -0.4714
     28 C          -3.7506    4.7248   20.0926 C.3     1  UNL1        0.0795
     29 C          -4.7773    3.6423   20.2479 C.3     1  UNL1        0.0264
     30 C          -5.7394    3.6805   21.3982 C.3     1  UNL1        0.0729
     31 N          -5.6747    4.8012   22.3931 N.3     1  UNL1       -0.2689
     32 C          -4.6481    5.8837   22.2378 C.3     1  UNL1        0.0729
     33 C          -3.6861    5.8455   21.0875 C.3     1  UNL1        0.0264
     34 C          -6.6367    4.8393   23.5433 C.3     1  UNL1        0.0992
     35 C          -6.1256    5.0076   24.9434 C.ar    1  UNL1       -0.0031
     36 C          -5.0079    4.1409   25.4430 C.ar    1  UNL1        0.0178
     37 C          -4.4967    4.3092   26.8432 C.ar    1  UNL1        0.0986
     38 N          -5.1032    5.3442   27.7437 N.ar    1  UNL1       -0.2423
     39 C          -6.2209    6.2109   27.2441 C.ar    1  UNL1        0.0986
     40 C          -6.7321    6.0426   25.8439 C.ar    1  UNL1        0.0178
@<TRIPOS>BOND
     1    26    27    1
     2    27    20    1
     3    20    21   ar
     4    21    22   ar
     5    22    23   ar
     6    23    24   ar
     7    24    19    1
     8    19     9    1
     9     9    10   ar
    10    10    11    2
    11    10    12   ar
    12    12     1    1
    13     1     2    1
    14     2     3    1
    15     3     4    1
    16     4     5   am
    17     5     6    2
    18     5    28    1
    19    28    29    1
    20    29    30    1
    21    30    31    1
    22    31    34    1
    23    34    35    1
    24    35    36   ar
    25    36    37   ar
    26    37    38   ar
    27    38    39   ar
    28    39    40   ar
    29    31    32    1
    30    32    33    1
    31     4     7    1
    32     7     8    1
    33    12    13   ar
    34    13    14   ar
    35    14    15   ar
    36    15    16   ar
    37    16    17   ar
    38    17    18   ar
    39    24    25   ar
    40    25    20   ar
    41    18     9   ar
    42     8     1    1
    43    18    13   ar
    44    33    28    1
    45    40    35   ar
@<TRIPOS>MOLECULE
*****
 40 45 0 0 0
SMALL
GASTEIGER

@<TRIPOS>ATOM
      1 C           6.7092   -2.9512   26.4622 C.3     1  UNL1        0.0933
      2 C           5.8309   -2.1874   25.5159 C.3     1  UNL1        0.0442
      3 C           5.8509   -2.5070   24.0505 C.3     1  UNL1        0.0953
      4 N           6.7491   -3.5904   23.5313 N.am    1  UNL1       -0.2794
      5 C           6.7691   -3.9100   22.0659 C.2     1  UNL1        0.2252
      6 O           7.6673   -4.9934   21.5468 O.2     1  UNL1       -0.2749
      7 C           7.6273   -4.3542   24.4776 C.3     1  UNL1        0.0953
      8 C           7.6073   -4.0345   25.9430 C.3     1  UNL1        0.0442
      9 N           6.5918   -1.4101   30.0226 N.ar    1  UNL1       -0.2758
     10 C           6.5697   -1.2631   28.5300 C.ar    1  UNL1        0.3317
     11 O           6.4493    0.0261   27.7727 O.2     1  UNL1       -0.2463
     12 N           6.6892   -2.6316   27.9276 N.ar    1  UNL1       -0.2817
     13 C           6.7851   -3.6244   29.0479 C.ar    1  UNL1        0.0796
     14 C           6.9195   -5.1183   29.0563 C.ar    1  UNL1        0.0188
     15 C           6.9937   -5.8573   30.3595 C.ar    1  UNL1        0.0016
     16 C           6.9335   -5.1024   31.6543 C.ar    1  UNL1        0.0016
     17 C           6.7991   -3.6085   31.6459 C.ar    1  UNL1        0.0188
     18 C           6.7249   -2.8695   30.3427 C.ar    1  UNL1        0.0800
     19 C           6.4974   -0.2938   31.0200 C.3     1  UNL1        0.1374
     20 C           2.5753    0.3021   31.1301 C.ar    1  UNL1        0.1385
     21 C           2.4683    1.2759   32.2659 C.ar    1  UNL1        0.0369
     22 C           3.7043    1.7266   32.9865 C.ar    1  UNL1        0.0029
     23 C           5.0473    1.2034   32.5711 C.ar    1  UNL1       -0.0022
     24 C           5.1544    0.2294   31.4353 C.ar    1  UNL1        0.0035
     25 C           3.9183   -0.2212   30.7148 C.ar    1  UNL1        0.0345
     26 C           1.0068    0.4210   29.0624 C.3     1  UNL1        0.2525
     27 O           1.3393   -0.1485   30.4096 O.3     1  UNL1       -0.4714
     28 C           5.8909   -3.1463   21.1197 C.3     1  UNL1        0.0795
     29 C           6.3370   -1.8153   20.5910 C.3     1  UNL1        0.0264
     30 C           5.4587   -1.0515   19.6447 C.3     1  UNL1        0.0729
     31 N           4.1343   -1.6187   19.2273 N.3     1  UNL1       -0.2689
     32 C           3.6882   -2.9496   19.7560 C.3     1  UNL1        0.0729
     33 C           4.5665   -3.7134   20.7022 C.3     1  UNL1        0.0264
     34 C           3.2561   -0.8549   18.2811 C.3     1  UNL1        0.0992
     35 C           2.2798    0.1527   18.8116 C.ar    1  UNL1       -0.0031
     36 C           1.2000   -0.2765   19.7602 C.ar    1  UNL1        0.0178
     37 C           0.2236    0.7311   20.2907 C.ar    1  UNL1        0.0986
     38 N           0.3271    2.1679   19.8726 N.ar    1  UNL1       -0.2423
     39 C           1.4069    2.5971   18.9240 C.ar    1  UNL1        0.0986
     40 C           2.3832    1.5895   18.3935 C.ar    1  UNL1        0.0178
@<TRIPOS>BOND
     1    26    27    1
     2    27    20    1
     3    20    21   ar
     4    21    22   ar
     5    22    23   ar
     6    23    24   ar
     7    24    19    1
     8    19     9    1
     9     9    10   ar
    10    10    11    2
    11    10    12   ar
    12    12     1    1
    13     1     2    1
    14     2     3    1
    15     3     4    1
    16     4     5   am
    17     5     6    2
    18     5    28    1
    19    28    29    1
    20    29    30    1
    21    30    31    1
    22    31    34    1
    23    34    35    1
    24    35    36   ar
    25    36    37   ar
    26    37    38   ar
    27    38    39   ar
    28    39    40   ar
    29    31    32    1
    30    32    33    1
    31     4     7    1
    32     7     8    1
    33    12    13   ar
    34    13    14   ar
    35    14    15   ar
    36    15    16   ar
    37    16    17   ar
    38    17    18   ar
    39    24    25   ar
    40    25    20   ar
    41    18     9   ar
    42     8     1    1
    43    18    13   ar
    44    33    28    1
    45    40    35   ar
@<TRIPOS>MOLECULE
*****
 40 45 0 0 0
SMALL
GASTEIGER

@<TRIPOS>ATOM
      1 C           3.3098   -0.0030   26.8157 C.3     1  UNL1        0.0933
      2 C           2.8520    1.3623   27.2360 C.3     1  UNL1        0.0442
      3 C           2.5815    1.6502   28.6830 C.3     1  UNL1        0.0953
      4 N           2.7689    0.5728   29.7098 N.am    1  UNL1       -0.2794
      5 C           2.4984    0.8607   31.1569 C.2     1  UNL1        0.2252
      6 O           2.6857   -0.2166   32.1837 O.2     1  UNL1       -0.2749
      7 C           3.2266   -0.7924   29.2895 C.3     1  UNL1        0.0953
      8 C           3.4970   -1.0802   27.8424 C.3     1  UNL1        0.0442
      9 N           4.6424   -1.0658   23.3286 N.ar    1  UNL1       -0.2758
     10 C           4.7845   -0.9972   24.8203 C.ar    1  UNL1        0.3317
     11 O           5.9299   -1.5396   25.6227 O.2     1  UNL1       -0.2463
     12 N           3.5802   -0.2909   25.3686 N.ar    1  UNL1       -0.2817
     13 C           2.6937    0.0770   24.2158 C.ar    1  UNL1        0.0796
     14 C           1.3736    0.7863   24.1514 C.ar    1  UNL1        0.0188
     15 C           0.7100    1.0166   22.8261 C.ar    1  UNL1        0.0016
     16 C           1.3664    0.5377   21.5652 C.ar    1  UNL1        0.0016
     17 C           2.6866   -0.1716   21.6297 C.ar    1  UNL1        0.0188
     18 C           3.3502   -0.4019   22.9550 C.ar    1  UNL1        0.0800
     19 C           5.6207   -1.6889   22.3774 C.3     1  UNL1        0.1374
     20 C           4.7497   -2.4934   18.5901 C.ar    1  UNL1        0.1385
     21 C           4.1375   -3.8562   18.7233 C.ar    1  UNL1        0.0369
     22 C           4.0197   -4.4967   20.0746 C.ar    1  UNL1        0.0029
     23 C           4.5141   -3.7743   21.2926 C.ar    1  UNL1       -0.0022
     24 C           5.1263   -2.4113   21.1594 C.ar    1  UNL1        0.0035
     25 C           5.2440   -1.7709   19.8081 C.ar    1  UNL1        0.0345
     26 C           4.7198   -0.3669   17.0977 C.3     1  UNL1        0.2525
     27 O           4.8674   -1.8529   17.2388 O.3     1  UNL1       -0.4714
     28 C           2.0407    2.2259   31.5771 C.3     1  UNL1        0.0795
     29 C           0.5770    2.5532   31.5967 C.3     1  UNL1        0.0264
     30 C           0.1193    3.9186   32.0169 C.3     1  UNL1        0.0729
     31 N           1.1253    4.9565   32.4176 N.3     1  UNL1       -0.2689
     32 C           2.5890    4.6292   32.3979 C.3     1  UNL1        0.0729
     33 C           3.0467    3.2640   31.9777 C.3     1  UNL1        0.0264
     34 C           0.6676    6.3217   32.8378 C.3     1  UNL1        0.0992
     35 C           0.0308    6.5187   34.1815 C.ar    1  UNL1       -0.0031
     36 C           0.7285    6.0390   35.4197 C.ar    1  UNL1        0.0178
     37 C           0.0918    6.2360   36.7635 C.ar    1  UNL1        0.0986
     38 N          -1.2427    6.9127   36.8690 N.ar    1  UNL1       -0.2423
     39 C          -1.9404    7.3925   35.6309 C.ar    1  UNL1        0.0986
     40 C          -1.3037    7.1955   34.2871 C.ar    1  UNL1        0.0178
@<TRIPOS>BOND
     1    26    27    1
     2    27    20    1
     3    20    21   ar
     4    21    22   ar
     5    22    23   ar
     6    23    24   ar
     7    24    19    1
     8    19     9    1
     9     9    10   ar
    10    10    11    2
    11    10    12   ar
    12    12     1    1
    13     1     2    1
    14     2     3    1
    15     3     4    1
    16     4     5   am
    17     5     6    2
    18     5    28    1
    19    28    29    1
    20    29    30    1
    21    30    31    1
    22    31    34    1
    23    34    35    1
    24    35    36   ar
    25    36    37   ar
    26    37    38   ar
    27    38    39   ar
    28    39    40   ar
    29    31    32    1
    30    32    33    1
    31     4     7    1
    32     7     8    1
    33    12    13   ar
    34    13    14   ar
    35    14    15   ar
    36    15    16   ar
    37    16    17   ar
    38    17    18   ar
    39    24    25   ar
    40    25    20   ar
    41    18     9   ar
    42     8     1    1
    43    18    13   ar
    44    33    28    1
    45    40    35   ar
