@<TRIPOS>MOLECULE
*****
 24 27 0 0 0
SMALL
GASTEIGER

@<TRIPOS>ATOM
      1 O          -6.9571  -17.8868   20.6108 O.2     1  UNL1       -0.2526
      2 C          -7.4443  -19.0300   21.4510 C.2     1  UNL1        0.3039
      3 N          -6.6128  -20.2713   21.5833 N.am    1  UNL1       -0.2901
      4 N          -8.7631  -18.9316   22.1590 N.am    1  UNL1       -0.2642
      5 C          -9.5946  -17.6902   22.0268 C.3     1  UNL1        0.0954
      6 C         -10.9133  -17.5919   22.7348 C.3     1  UNL1        0.0293
      7 C         -11.4005  -18.7350   23.5751 C.3     1  UNL1        0.0654
      8 C         -10.5690  -19.9764   23.7073 C.3     1  UNL1        0.0293
      9 C          -9.2503  -20.0747   22.9993 C.3     1  UNL1        0.0954
     10 H          -6.9326  -21.0216   22.1347 H       1  UNL1        0.1509
     11 C         -12.7193  -18.6367   24.2831 C.ar    1  UNL1        0.1806
     12 N         -14.0159  -18.1920   23.6741 N.ar    1  UNL1       -0.1871
     13 C         -15.0709  -18.2462   24.7390 C.ar    1  UNL1        0.3161
     14 O         -14.4263  -18.7245   26.0062 O.2     1  UNL1       -0.3277
     15 N         -12.9729  -18.9658   25.7244 N.ar    1  UNL1       -0.0600
     16 C          -5.2941  -20.3696   20.8752 C.3     1  UNL1        0.0774
     17 C          -4.3470  -21.1269   19.9923 C.3     1  UNL1        0.0259
     18 C          -3.9571  -19.7827   20.5319 C.3     1  UNL1        0.0420
     19 C          -2.9600  -18.6677   20.6452 C.ar    1  UNL1       -0.0208
     20 C          -1.8725  -18.5272   19.6217 C.ar    1  UNL1       -0.0042
     21 C          -0.8755  -17.4122   19.7351 C.ar    1  UNL1       -0.0003
     22 C          -0.9661  -16.4378   20.8719 C.ar    1  UNL1       -0.0000
     23 C          -2.0536  -16.5784   21.8954 C.ar    1  UNL1       -0.0003
     24 C          -3.0505  -17.6933   21.7820 C.ar    1  UNL1       -0.0042
@<TRIPOS>BOND
     1     1     2    2
     2     2     3   am
     3     3    16    1
     4    16    17    1
     5    17    18    1
     6    18    19    1
     7    19    20   ar
     8    20    21   ar
     9    21    22   ar
    10    22    23   ar
    11    23    24   ar
    12     2     4   am
    13     4     5    1
    14     5     6    1
    15     6     7    1
    16     7    11    1
    17    11    12   ar
    18    12    13   ar
    19    13    14   ar
    20    14    15   ar
    21     7     8    1
    22     8     9    1
    23    18    16    1
    24    24    19   ar
    25     9     4    1
    26    15    11   ar
    27     3    10    1
@<TRIPOS>MOLECULE
*****
 24 27 0 0 0
SMALL
GASTEIGER

@<TRIPOS>ATOM
      1 O          -0.1601    3.9304   19.3009 O.2     1  UNL1       -0.2526
      2 C          -0.2065    2.5644   19.9188 C.2     1  UNL1        0.3039
      3 N          -1.3016    2.2137   20.8820 N.am    1  UNL1       -0.2901
      4 N           0.8421    1.5490   19.5734 N.am    1  UNL1       -0.2642
      5 C           1.9372    1.8997   18.6101 C.3     1  UNL1        0.0954
      6 C           2.9859    0.8843   18.2647 C.3     1  UNL1        0.0293
      7 C           2.9395   -0.4818   18.8827 C.3     1  UNL1        0.0654
      8 C           1.8444   -0.8324   19.8459 C.3     1  UNL1        0.0293
      9 C           0.7958    0.1829   20.1913 C.3     1  UNL1        0.0954
     10 H          -1.3320    1.3171   21.2876 H       1  UNL1        0.1509
     11 C           3.9882   -1.4972   18.5373 C.ar    1  UNL1        0.1806
     12 N           4.2058   -2.8102   19.2290 N.ar    1  UNL1       -0.1871
     13 C           5.3555   -3.5024   18.5588 C.ar    1  UNL1        0.3161
     14 O           5.8484   -2.6171   17.4528 O.2     1  UNL1       -0.3277
     15 N           5.0034   -1.3778   17.4395 N.ar    1  UNL1       -0.0600
     16 C          -2.3502    3.2291   21.2274 C.3     1  UNL1        0.0774
     17 C          -3.2868    4.3233   20.8085 C.3     1  UNL1        0.0259
     18 C          -3.2300    3.8935   22.2445 C.3     1  UNL1        0.0420
     19 C          -3.7052    4.0289   23.6608 C.ar    1  UNL1       -0.0208
     20 C          -5.1180    4.4476   23.9411 C.ar    1  UNL1       -0.0042
     21 C          -5.5932    4.5830   25.3574 C.ar    1  UNL1       -0.0003
     22 C          -4.6555    4.2997   26.4934 C.ar    1  UNL1       -0.0000
     23 C          -3.2427    3.8810   26.2131 C.ar    1  UNL1       -0.0003
     24 C          -2.7675    3.7456   24.7968 C.ar    1  UNL1       -0.0042
@<TRIPOS>BOND
     1     1     2    2
     2     2     3   am
     3     3    16    1
     4    16    17    1
     5    17    18    1
     6    18    19    1
     7    19    20   ar
     8    20    21   ar
     9    21    22   ar
    10    22    23   ar
    11    23    24   ar
    12     2     4   am
    13     4     5    1
    14     5     6    1
    15     6     7    1
    16     7    11    1
    17    11    12   ar
    18    12    13   ar
    19    13    14   ar
    20    14    15   ar
    21     7     8    1
    22     8     9    1
    23    18    16    1
    24    24    19   ar
    25     9     4    1
    26    15    11   ar
    27     3    10    1
@<TRIPOS>MOLECULE
*****
 24 27 0 0 0
SMALL
GASTEIGER

@<TRIPOS>ATOM
      1 O           6.9147   -4.9528   23.1699 O.2     1  UNL1       -0.2526
      2 C           5.9942   -3.9082   23.7282 C.2     1  UNL1        0.3039
      3 N           5.9485   -3.6617   25.2070 N.am    1  UNL1       -0.2901
      4 N           5.1192   -3.1103   22.8075 N.am    1  UNL1       -0.2642
      5 C           5.1648   -3.3568   21.3285 C.3     1  UNL1        0.0954
      6 C           4.2899   -2.5588   20.4078 C.3     1  UNL1        0.0293
      7 C           3.3693   -1.5143   20.9661 C.3     1  UNL1        0.0654
      8 C           3.3237   -1.2678   22.4449 C.3     1  UNL1        0.0293
      9 C           4.1987   -2.0658   23.3656 C.3     1  UNL1        0.0954
     10 H           5.3444   -2.9762   25.5734 H       1  UNL1        0.1509
     11 C           2.4944   -0.7163   20.0454 C.ar    1  UNL1        0.1806
     12 N           2.9550    0.0764   18.8582 N.ar    1  UNL1       -0.1871
     13 C           1.7505    0.7117   18.2293 C.ar    1  UNL1        0.3161
     14 O           0.5454    0.3116   19.0278 O.2     1  UNL1       -0.3277
     15 N           1.0051   -0.5709   20.1502 N.ar    1  UNL1       -0.0600
     16 C           6.8235   -4.4597   26.1278 C.3     1  UNL1        0.0774
     17 C           7.9252   -5.4567   26.3330 C.3     1  UNL1        0.0259
     18 C           7.2372   -4.8448   27.5172 C.3     1  UNL1        0.0420
     19 C           7.0788   -4.7139   29.0031 C.ar    1  UNL1       -0.0208
     20 C           6.7038   -3.3916   29.6037 C.ar    1  UNL1       -0.0042
     21 C           6.5454   -3.2607   31.0895 C.ar    1  UNL1       -0.0003
     22 C           6.7620   -4.4522   31.9747 C.ar    1  UNL1       -0.0000
     23 C           7.1369   -5.7745   31.3741 C.ar    1  UNL1       -0.0003
     24 C           7.2953   -5.9054   29.8882 C.ar    1  UNL1       -0.0042
@<TRIPOS>BOND
     1     1     2    2
     2     2     3   am
     3     3    16    1
     4    16    17    1
     5    17    18    1
     6    18    19    1
     7    19    20   ar
     8    20    21   ar
     9    21    22   ar
    10    22    23   ar
    11    23    24   ar
    12     2     4   am
    13     4     5    1
    14     5     6    1
    15     6     7    1
    16     7    11    1
    17    11    12   ar
    18    12    13   ar
    19    13    14   ar
    20    14    15   ar
    21     7     8    1
    22     8     9    1
    23    18    16    1
    24    24    19   ar
    25     9     4    1
    26    15    11   ar
    27     3    10    1
@<TRIPOS>MOLECULE
*****
 24 27 0 0 0
SMALL
GASTEIGER

@<TRIPOS>ATOM
      1 O           8.4782   -5.1099   23.6869 O.2     1  UNL1       -0.2526
      2 C           7.0910   -4.5434   23.7578 C.2     1  UNL1        0.3039
      3 N           6.2955   -4.6640   25.0237 N.am    1  UNL1       -0.2901
      4 N           6.4995   -3.8565   22.5627 N.am    1  UNL1       -0.2642
      5 C           7.2951   -3.7360   21.2968 C.3     1  UNL1        0.0954
      6 C           6.7035   -3.0491   20.1017 C.3     1  UNL1        0.0293
      7 C           5.3163   -2.4826   20.1726 C.3     1  UNL1        0.0654
      8 C           4.5208   -2.6032   21.4385 C.3     1  UNL1        0.0293
      9 C           5.1124   -3.2901   22.6336 C.3     1  UNL1        0.0954
     10 H           5.3851   -4.2922   25.0702 H       1  UNL1        0.1509
     11 C           4.7247   -1.7957   18.9776 C.ar    1  UNL1        0.1806
     12 N           3.6414   -0.7585   19.0034 N.ar    1  UNL1       -0.1871
     13 C           3.3597   -0.3471   17.5886 C.ar    1  UNL1        0.3161
     14 O           4.2690   -1.1301   16.6885 O.2     1  UNL1       -0.3277
     15 N           5.1126   -2.0253   17.5469 N.ar    1  UNL1       -0.0600
     16 C           6.8871   -5.3509   26.2188 C.3     1  UNL1        0.0774
     17 C           7.6783   -6.4808   26.8081 C.3     1  UNL1        0.0259
     18 C           7.1206   -5.4108   27.6992 C.3     1  UNL1        0.0420
     19 C           6.9333   -4.8276   29.0685 C.ar    1  UNL1       -0.0208
     20 C           7.0682   -5.7009   30.2806 C.ar    1  UNL1       -0.0042
     21 C           6.8810   -5.1177   31.6498 C.ar    1  UNL1       -0.0003
     22 C           6.5589   -3.6611   31.8069 C.ar    1  UNL1       -0.0000
     23 C           6.4240   -2.7878   30.5949 C.ar    1  UNL1       -0.0003
     24 C           6.6112   -3.3710   29.2257 C.ar    1  UNL1       -0.0042
@<TRIPOS>BOND
     1     1     2    2
     2     2     3   am
     3     3    16    1
     4    16    17    1
     5    17    18    1
     6    18    19    1
     7    19    20   ar
     8    20    21   ar
     9    21    22   ar
    10    22    23   ar
    11    23    24   ar
    12     2     4   am
    13     4     5    1
    14     5     6    1
    15     6     7    1
    16     7    11    1
    17    11    12   ar
    18    12    13   ar
    19    13    14   ar
    20    14    15   ar
    21     7     8    1
    22     8     9    1
    23    18    16    1
    24    24    19   ar
    25     9     4    1
    26    15    11   ar
    27     3    10    1
@<TRIPOS>MOLECULE
*****
 24 27 0 0 0
SMALL
GASTEIGER

@<TRIPOS>ATOM
      1 O           1.9920    1.0097   22.7115 O.2     1  UNL1       -0.2526
      2 C           1.6087    0.8462   24.1525 C.2     1  UNL1        0.3039
      3 N           2.3591   -0.1171   25.0236 N.am    1  UNL1       -0.2901
      4 N           0.4749    1.6461   24.7224 N.am    1  UNL1       -0.2642
      5 C          -0.2756    2.6094   23.8513 C.3     1  UNL1        0.0954
      6 C          -1.4094    3.4093   24.4212 C.3     1  UNL1        0.0293
      7 C          -1.7927    3.2458   25.8622 C.3     1  UNL1        0.0654
      8 C          -1.0422    2.2824   26.7332 C.3     1  UNL1        0.0293
      9 C           0.0916    1.4826   26.1634 C.3     1  UNL1        0.0954
     10 H           2.1076   -0.2244   25.9693 H       1  UNL1        0.1509
     11 C          -2.9265    4.0456   26.4321 C.ar    1  UNL1        0.1806
     12 N          -4.3870    3.7451   26.2690 N.ar    1  UNL1       -0.1871
     13 C          -5.1620    4.8001   27.0013 C.ar    1  UNL1        0.3161
     14 O          -4.1804    5.7528   27.6169 O.2     1  UNL1       -0.3277
     15 N          -2.7988    5.2865   27.2651 N.ar    1  UNL1       -0.0600
     16 C           3.4929   -0.9170   24.4537 C.3     1  UNL1        0.0774
     17 C           4.8736   -1.4886   24.5837 C.3     1  UNL1        0.0259
     18 C           4.0760   -1.7307   23.3366 C.3     1  UNL1        0.0420
     19 C           3.9521   -2.3403   21.9716 C.ar    1  UNL1       -0.0208
     20 C           4.3717   -3.7623   21.7444 C.ar    1  UNL1       -0.0042
     21 C           4.2478   -4.3718   20.3795 C.ar    1  UNL1       -0.0003
     22 C           3.7043   -3.5593   19.2418 C.ar    1  UNL1       -0.0000
     23 C           3.2846   -2.1373   19.4690 C.ar    1  UNL1       -0.0003
     24 C           3.4085   -1.5277   20.8339 C.ar    1  UNL1       -0.0042
@<TRIPOS>BOND
     1     1     2    2
     2     2     3   am
     3     3    16    1
     4    16    17    1
     5    17    18    1
     6    18    19    1
     7    19    20   ar
     8    20    21   ar
     9    21    22   ar
    10    22    23   ar
    11    23    24   ar
    12     2     4   am
    13     4     5    1
    14     5     6    1
    15     6     7    1
    16     7    11    1
    17    11    12   ar
    18    12    13   ar
    19    13    14   ar
    20    14    15   ar
    21     7     8    1
    22     8     9    1
    23    18    16    1
    24    24    19   ar
    25     9     4    1
    26    15    11   ar
    27     3    10    1
@<TRIPOS>MOLECULE
*****
 24 27 0 0 0
SMALL
GASTEIGER

@<TRIPOS>ATOM
      1 O          -7.7401  -18.8956   22.1819 O.2     1  UNL1       -0.2526
      2 C          -7.0836  -18.9216   20.8334 C.2     1  UNL1        0.3039
      3 N          -7.9041  -19.1806   19.6047 N.am    1  UNL1       -0.2901
      4 N          -5.6067  -18.6885   20.7137 N.am    1  UNL1       -0.2642
      5 C          -4.7863  -18.4295   21.9425 C.3     1  UNL1        0.0954
      6 C          -3.3093  -18.1964   21.8228 C.3     1  UNL1        0.0293
      7 C          -2.6528  -18.2224   20.4743 C.3     1  UNL1        0.0654
      8 C          -3.4732  -18.4815   19.2456 C.3     1  UNL1        0.0293
      9 C          -4.9502  -18.7145   19.3653 C.3     1  UNL1        0.0954
     10 H          -7.4732  -19.1977   18.7197 H       1  UNL1        0.1509
     11 C          -1.1759  -17.9894   20.3546 C.ar    1  UNL1        0.1806
     12 N          -0.1258  -19.0491   20.1986 N.ar    1  UNL1       -0.1871
     13 C           1.2094  -18.3704   20.1174 C.ar    1  UNL1        0.3161
     14 O           0.9845  -16.8911   20.2233 O.2     1  UNL1       -0.3277
     15 N          -0.4896  -16.6556   20.3699 N.ar    1  UNL1       -0.0600
     16 C          -9.3810  -19.4137   19.7244 C.3     1  UNL1        0.0774
     17 C         -10.6428  -20.0415   19.2111 C.3     1  UNL1        0.0259
     18 C         -10.6772  -19.1895   20.4451 C.3     1  UNL1        0.0420
     19 C         -11.4455  -18.5682   21.5738 C.ar    1  UNL1       -0.0208
     20 C         -12.1869  -17.2822   21.3580 C.ar    1  UNL1       -0.0042
     21 C         -12.9551  -16.6609   22.4866 C.ar    1  UNL1       -0.0003
     22 C         -12.9819  -17.3256   23.8310 C.ar    1  UNL1       -0.0000
     23 C         -12.2406  -18.6116   24.0468 C.ar    1  UNL1       -0.0003
     24 C         -11.4723  -19.2328   22.9182 C.ar    1  UNL1       -0.0042
@<TRIPOS>BOND
     1     1     2    2
     2     2     3   am
     3     3    16    1
     4    16    17    1
     5    17    18    1
     6    18    19    1
     7    19    20   ar
     8    20    21   ar
     9    21    22   ar
    10    22    23   ar
    11    23    24   ar
    12     2     4   am
    13     4     5    1
    14     5     6    1
    15     6     7    1
    16     7    11    1
    17    11    12   ar
    18    12    13   ar
    19    13    14   ar
    20    14    15   ar
    21     7     8    1
    22     8     9    1
    23    18    16    1
    24    24    19   ar
    25     9     4    1
    26    15    11   ar
    27     3    10    1
@<TRIPOS>MOLECULE
*****
 24 27 0 0 0
SMALL
GASTEIGER

@<TRIPOS>ATOM
      1 O           5.0964   -0.9216   25.2331 O.2     1  UNL1       -0.2526
      2 C           3.8860   -0.6093   26.0623 C.2     1  UNL1        0.3039
      3 N           2.6153   -0.1686   25.3981 N.am    1  UNL1       -0.2901
      4 N           3.9464   -0.7376   27.5556 N.am    1  UNL1       -0.2642
      5 C           5.2172   -1.1782   28.2197 C.3     1  UNL1        0.0954
      6 C           5.2776   -1.3065   29.7130 C.3     1  UNL1        0.0293
      7 C           4.0672   -0.9942   30.5421 C.3     1  UNL1        0.0654
      8 C           2.7965   -0.5535   29.8780 C.3     1  UNL1        0.0293
      9 C           2.7361   -0.4252   28.3847 C.3     1  UNL1        0.0954
     10 H           1.8209    0.0364   25.9423 H       1  UNL1        0.1509
     11 C           4.1276   -1.1225   32.0354 C.ar    1  UNL1        0.1806
     12 N           4.5788   -0.0607   32.9940 N.ar    1  UNL1       -0.1871
     13 C           4.4774   -0.6170   34.3834 C.ar    1  UNL1        0.3161
     14 O           3.9636   -2.0227   34.2834 O.2     1  UNL1       -0.3277
     15 N           3.7474   -2.3351   32.8323 N.ar    1  UNL1       -0.0600
     16 C           2.5549   -0.0403   23.9049 C.3     1  UNL1        0.0774
     17 C           2.1686    0.7386   22.6826 C.3     1  UNL1        0.0259
     18 C           2.8366   -0.5970   22.5408 C.3     1  UNL1        0.0420
     19 C           3.3849   -1.6895   21.6714 C.ar    1  UNL1       -0.0208
     20 C           3.0172   -1.7475   20.2183 C.ar    1  UNL1       -0.0042
     21 C           3.5655   -2.8400   19.3490 C.ar    1  UNL1       -0.0003
     22 C           4.4816   -3.8745   19.9327 C.ar    1  UNL1       -0.0000
     23 C           4.8493   -3.8165   21.3858 C.ar    1  UNL1       -0.0003
     24 C           4.3010   -2.7240   22.2551 C.ar    1  UNL1       -0.0042
@<TRIPOS>BOND
     1     1     2    2
     2     2     3   am
     3     3    16    1
     4    16    17    1
     5    17    18    1
     6    18    19    1
     7    19    20   ar
     8    20    21   ar
     9    21    22   ar
    10    22    23   ar
    11    23    24   ar
    12     2     4   am
    13     4     5    1
    14     5     6    1
    15     6     7    1
    16     7    11    1
    17    11    12   ar
    18    12    13   ar
    19    13    14   ar
    20    14    15   ar
    21     7     8    1
    22     8     9    1
    23    18    16    1
    24    24    19   ar
    25     9     4    1
    26    15    11   ar
    27     3    10    1
@<TRIPOS>MOLECULE
*****
 24 27 0 0 0
SMALL
GASTEIGER

@<TRIPOS>ATOM
      1 O           0.4245    2.3578   23.1219 O.2     1  UNL1       -0.2526
      2 C           0.2213    1.6871   21.7956 C.2     1  UNL1        0.3039
      3 N          -0.8849    2.1385   20.8886 N.am    1  UNL1       -0.2901
      4 N           1.1242    0.5651   21.3764 N.am    1  UNL1       -0.2642
      5 C           2.2303    0.1137   22.2835 C.3     1  UNL1        0.0954
      6 C           3.1333   -1.0084   21.8642 C.3     1  UNL1        0.0293
      7 C           2.9300   -1.6790   20.5379 C.3     1  UNL1        0.0654
      8 C           1.8239   -1.2276   19.6309 C.3     1  UNL1        0.0293
      9 C           0.9210   -0.1056   20.0502 C.3     1  UNL1        0.0954
     10 H          -1.0182    1.6984   20.0182 H       1  UNL1        0.1509
     11 C           3.8329   -2.8011   20.1187 C.ar    1  UNL1        0.1806
     12 N           3.5211   -3.8458   19.0885 N.ar    1  UNL1       -0.1871
     13 C           4.7017   -4.7658   18.9891 C.ar    1  UNL1        0.3161
     14 O           5.7431   -4.2897   19.9580 O.2     1  UNL1       -0.3277
     15 N           5.2062   -3.0755   20.6561 N.ar    1  UNL1       -0.0600
     16 C          -1.7878    3.2606   21.3078 C.3     1  UNL1        0.0774
     17 C          -2.5078    4.5371   20.9884 C.3     1  UNL1        0.0259
     18 C          -2.6316    3.9275   22.3534 C.3     1  UNL1        0.0420
     19 C          -3.1903    3.9605   23.7451 C.ar    1  UNL1       -0.0208
     20 C          -4.6379    4.2866   23.9646 C.ar    1  UNL1       -0.0042
     21 C          -5.1965    4.3196   25.3563 C.ar    1  UNL1       -0.0003
     22 C          -4.3075    4.0266   26.5284 C.ar    1  UNL1       -0.0000
     23 C          -2.8600    3.7005   26.3089 C.ar    1  UNL1       -0.0003
     24 C          -2.3014    3.6675   24.9172 C.ar    1  UNL1       -0.0042
@<TRIPOS>BOND
     1     1     2    2
     2     2     3   am
     3     3    16    1
     4    16    17    1
     5    17    18    1
     6    18    19    1
     7    19    20   ar
     8    20    21   ar
     9    21    22   ar
    10    22    23   ar
    11    23    24   ar
    12     2     4   am
    13     4     5    1
    14     5     6    1
    15     6     7    1
    16     7    11    1
    17    11    12   ar
    18    12    13   ar
    19    13    14   ar
    20    14    15   ar
    21     7     8    1
    22     8     9    1
    23    18    16    1
    24    24    19   ar
    25     9     4    1
    26    15    11   ar
    27     3    10    1
@<TRIPOS>MOLECULE
*****
 24 27 0 0 0
SMALL
GASTEIGER

@<TRIPOS>ATOM
      1 O           5.0076   -4.2954   21.5920 O.2     1  UNL1       -0.2526
      2 C           5.6102   -3.1069   20.9032 C.2     1  UNL1        0.3039
      3 N           7.0964   -3.0196   20.7207 N.am    1  UNL1       -0.2901
      4 N           4.7264   -2.0057   20.3969 N.am    1  UNL1       -0.2642
      5 C           3.2401   -2.0931   20.5794 C.3     1  UNL1        0.0954
      6 C           2.3563   -0.9919   20.0731 C.3     1  UNL1        0.0293
      7 C           2.9589    0.1966   19.3843 C.3     1  UNL1        0.0654
      8 C           4.4451    0.2840   19.2018 C.3     1  UNL1        0.0293
      9 C           5.3289   -0.8172   19.7081 C.3     1  UNL1        0.0954
     10 H           7.4919   -2.2395   20.2687 H       1  UNL1        0.1509
     11 C           2.0751    1.2978   18.8780 C.ar    1  UNL1        0.1806
     12 N           2.4125    2.7592   18.8551 N.ar    1  UNL1       -0.1871
     13 C           1.2447    3.4955   18.2686 C.ar    1  UNL1        0.3161
     14 O           0.1854    2.4892   17.9290 O.2     1  UNL1       -0.3277
     15 N           0.6987    1.1310   18.3056 N.ar    1  UNL1       -0.0600
     16 C           7.9802   -4.1208   21.2270 C.3     1  UNL1        0.0774
     17 C           9.1650   -5.0227   21.0459 C.3     1  UNL1        0.0259
     18 C           8.3262   -5.1261   22.2851 C.3     1  UNL1        0.0420
     19 C           8.0416   -5.7663   23.6115 C.ar    1  UNL1       -0.0208
     20 C           7.3387   -4.9884   24.6843 C.ar    1  UNL1       -0.0042
     21 C           7.0542   -5.6286   26.0106 C.ar    1  UNL1       -0.0003
     22 C           7.4725   -7.0466   26.2642 C.ar    1  UNL1       -0.0000
     23 C           8.1753   -7.8244   25.1914 C.ar    1  UNL1       -0.0003
     24 C           8.4599   -7.1843   23.8651 C.ar    1  UNL1       -0.0042
@<TRIPOS>BOND
     1     1     2    2
     2     2     3   am
     3     3    16    1
     4    16    17    1
     5    17    18    1
     6    18    19    1
     7    19    20   ar
     8    20    21   ar
     9    21    22   ar
    10    22    23   ar
    11    23    24   ar
    12     2     4   am
    13     4     5    1
    14     5     6    1
    15     6     7    1
    16     7    11    1
    17    11    12   ar
    18    12    13   ar
    19    13    14   ar
    20    14    15   ar
    21     7     8    1
    22     8     9    1
    23    18    16    1
    24    24    19   ar
    25     9     4    1
    26    15    11   ar
    27     3    10    1
