@<TRIPOS>MOLECULE
*****
 28 31 0 0 0
SMALL
GASTEIGER

@<TRIPOS>ATOM
      1 O          -7.3761  -15.7895   22.2187 O.2     1  UNL1       -0.2695
      2 C          -8.4597  -16.7593   22.5866 C.2     1  UNL1        0.2557
      3 N          -8.7882  -17.0050   24.0294 N.am    1  UNL1       -0.2553
      4 C          -9.2149  -17.4833   21.5116 C.ar    1  UNL1        0.0884
      5 C         -10.2528  -16.7591   20.7065 C.ar    1  UNL1        0.0076
      6 C         -11.0080  -17.4831   19.6315 C.ar    1  UNL1        0.0003
      7 C         -10.7252  -18.9312   19.3617 C.ar    1  UNL1        0.0031
      8 C          -9.6873  -19.6554   20.1668 C.ar    1  UNL1        0.0376
      9 C          -8.9322  -18.9315   21.2418 C.ar    1  UNL1        0.1496
     10 O          -7.8943  -19.6557   22.0470 O.3     1  UNL1       -0.4533
     11 C          -6.4713  -19.6955   21.5741 C.ar    1  UNL1        0.1453
     12 C          -6.0824  -20.5987   20.4413 C.ar    1  UNL1        0.0375
     13 C          -4.6594  -20.6385   19.9685 C.ar    1  UNL1        0.0031
     14 C          -3.6254  -19.7752   20.6284 C.ar    1  UNL1        0.0002
     15 C          -4.0143  -18.8720   21.7611 C.ar    1  UNL1        0.0031
     16 C          -5.4373  -18.8322   22.2340 C.ar    1  UNL1        0.0375
     17 C          -8.0330  -16.2810   25.1044 C.ar    1  UNL1        0.0541
     18 C          -6.5937  -15.9151   24.8934 C.ar    1  UNL1        0.0149
     19 C          -5.8385  -15.1911   25.9683 C.ar    1  UNL1        0.0013
     20 C          -6.5226  -14.8330   27.2542 C.ar    1  UNL1        0.0001
     21 C          -7.9619  -15.1989   27.4653 C.ar    1  UNL1        0.0013
     22 C          -8.7171  -15.9229   26.3903 C.ar    1  UNL1        0.0149
     23 C          -9.8718  -17.9748   24.3973 C.3     1  UNL1        0.0971
     24 C         -11.3333  -17.8192   24.0975 C.3     1  UNL1        0.0387
     25 C         -12.0489  -19.0187   24.6444 C.3     1  UNL1        0.0704
     26 N         -11.0298  -19.9155   25.2823 N.3     1  UNL1       -0.2960
     27 C          -9.6842  -19.2704   25.1296 C.3     1  UNL1        0.0890
     28 H         -11.0319  -20.8251   24.8208 H       1  UNL1        0.1233
@<TRIPOS>BOND
     1     1     2    2
     2     2     4    1
     3     4     5   ar
     4     5     6   ar
     5     6     7   ar
     6     7     8   ar
     7     8     9   ar
     8     9    10    1
     9    10    11    1
    10    11    12   ar
    11    12    13   ar
    12    13    14   ar
    13    14    15   ar
    14    15    16   ar
    15     2     3   am
    16     3    17    1
    17    17    18   ar
    18    18    19   ar
    19    19    20   ar
    20    20    21   ar
    21    21    22   ar
    22    23     3    1
    23    23    24    1
    24    24    25    1
    25    25    26    1
    26    26    27    1
    27     9     4   ar
    28    16    11   ar
    29    22    17   ar
    30    27    23    1
    31    26    28    1
@<TRIPOS>MOLECULE
*****
 28 31 0 0 0
SMALL
GASTEIGER

@<TRIPOS>ATOM
      1 O          -8.3321  -14.8679   22.2711 O.2     1  UNL1       -0.2695
      2 C          -8.5091  -16.0299   23.2030 C.2     1  UNL1        0.2557
      3 N          -9.4118  -17.1657   22.8226 N.am    1  UNL1       -0.2553
      4 C          -7.7831  -16.0560   24.5155 C.ar    1  UNL1        0.0884
      5 C          -8.5570  -16.0831   25.8001 C.ar    1  UNL1        0.0076
      6 C          -7.8311  -16.1092   27.1125 C.ar    1  UNL1        0.0003
      7 C          -6.3314  -16.1082   27.1402 C.ar    1  UNL1        0.0031
      8 C          -5.5576  -16.0810   25.8556 C.ar    1  UNL1        0.0376
      9 C          -6.2834  -16.0549   24.5432 C.ar    1  UNL1        0.1496
     10 O          -5.5095  -16.0278   23.2585 O.3     1  UNL1       -0.4533
     11 C          -4.6828  -17.2128   22.8558 C.ar    1  UNL1        0.1453
     12 C          -3.1859  -17.1164   22.8514 C.ar    1  UNL1        0.0375
     13 C          -2.3592  -18.3014   22.4487 C.ar    1  UNL1        0.0031
     14 C          -3.0293  -19.5829   22.0503 C.ar    1  UNL1        0.0002
     15 C          -4.5262  -19.6794   22.0546 C.ar    1  UNL1        0.0031
     16 C          -5.3530  -18.4943   22.4574 C.ar    1  UNL1        0.0375
     17 C         -10.1378  -17.1396   21.5101 C.ar    1  UNL1        0.0541
     18 C         -10.1274  -18.3492   20.6232 C.ar    1  UNL1        0.0149
     19 C         -10.8533  -18.3232   19.3108 C.ar    1  UNL1        0.0013
     20 C         -11.5895  -17.0875   18.8854 C.ar    1  UNL1        0.0001
     21 C         -11.5999  -15.8779   19.7724 C.ar    1  UNL1        0.0013
     22 C         -10.8740  -15.9039   21.0847 C.ar    1  UNL1        0.0149
     23 C          -9.5887  -18.3277   23.7545 C.3     1  UNL1        0.0971
     24 C          -9.0025  -19.6970   23.5776 C.3     1  UNL1        0.0387
     25 C          -9.4344  -20.5400   24.7407 C.3     1  UNL1        0.0704
     26 N         -10.2876  -19.6917   25.6365 N.3     1  UNL1       -0.2960
     27 C         -10.3829  -18.3244   25.0270 C.3     1  UNL1        0.0890
     28 H          -9.8627  -19.6293   26.5617 H       1  UNL1        0.1233
@<TRIPOS>BOND
     1     1     2    2
     2     2     4    1
     3     4     5   ar
     4     5     6   ar
     5     6     7   ar
     6     7     8   ar
     7     8     9   ar
     8     9    10    1
     9    10    11    1
    10    11    12   ar
    11    12    13   ar
    12    13    14   ar
    13    14    15   ar
    14    15    16   ar
    15     2     3   am
    16     3    17    1
    17    17    18   ar
    18    18    19   ar
    19    19    20   ar
    20    20    21   ar
    21    21    22   ar
    22    23     3    1
    23    23    24    1
    24    24    25    1
    25    25    26    1
    26    26    27    1
    27     9     4   ar
    28    16    11   ar
    29    22    17   ar
    30    27    23    1
    31    26    28    1
@<TRIPOS>MOLECULE
*****
 28 31 0 0 0
SMALL
GASTEIGER

@<TRIPOS>ATOM
      1 O          -7.9655  -14.6976   21.4661 O.2     1  UNL1       -0.2695
      2 C          -8.0945  -15.7323   22.5443 C.2     1  UNL1        0.2557
      3 N          -9.3324  -16.5749   22.6311 N.am    1  UNL1       -0.2553
      4 C          -6.9854  -15.9245   23.5359 C.ar    1  UNL1        0.0884
      5 C          -6.8695  -15.0088   24.7183 C.ar    1  UNL1        0.0076
      6 C          -5.7605  -15.2009   25.7098 C.ar    1  UNL1        0.0003
      7 C          -4.7674  -16.3087   25.5190 C.ar    1  UNL1        0.0031
      8 C          -4.8834  -17.2244   24.3366 C.ar    1  UNL1        0.0376
      9 C          -5.9923  -17.0323   23.3450 C.ar    1  UNL1        0.1496
     10 O          -6.1083  -17.9480   22.1626 O.3     1  UNL1       -0.4533
     11 C          -4.8973  -18.6718   21.6530 C.ar    1  UNL1        0.1453
     12 C          -3.5373  -18.3221   22.1804 C.ar    1  UNL1        0.0375
     13 C          -2.3264  -19.0459   21.6708 C.ar    1  UNL1        0.0031
     14 C          -2.4754  -20.1195   20.6339 C.ar    1  UNL1        0.0002
     15 C          -3.8354  -20.4693   20.1065 C.ar    1  UNL1        0.0031
     16 C          -5.0464  -19.7454   20.6161 C.ar    1  UNL1        0.0375
     17 C         -10.4415  -16.3827   21.6395 C.ar    1  UNL1        0.0541
     18 C         -10.1601  -15.7366   20.3154 C.ar    1  UNL1        0.0149
     19 C         -11.2691  -15.5444   19.3239 C.ar    1  UNL1        0.0013
     20 C         -12.6595  -15.9984   19.6565 C.ar    1  UNL1        0.0001
     21 C         -12.9409  -16.6445   20.9806 C.ar    1  UNL1        0.0013
     22 C         -11.8319  -16.8367   21.9721 C.ar    1  UNL1        0.0149
     23 C          -9.4614  -17.6096   23.7094 C.3     1  UNL1        0.0971
     24 C          -9.4827  -19.0958   23.5072 C.3     1  UNL1        0.0387
     25 C          -9.6261  -19.7446   24.8520 C.3     1  UNL1        0.0704
     26 N          -9.6935  -18.6594   25.8854 N.3     1  UNL1       -0.2960
     27 C          -9.5917  -17.3399   25.1791 C.3     1  UNL1        0.0890
     28 H          -8.9211  -18.7600   26.5439 H       1  UNL1        0.1233
@<TRIPOS>BOND
     1     1     2    2
     2     2     4    1
     3     4     5   ar
     4     5     6   ar
     5     6     7   ar
     6     7     8   ar
     7     8     9   ar
     8     9    10    1
     9    10    11    1
    10    11    12   ar
    11    12    13   ar
    12    13    14   ar
    13    14    15   ar
    14    15    16   ar
    15     2     3   am
    16     3    17    1
    17    17    18   ar
    18    18    19   ar
    19    19    20   ar
    20    20    21   ar
    21    21    22   ar
    22    23     3    1
    23    23    24    1
    24    24    25    1
    25    25    26    1
    26    26    27    1
    27     9     4   ar
    28    16    11   ar
    29    22    17   ar
    30    27    23    1
    31    26    28    1
@<TRIPOS>MOLECULE
*****
 28 31 0 0 0
SMALL
GASTEIGER

@<TRIPOS>ATOM
      1 O          -7.9507  -15.9411   20.9258 O.2     1  UNL1       -0.2695
      2 C          -7.9660  -17.1418   21.8246 C.2     1  UNL1        0.2557
      3 N          -9.2699  -17.6813   22.3333 N.am    1  UNL1       -0.2553
      4 C          -6.6774  -17.8031   22.2149 C.ar    1  UNL1        0.0884
      5 C          -6.3562  -19.1777   21.7078 C.ar    1  UNL1        0.0076
      6 C          -5.0676  -19.8390   22.0980 C.ar    1  UNL1        0.0003
      7 C          -4.1002  -19.1255   22.9953 C.ar    1  UNL1        0.0031
      8 C          -4.4214  -17.7509   23.5024 C.ar    1  UNL1        0.0376
      9 C          -5.7100  -17.0896   23.1122 C.ar    1  UNL1        0.1496
     10 O          -6.0312  -15.7150   23.6192 O.3     1  UNL1       -0.4533
     11 C          -6.7385  -15.5457   24.9311 C.ar    1  UNL1        0.1453
     12 C          -8.2351  -15.4524   24.9698 C.ar    1  UNL1        0.0375
     13 C          -8.9423  -15.2832   26.2817 C.ar    1  UNL1        0.0031
     14 C          -8.1530  -15.2073   27.5550 C.ar    1  UNL1        0.0002
     15 C          -6.6565  -15.3006   27.5164 C.ar    1  UNL1        0.0031
     16 C          -5.9491  -15.4699   26.2044 C.ar    1  UNL1        0.0375
     17 C         -10.5586  -17.0201   21.9430 C.ar    1  UNL1        0.0541
     18 C         -11.3791  -16.3076   22.9770 C.ar    1  UNL1        0.0149
     19 C         -12.6677  -15.6464   22.5868 C.ar    1  UNL1        0.0013
     20 C         -13.1358  -15.6977   21.1626 C.ar    1  UNL1        0.0001
     21 C         -12.3153  -16.4102   20.1287 C.ar    1  UNL1        0.0013
     22 C         -11.0267  -17.0714   20.5189 C.ar    1  UNL1        0.0149
     23 C          -9.2853  -18.8821   23.2321 C.3     1  UNL1        0.0971
     24 C          -8.8501  -20.2683   22.8592 C.3     1  UNL1        0.0387
     25 C          -9.0343  -21.1504   24.0584 C.3     1  UNL1        0.0704
     26 N          -9.5834  -20.3093   25.1724 N.3     1  UNL1       -0.2960
     27 C          -9.7385  -18.9075   24.6618 C.3     1  UNL1        0.0890
     28 H          -8.9400  -20.3203   25.9639 H       1  UNL1        0.1233
@<TRIPOS>BOND
     1     1     2    2
     2     2     4    1
     3     4     5   ar
     4     5     6   ar
     5     6     7   ar
     6     7     8   ar
     7     8     9   ar
     8     9    10    1
     9    10    11    1
    10    11    12   ar
    11    12    13   ar
    12    13    14   ar
    13    14    15   ar
    14    15    16   ar
    15     2     3   am
    16     3    17    1
    17    17    18   ar
    18    18    19   ar
    19    19    20   ar
    20    20    21   ar
    21    21    22   ar
    22    23     3    1
    23    23    24    1
    24    24    25    1
    25    25    26    1
    26    26    27    1
    27     9     4   ar
    28    16    11   ar
    29    22    17   ar
    30    27    23    1
    31    26    28    1
@<TRIPOS>MOLECULE
*****
 28 31 0 0 0
SMALL
GASTEIGER

@<TRIPOS>ATOM
      1 O          -5.9819  -18.1838   20.1086 O.2     1  UNL1       -0.2695
      2 C          -6.9398  -18.2522   21.2609 C.2     1  UNL1        0.2557
      3 N          -8.1043  -19.1964   21.2132 N.am    1  UNL1       -0.2553
      4 C          -6.7331  -17.3762   22.4609 C.ar    1  UNL1        0.0884
      5 C          -7.7722  -16.3619   22.8370 C.ar    1  UNL1        0.0076
      6 C          -7.5656  -15.4859   24.0369 C.ar    1  UNL1        0.0003
      7 C          -6.3198  -15.6243   24.8609 C.ar    1  UNL1        0.0031
      8 C          -5.2807  -16.6387   24.4849 C.ar    1  UNL1        0.0376
      9 C          -5.4874  -17.5146   23.2849 C.ar    1  UNL1        0.1496
     10 O          -4.4483  -18.5290   22.9089 O.3     1  UNL1       -0.4533
     11 C          -3.2864  -18.1289   22.0488 C.ar    1  UNL1        0.1453
     12 C          -2.6889  -16.7597   22.1846 C.ar    1  UNL1        0.0375
     13 C          -1.5270  -16.3597   21.3245 C.ar    1  UNL1        0.0031
     14 C          -0.9624  -17.3288   20.3285 C.ar    1  UNL1        0.0002
     15 C          -1.5598  -18.6980   20.1926 C.ar    1  UNL1        0.0031
     16 C          -2.7218  -19.0981   21.0527 C.ar    1  UNL1        0.0375
     17 C          -8.3110  -20.0723   20.0131 C.ar    1  UNL1        0.0541
     18 C          -9.5014  -19.8598   19.1256 C.ar    1  UNL1        0.0149
     19 C          -9.7082  -20.7357   17.9256 C.ar    1  UNL1        0.0013
     20 C          -8.7245  -21.8241   17.6131 C.ar    1  UNL1        0.0001
     21 C          -7.5340  -22.0366   18.5007 C.ar    1  UNL1        0.0013
     22 C          -7.3273  -21.1607   19.7007 C.ar    1  UNL1        0.0149
     23 C          -9.0622  -19.2647   22.3655 C.3     1  UNL1        0.0971
     24 C          -8.9325  -20.1514   23.5684 C.3     1  UNL1        0.0387
     25 C         -10.1081  -19.8931   24.4636 C.3     1  UNL1        0.0704
     26 N         -10.9643  -18.8467   23.8139 N.3     1  UNL1       -0.2960
     27 C         -10.3178  -18.4584   22.5173 C.3     1  UNL1        0.0890
     28 H         -11.0362  -18.0314   24.4227 H       1  UNL1        0.1233
@<TRIPOS>BOND
     1     1     2    2
     2     2     4    1
     3     4     5   ar
     4     5     6   ar
     5     6     7   ar
     6     7     8   ar
     7     8     9   ar
     8     9    10    1
     9    10    11    1
    10    11    12   ar
    11    12    13   ar
    12    13    14   ar
    13    14    15   ar
    14    15    16   ar
    15     2     3   am
    16     3    17    1
    17    17    18   ar
    18    18    19   ar
    19    19    20   ar
    20    20    21   ar
    21    21    22   ar
    22    23     3    1
    23    23    24    1
    24    24    25    1
    25    25    26    1
    26    26    27    1
    27     9     4   ar
    28    16    11   ar
    29    22    17   ar
    30    27    23    1
    31    26    28    1
@<TRIPOS>MOLECULE
*****
 28 31 0 0 0
SMALL
GASTEIGER

@<TRIPOS>ATOM
      1 O           4.3184   -3.2146   18.8807 O.2     1  UNL1       -0.2695
      2 C           5.3422   -2.3123   19.5033 C.2     1  UNL1        0.2557
      3 N           4.9682   -0.9150   19.9003 N.am    1  UNL1       -0.2553
      4 C           6.7402   -2.8073   19.7288 C.ar    1  UNL1        0.0884
      5 C           7.8482   -2.3653   18.8195 C.ar    1  UNL1        0.0076
      6 C           9.2460   -2.8603   19.0450 C.ar    1  UNL1        0.0003
      7 C           9.5359   -3.7973   20.1799 C.ar    1  UNL1        0.0031
      8 C           8.4279   -4.2393   21.0893 C.ar    1  UNL1        0.0376
      9 C           7.0300   -3.7443   20.8637 C.ar    1  UNL1        0.1496
     10 O           5.9220   -4.1863   21.7731 O.3     1  UNL1       -0.4533
     11 C           5.6144   -3.4042   23.0156 C.ar    1  UNL1        0.1453
     12 C           4.3556   -2.5927   23.0986 C.ar    1  UNL1        0.0375
     13 C           4.0480   -1.8106   24.3411 C.ar    1  UNL1        0.0031
     14 C           4.9992   -1.8401   25.5005 C.ar    1  UNL1        0.0002
     15 C           6.2580   -2.6516   25.4175 C.ar    1  UNL1        0.0031
     16 C           6.5656   -3.4337   24.1750 C.ar    1  UNL1        0.0375
     17 C           3.5703   -0.4200   19.6747 C.ar    1  UNL1        0.0541
     18 C           2.4479   -0.9266   20.5312 C.ar    1  UNL1        0.0149
     19 C           1.0500   -0.4317   20.3057 C.ar    1  UNL1        0.0013
     20 C           0.7745    0.5700   19.2237 C.ar    1  UNL1        0.0001
     21 C           1.8969    1.0767   18.3672 C.ar    1  UNL1        0.0013
     22 C           3.2948    0.5817   18.5928 C.ar    1  UNL1        0.0149
     23 C           5.9920   -0.0127   20.5229 C.3     1  UNL1        0.0971
     24 C           6.3445    0.0480   21.9796 C.3     1  UNL1        0.0387
     25 C           7.4134    1.0855   22.1552 C.3     1  UNL1        0.0704
     26 N           7.7217    1.6661   20.8069 N.3     1  UNL1       -0.2960
     27 C           6.8432    0.9874   19.7981 C.3     1  UNL1        0.0890
     28 H           8.7021    1.5047   20.5764 H       1  UNL1        0.1233
@<TRIPOS>BOND
     1     1     2    2
     2     2     4    1
     3     4     5   ar
     4     5     6   ar
     5     6     7   ar
     6     7     8   ar
     7     8     9   ar
     8     9    10    1
     9    10    11    1
    10    11    12   ar
    11    12    13   ar
    12    13    14   ar
    13    14    15   ar
    14    15    16   ar
    15     2     3   am
    16     3    17    1
    17    17    18   ar
    18    18    19   ar
    19    19    20   ar
    20    20    21   ar
    21    21    22   ar
    22    23     3    1
    23    23    24    1
    24    24    25    1
    25    25    26    1
    26    26    27    1
    27     9     4   ar
    28    16    11   ar
    29    22    17   ar
    30    27    23    1
    31    26    28    1
