@<TRIPOS>MOLECULE
*****
 29 31 0 0 0
SMALL
GASTEIGER

@<TRIPOS>ATOM
      1 N         -11.3413  -18.4594   20.5871 N.3     1  UNL1       -0.2971
      2 H         -11.2706  -17.9827   19.6882 H       1  UNL1        0.1233
      3 C         -11.3966  -18.4508   22.7077 C.3     1  UNL1        0.0162
      4 C         -11.2142  -17.4058   21.6472 C.3     1  UNL1        0.0476
      5 C         -11.0318  -16.3608   20.5868 C.3     1  UNL1        0.0162
      6 C         -11.0871  -16.3522   22.7073 C.3     1  UNL1        0.0602
      7 C          -9.7754  -16.1441   23.4045 C.2     1  UNL1        0.0599
      8 C          -9.5677  -16.0682   24.8881 C.2     1  UNL1        0.0159
      9 C          -8.1050  -15.8526   25.1410 C.2     1  UNL1        0.0150
     10 C          -7.3172  -15.7010   26.4084 C.2     1  UNL1        0.0009
     11 C          -5.8330  -15.4921   26.3485 C.2     1  UNL1       -0.0041
     12 C          -5.1367  -15.4347   25.0211 C.2     1  UNL1       -0.0198
     13 C          -5.9245  -15.5863   23.7537 C.3     1  UNL1        0.0717
     14 C          -7.4086  -15.7952   23.8136 C.2     1  UNL1        0.0630
     15 N          -8.4410  -15.9754   22.7405 N.2     1  UNL1       -0.2536
     16 C         -10.3728  -19.6041   20.5475 C.3     1  UNL1        0.1020
     17 C          -8.9020  -19.3382   20.4204 C.3     1  UNL1        0.1697
     18 O          -8.2778  -19.2092   19.0625 O.3     1  UNL1       -0.3793
     19 H          -8.9589  -19.3233   18.3814 H       1  UNL1        0.2106
     20 C          -8.0555  -19.2012   21.6511 C.3     1  UNL1        0.2358
     21 O          -6.9361  -20.1673   21.9027 O.3     1  UNL1       -0.4728
     22 C          -5.5369  -19.8183   21.4895 C.ar    1  UNL1        0.1387
     23 C          -5.0404  -20.1993   20.1264 C.ar    1  UNL1        0.0376
     24 C          -3.6413  -19.8503   19.7132 C.ar    1  UNL1        0.0134
     25 C          -2.7388  -19.1203   20.6632 C.ar    1  UNL1        0.0686
     26 C          -3.2353  -18.7393   22.0264 C.ar    1  UNL1        0.0134
     27 C          -4.6344  -19.0883   22.4395 C.ar    1  UNL1        0.0376
     28 C          -1.3396  -18.7713   20.2500 C.1     1  UNL1        0.1004
     29 N           0.0595  -18.4223   19.8369 N.1     1  UNL1       -0.1908
@<TRIPOS>BOND
     1     3     4    1
     2     4     5    1
     3     4     6    1
     4     6     7    1
     5     7     8    2
     6     8     9    1
     7     9    10    2
     8    10    11    1
     9    11    12    2
    10    12    13    1
    11    13    14    1
    12    14    15    2
    13     4     1    1
    14     1    16    1
    15    16    17    1
    16    17    18    1
    17    17    20    1
    18    20    21    1
    19    21    22    1
    20    22    23   ar
    21    23    24   ar
    22    24    25   ar
    23    25    28    1
    24    28    29    3
    25    25    26   ar
    26    26    27   ar
    27    15     7    1
    28    27    22   ar
    29    14     9    1
    30     1     2    1
    31    18    19    1
@<TRIPOS>MOLECULE
*****
 29 31 0 0 0
SMALL
GASTEIGER

@<TRIPOS>ATOM
      1 N          -9.0991  -17.9967   20.6213 N.3     1  UNL1       -0.2971
      2 H          -8.8359  -17.3568   19.8719 H       1  UNL1        0.1233
      3 C          -8.3415  -19.6736   19.5657 C.3     1  UNL1        0.0162
      4 C          -7.9466  -18.9378   20.8117 C.3     1  UNL1        0.0476
      5 C          -7.5517  -18.2021   22.0578 C.3     1  UNL1        0.0162
      6 C          -6.7942  -19.8789   21.0022 C.3     1  UNL1        0.0602
      7 C          -5.3925  -19.4095   20.7472 C.2     1  UNL1        0.0599
      8 C          -4.2466  -19.4897   21.7117 C.2     1  UNL1        0.0159
      9 C          -3.0365  -18.9073   21.0435 C.2     1  UNL1        0.0150
     10 C          -1.6237  -18.7209   21.5115 C.2     1  UNL1        0.0009
     11 C          -0.6089  -18.0943   20.6018 C.2     1  UNL1       -0.0041
     12 C          -1.0069  -17.6541   19.2242 C.2     1  UNL1       -0.0198
     13 C          -2.4198  -17.8405   18.7563 C.3     1  UNL1        0.0717
     14 C          -3.4346  -18.4671   19.6659 C.2     1  UNL1        0.0630
     15 N          -4.8907  -18.7775   19.4828 N.2     1  UNL1       -0.2536
     16 C         -10.4564  -18.5335   20.2755 C.3     1  UNL1        0.1020
     17 C         -11.6753  -17.6862   20.4915 C.3     1  UNL1        0.1697
     18 O         -12.1212  -16.7285   19.4266 O.3     1  UNL1       -0.3793
     19 H         -11.5162  -16.7814   18.6703 H       1  UNL1        0.2106
     20 C         -12.4482  -17.7968   21.7722 C.3     1  UNL1        0.2358
     21 O         -11.8666  -18.5411   22.9373 O.3     1  UNL1       -0.4728
     22 C         -10.8449  -17.8806   23.8149 C.ar    1  UNL1        0.1387
     23 C         -10.2861  -18.6138   24.9981 C.ar    1  UNL1        0.0376
     24 C          -9.2645  -17.9534   25.8756 C.ar    1  UNL1        0.0134
     25 C          -8.8016  -16.5598   25.5699 C.ar    1  UNL1        0.0686
     26 C          -9.3604  -15.8266   24.3866 C.ar    1  UNL1        0.0134
     27 C         -10.3821  -16.4870   23.5091 C.ar    1  UNL1        0.0376
     28 C          -7.7800  -15.8993   26.4474 C.1     1  UNL1        0.1004
     29 N          -6.7583  -15.2389   27.3249 N.1     1  UNL1       -0.1908
@<TRIPOS>BOND
     1     3     4    1
     2     4     5    1
     3     4     6    1
     4     6     7    1
     5     7     8    2
     6     8     9    1
     7     9    10    2
     8    10    11    1
     9    11    12    2
    10    12    13    1
    11    13    14    1
    12    14    15    2
    13     4     1    1
    14     1    16    1
    15    16    17    1
    16    17    18    1
    17    17    20    1
    18    20    21    1
    19    21    22    1
    20    22    23   ar
    21    23    24   ar
    22    24    25   ar
    23    25    28    1
    24    28    29    3
    25    25    26   ar
    26    26    27   ar
    27    15     7    1
    28    27    22   ar
    29    14     9    1
    30     1     2    1
    31    18    19    1
@<TRIPOS>MOLECULE
*****
 29 31 0 0 0
SMALL
GASTEIGER

@<TRIPOS>ATOM
      1 N          -8.9160  -18.8704   20.5484 N.3     1  UNL1       -0.2971
      2 H          -8.9035  -18.5325   19.5861 H       1  UNL1        0.1233
      3 C          -7.7222  -19.2775   22.2540 C.3     1  UNL1        0.0162
      4 C          -7.6015  -19.5535   20.7846 C.3     1  UNL1        0.0476
      5 C          -7.4809  -19.8295   19.3152 C.3     1  UNL1        0.0162
      6 C          -6.2872  -20.2365   21.0209 C.3     1  UNL1        0.0602
      7 C          -5.0069  -19.4666   20.8863 C.2     1  UNL1        0.0599
      8 C          -3.9645  -19.6675   19.8266 C.2     1  UNL1        0.0159
      9 C          -2.8576  -18.6856   20.0731 C.2     1  UNL1        0.0150
     10 C          -1.5697  -18.4227   19.3506 C.2     1  UNL1        0.0009
     11 C          -0.6402  -17.3521   19.8401 C.2     1  UNL1       -0.0041
     12 C          -0.9985  -16.5443   21.0522 C.2     1  UNL1       -0.0198
     13 C          -2.2864  -16.8073   21.7748 C.3     1  UNL1        0.0717
     14 C          -3.2159  -17.8779   21.2852 C.2     1  UNL1        0.0630
     15 N          -4.5443  -18.3606   21.7878 N.2     1  UNL1       -0.2536
     16 C         -10.1978  -19.6291   20.7244 C.3     1  UNL1        0.1020
     17 C         -11.0701  -19.3621   21.9152 C.3     1  UNL1        0.1697
     18 O         -11.1185  -20.3472   23.0454 O.3     1  UNL1       -0.3793
     19 H         -10.5319  -21.0942   22.8485 H       1  UNL1        0.2106
     20 C         -11.8938  -18.1100   21.9758 C.3     1  UNL1        0.2358
     21 O         -11.2454  -16.7746   21.7615 O.3     1  UNL1       -0.4728
     22 C         -10.0428  -16.3864   22.5697 C.ar    1  UNL1        0.1387
     23 C         -10.0053  -16.6702   24.0421 C.ar    1  UNL1        0.0376
     24 C          -8.8028  -16.2820   24.8504 C.ar    1  UNL1        0.0134
     25 C          -7.6379  -15.6100   24.1862 C.ar    1  UNL1        0.0686
     26 C          -7.6754  -15.3261   22.7138 C.ar    1  UNL1        0.0134
     27 C          -8.8779  -15.7143   21.9055 C.ar    1  UNL1        0.0376
     28 C          -6.4353  -15.2217   24.9945 C.1     1  UNL1        0.1004
     29 N          -5.2328  -14.8335   25.8026 N.1     1  UNL1       -0.1908
@<TRIPOS>BOND
     1     3     4    1
     2     4     5    1
     3     4     6    1
     4     6     7    1
     5     7     8    2
     6     8     9    1
     7     9    10    2
     8    10    11    1
     9    11    12    2
    10    12    13    1
    11    13    14    1
    12    14    15    2
    13     4     1    1
    14     1    16    1
    15    16    17    1
    16    17    18    1
    17    17    20    1
    18    20    21    1
    19    21    22    1
    20    22    23   ar
    21    23    24   ar
    22    24    25   ar
    23    25    28    1
    24    28    29    3
    25    25    26   ar
    26    26    27   ar
    27    15     7    1
    28    27    22   ar
    29    14     9    1
    30     1     2    1
    31    18    19    1
@<TRIPOS>MOLECULE
*****
 29 31 0 0 0
SMALL
GASTEIGER

@<TRIPOS>ATOM
      1 N          -6.0747  -14.8328   25.3342 N.3     1  UNL1       -0.2971
      2 H          -5.9940  -13.8824   25.6957 H       1  UNL1        0.1233
      3 C          -7.5033  -15.4230   26.7872 C.3     1  UNL1        0.0162
      4 C          -7.5375  -15.1642   25.3101 C.3     1  UNL1        0.0476
      5 C          -7.5718  -14.9054   23.8330 C.3     1  UNL1        0.0162
      6 C          -9.0002  -15.4956   25.2860 C.3     1  UNL1        0.0602
      7 C          -9.5213  -16.5202   24.3223 C.2     1  UNL1        0.0599
      8 C          -9.5772  -18.0010   24.5547 C.2     1  UNL1        0.0159
      9 C         -10.1685  -18.6400   23.3331 C.2     1  UNL1        0.0150
     10 C         -10.4650  -20.0703   22.9923 C.2     1  UNL1        0.0009
     11 C         -11.0710  -20.4146   21.6641 C.2     1  UNL1       -0.0041
     12 C         -11.3805  -19.3287   20.6768 C.2     1  UNL1       -0.0198
     13 C         -11.0840  -17.8984   21.0176 C.3     1  UNL1        0.0717
     14 C         -10.4780  -17.5540   22.3458 C.2     1  UNL1        0.0630
     15 N         -10.0780  -16.2439   22.9571 N.2     1  UNL1       -0.2536
     16 C          -5.1267  -15.6805   26.1296 C.3     1  UNL1        0.1020
     17 C          -4.3915  -16.8075   25.4666 C.3     1  UNL1        0.1697
     18 O          -3.7114  -17.8526   26.3004 O.3     1  UNL1       -0.3793
     19 H          -3.8431  -17.6524   27.2404 H       1  UNL1        0.2106
     20 C          -4.3363  -16.8892   23.9699 C.3     1  UNL1        0.2358
     21 O          -4.1192  -18.2129   23.2986 O.3     1  UNL1       -0.4728
     22 C          -5.1019  -18.7067   22.2785 C.ar    1  UNL1        0.1387
     23 C          -4.6852  -19.7404   21.2746 C.ar    1  UNL1        0.0376
     24 C          -5.6678  -20.2341   20.2545 C.ar    1  UNL1        0.0134
     25 C          -7.0671  -19.6942   20.2383 C.ar    1  UNL1        0.0686
     26 C          -7.4838  -18.6605   21.2422 C.ar    1  UNL1        0.0134
     27 C          -6.5012  -18.1667   22.2623 C.ar    1  UNL1        0.0376
     28 C          -8.0498  -20.1879   19.2181 C.1     1  UNL1        0.1004
     29 N          -9.0325  -20.6816   18.1980 N.1     1  UNL1       -0.1908
@<TRIPOS>BOND
     1     3     4    1
     2     4     5    1
     3     4     6    1
     4     6     7    1
     5     7     8    2
     6     8     9    1
     7     9    10    2
     8    10    11    1
     9    11    12    2
    10    12    13    1
    11    13    14    1
    12    14    15    2
    13     4     1    1
    14     1    16    1
    15    16    17    1
    16    17    18    1
    17    17    20    1
    18    20    21    1
    19    21    22    1
    20    22    23   ar
    21    23    24   ar
    22    24    25   ar
    23    25    28    1
    24    28    29    3
    25    25    26   ar
    26    26    27   ar
    27    15     7    1
    28    27    22   ar
    29    14     9    1
    30     1     2    1
    31    18    19    1
@<TRIPOS>MOLECULE
*****
 29 31 0 0 0
SMALL
GASTEIGER

@<TRIPOS>ATOM
      1 N          -6.6918  -14.5690   24.7246 N.3     1  UNL1       -0.2971
      2 H          -6.4315  -13.8879   24.0114 H       1  UNL1        0.1233
      3 C          -6.1227  -16.0796   23.3483 C.3     1  UNL1        0.0162
      4 C          -5.6443  -15.6425   24.7010 C.3     1  UNL1        0.0476
      5 C          -5.1658  -15.2054   26.0537 C.3     1  UNL1        0.0162
      6 C          -4.5968  -16.7158   24.6773 C.3     1  UNL1        0.0602
      7 C          -4.0866  -17.2372   23.3666 C.2     1  UNL1        0.0599
      8 C          -4.4672  -18.5398   22.7276 C.2     1  UNL1        0.0159
      9 C          -3.7221  -18.6552   21.4309 C.2     1  UNL1        0.0150
     10 C          -3.7009  -19.7224   20.3771 C.2     1  UNL1        0.0009
     11 C          -2.8385  -19.5582   19.1608 C.2     1  UNL1       -0.0041
     12 C          -1.9975  -18.3269   18.9983 C.2     1  UNL1       -0.0198
     13 C          -2.0187  -17.2597   20.0522 C.3     1  UNL1        0.0717
     14 C          -2.8811  -17.4239   21.2684 C.2     1  UNL1        0.0630
     15 N          -3.1064  -16.5475   22.4648 N.2     1  UNL1       -0.2536
     16 C          -8.1303  -14.9195   24.4842 C.3     1  UNL1        0.1020
     17 C          -8.7369  -16.1088   25.1681 C.3     1  UNL1        0.1697
     18 O          -8.4986  -16.3347   26.6317 O.3     1  UNL1       -0.3793
     19 H          -7.9364  -15.6256   26.9809 H       1  UNL1        0.2106
     20 C          -9.5818  -17.0722   24.3883 C.3     1  UNL1        0.2358
     21 O         -10.0542  -16.7110   23.0113 O.3     1  UNL1       -0.4728
     22 C          -9.8234  -17.6540   21.8677 C.ar    1  UNL1        0.1387
     23 C         -10.8899  -17.8516   20.8316 C.ar    1  UNL1        0.0376
     24 C         -10.6591  -18.7945   19.6881 C.ar    1  UNL1        0.0134
     25 C          -9.3619  -19.5398   19.5807 C.ar    1  UNL1        0.0686
     26 C          -8.2954  -19.3422   20.6168 C.ar    1  UNL1        0.0134
     27 C          -8.5261  -18.3993   21.7603 C.ar    1  UNL1        0.0376
     28 C          -9.1311  -20.4827   18.4372 C.1     1  UNL1        0.1004
     29 N          -8.9003  -21.4257   17.2937 N.1     1  UNL1       -0.1908
@<TRIPOS>BOND
     1     3     4    1
     2     4     5    1
     3     4     6    1
     4     6     7    1
     5     7     8    2
     6     8     9    1
     7     9    10    2
     8    10    11    1
     9    11    12    2
    10    12    13    1
    11    13    14    1
    12    14    15    2
    13     4     1    1
    14     1    16    1
    15    16    17    1
    16    17    18    1
    17    17    20    1
    18    20    21    1
    19    21    22    1
    20    22    23   ar
    21    23    24   ar
    22    24    25   ar
    23    25    28    1
    24    28    29    3
    25    25    26   ar
    26    26    27   ar
    27    15     7    1
    28    27    22   ar
    29    14     9    1
    30     1     2    1
    31    18    19    1
@<TRIPOS>MOLECULE
*****
 29 31 0 0 0
SMALL
GASTEIGER

@<TRIPOS>ATOM
      1 N          -6.1030  -14.8698   25.5285 N.3     1  UNL1       -0.2971
      2 H          -6.0375  -13.9517   25.9679 H       1  UNL1        0.1233
      3 C          -7.6628  -15.5451   26.7977 C.3     1  UNL1        0.0162
      4 C          -7.5637  -15.1617   25.3510 C.3     1  UNL1        0.0476
      5 C          -7.4645  -14.7782   23.9042 C.3     1  UNL1        0.0162
      6 C          -9.0242  -15.4535   25.1735 C.3     1  UNL1        0.0602
      7 C          -9.4674  -16.4871   24.1808 C.2     1  UNL1        0.0599
      8 C          -9.8365  -17.9072   24.4920 C.2     1  UNL1        0.0159
      9 C         -10.2164  -18.5798   23.2062 C.2     1  UNL1        0.0150
     10 C         -10.6673  -19.9772   22.8995 C.2     1  UNL1        0.0009
     11 C         -10.9839  -20.3700   21.4869 C.2     1  UNL1       -0.0041
     12 C         -10.8496  -19.3655   20.3810 C.2     1  UNL1       -0.0198
     13 C         -10.3986  -17.9682   20.6877 C.3     1  UNL1        0.0717
     14 C         -10.0821  -17.5753   22.1003 C.2     1  UNL1        0.0630
     15 N          -9.6191  -16.2820   22.7027 N.2     1  UNL1       -0.2536
     16 C          -5.2454  -15.7985   26.3359 C.3     1  UNL1        0.1020
     17 C          -4.4790  -16.8938   25.6553 C.3     1  UNL1        0.1697
     18 O          -3.6484  -17.8437   26.4664 O.3     1  UNL1       -0.3793
     19 H          -3.7165  -17.6117   27.4058 H       1  UNL1        0.2106
     20 C          -4.5432  -17.0392   24.1638 C.3     1  UNL1        0.2358
     21 O          -3.9861  -18.2663   23.5052 O.3     1  UNL1       -0.4728
     22 C          -3.4246  -18.1829   22.1167 C.ar    1  UNL1        0.1387
     23 C          -2.3562  -17.1792   21.7988 C.ar    1  UNL1        0.0376
     24 C          -1.7947  -17.0958   20.4104 C.ar    1  UNL1        0.0134
     25 C          -2.3016  -18.0162   19.3399 C.ar    1  UNL1        0.0686
     26 C          -3.3699  -19.0200   19.6579 C.ar    1  UNL1        0.0134
     27 C          -3.9314  -19.1033   21.0463 C.ar    1  UNL1        0.0376
     28 C          -1.7401  -17.9329   17.9514 C.1     1  UNL1        0.1004
     29 N          -1.1786  -17.8496   16.5630 N.1     1  UNL1       -0.1908
@<TRIPOS>BOND
     1     3     4    1
     2     4     5    1
     3     4     6    1
     4     6     7    1
     5     7     8    2
     6     8     9    1
     7     9    10    2
     8    10    11    1
     9    11    12    2
    10    12    13    1
    11    13    14    1
    12    14    15    2
    13     4     1    1
    14     1    16    1
    15    16    17    1
    16    17    18    1
    17    17    20    1
    18    20    21    1
    19    21    22    1
    20    22    23   ar
    21    23    24   ar
    22    24    25   ar
    23    25    28    1
    24    28    29    3
    25    25    26   ar
    26    26    27   ar
    27    15     7    1
    28    27    22   ar
    29    14     9    1
    30     1     2    1
    31    18    19    1
@<TRIPOS>MOLECULE
*****
 29 31 0 0 0
SMALL
GASTEIGER

@<TRIPOS>ATOM
      1 N         -11.1641   -7.7256   17.7747 N.3     1  UNL1       -0.2971
      2 H         -11.6334   -7.7017   18.6800 H       1  UNL1        0.1233
      3 C          -9.6711   -6.8761   19.0194 C.3     1  UNL1        0.0162
      4 C         -10.2936   -6.5059   17.7058 C.3     1  UNL1        0.0476
      5 C         -10.9162   -6.1357   16.3923 C.3     1  UNL1        0.0162
      6 C          -9.4232   -5.2862   17.6371 C.3     1  UNL1        0.0602
      7 C         -10.0457   -3.9225   17.5858 C.2     1  UNL1        0.0599
      8 C         -10.9542   -3.3284   18.6211 C.2     1  UNL1        0.0159
      9 C         -11.3390   -1.9521   18.1654 C.2     1  UNL1        0.0150
     10 C         -12.2134   -0.8994   18.7794 C.2     1  UNL1        0.0009
     11 C         -12.4172    0.4099   18.0766 C.2     1  UNL1       -0.0041
     12 C         -11.7466    0.6665   16.7596 C.2     1  UNL1       -0.0198
     13 C         -10.8722   -0.3862   16.1455 C.3     1  UNL1        0.0717
     14 C         -10.6684   -1.6955   16.8484 C.2     1  UNL1        0.0630
     15 N          -9.8691   -2.9133   16.4902 N.2     1  UNL1       -0.2536
     16 C         -12.2282   -7.9469   16.7410 C.3     1  UNL1        0.1020
     17 C         -13.6718   -7.9841   17.1467 C.3     1  UNL1        0.1697
     18 O         -14.7271   -8.3172   16.1341 O.3     1  UNL1       -0.3793
     19 H         -14.3097   -8.4801   15.2738 H       1  UNL1        0.2106
     20 C         -14.0601   -7.6880   18.5650 C.3     1  UNL1        0.2358
     21 O         -13.3273   -6.6323   19.3384 O.3     1  UNL1       -0.4728
     22 C         -13.9199   -5.2619   19.4839 C.ar    1  UNL1        0.1387
     23 C         -13.7536   -4.5054   20.7685 C.ar    1  UNL1        0.0376
     24 C         -14.3461   -3.1352   20.9140 C.ar    1  UNL1        0.0134
     25 C         -15.1050   -2.5214   19.7750 C.ar    1  UNL1        0.0686
     26 C         -15.2713   -3.2779   18.4905 C.ar    1  UNL1        0.0134
     27 C         -14.6788   -4.6482   18.3449 C.ar    1  UNL1        0.0376
     28 C         -15.6975   -1.1511   19.9205 C.1     1  UNL1        0.1004
     29 N         -16.2900    0.2192   20.0660 N.1     1  UNL1       -0.1908
@<TRIPOS>BOND
     1     3     4    1
     2     4     5    1
     3     4     6    1
     4     6     7    1
     5     7     8    2
     6     8     9    1
     7     9    10    2
     8    10    11    1
     9    11    12    2
    10    12    13    1
    11    13    14    1
    12    14    15    2
    13     4     1    1
    14     1    16    1
    15    16    17    1
    16    17    18    1
    17    17    20    1
    18    20    21    1
    19    21    22    1
    20    22    23   ar
    21    23    24   ar
    22    24    25   ar
    23    25    28    1
    24    28    29    3
    25    25    26   ar
    26    26    27   ar
    27    15     7    1
    28    27    22   ar
    29    14     9    1
    30     1     2    1
    31    18    19    1
@<TRIPOS>MOLECULE
*****
 29 31 0 0 0
SMALL
GASTEIGER

@<TRIPOS>ATOM
      1 N         -10.2181   -7.0290   17.4897 N.3     1  UNL1       -0.2971
      2 H         -10.0933   -7.6179   18.3131 H       1  UNL1        0.1233
      3 C          -9.5543   -6.0892   19.2718 C.3     1  UNL1        0.0162
      4 C         -10.0657   -5.6083   17.9463 C.3     1  UNL1        0.0476
      5 C         -10.5772   -5.1273   16.6208 C.3     1  UNL1        0.0162
      6 C          -9.9134   -4.1877   18.4029 C.3     1  UNL1        0.0602
      7 C         -11.1288   -3.3391   18.6323 C.2     1  UNL1        0.0599
      8 C         -12.3309   -3.7217   19.4439 C.2     1  UNL1        0.0159
      9 C         -13.3006   -2.5780   19.4036 C.2     1  UNL1        0.0150
     10 C         -14.6545   -2.3879   20.0205 C.2     1  UNL1        0.0009
     11 C         -15.4058   -1.1083   19.8009 C.2     1  UNL1       -0.0041
     12 C         -14.8030   -0.0188   18.9644 C.2     1  UNL1       -0.0198
     13 C         -13.4491   -0.2090   18.3475 C.3     1  UNL1        0.0717
     14 C         -12.6979   -1.4885   18.5671 C.2     1  UNL1        0.0630
     15 N         -11.3556   -1.9589   18.0904 N.2     1  UNL1       -0.2536
     16 C         -11.4898   -7.4721   16.8290 C.3     1  UNL1        0.1020
     17 C         -12.7265   -7.6867   17.6505 C.3     1  UNL1        0.1697
     18 O         -12.6243   -7.8078   19.1421 O.3     1  UNL1       -0.3793
     19 H         -11.6958   -7.7256   19.4104 H       1  UNL1        0.2106
     20 C         -14.0651   -7.7801   16.9803 C.3     1  UNL1        0.2358
     21 O         -14.7479   -6.5368   16.4924 O.3     1  UNL1       -0.4728
     22 C         -15.6592   -5.7734   17.4071 C.ar    1  UNL1        0.1387
     23 C         -15.8406   -6.2187   18.8280 C.ar    1  UNL1        0.0376
     24 C         -16.7519   -5.4554   19.7427 C.ar    1  UNL1        0.0134
     25 C         -17.4817   -4.2466   19.2366 C.ar    1  UNL1        0.0686
     26 C         -17.3003   -3.8012   17.8158 C.ar    1  UNL1        0.0134
     27 C         -16.3891   -4.5646   16.9011 C.ar    1  UNL1        0.0376
     28 C         -18.3930   -3.4831   20.1514 C.1     1  UNL1        0.1004
     29 N         -19.3043   -2.7197   21.0661 N.1     1  UNL1       -0.1908
@<TRIPOS>BOND
     1     3     4    1
     2     4     5    1
     3     4     6    1
     4     6     7    1
     5     7     8    2
     6     8     9    1
     7     9    10    2
     8    10    11    1
     9    11    12    2
    10    12    13    1
    11    13    14    1
    12    14    15    2
    13     4     1    1
    14     1    16    1
    15    16    17    1
    16    17    18    1
    17    17    20    1
    18    20    21    1
    19    21    22    1
    20    22    23   ar
    21    23    24   ar
    22    24    25   ar
    23    25    28    1
    24    28    29    3
    25    25    26   ar
    26    26    27   ar
    27    15     7    1
    28    27    22   ar
    29    14     9    1
    30     1     2    1
    31    18    19    1
@<TRIPOS>MOLECULE
*****
 29 31 0 0 0
SMALL
GASTEIGER

@<TRIPOS>ATOM
      1 N         -14.5423   -2.4175   18.4468 N.3     1  UNL1       -0.2971
      2 H         -15.5029   -2.3936   18.7888 H       1  UNL1        0.1233
      3 C         -14.1696   -4.1728   17.3155 C.3     1  UNL1        0.0162
      4 C         -14.0068   -3.7844   18.7551 C.3     1  UNL1        0.0476
      5 C         -13.8440   -3.3959   20.1948 C.3     1  UNL1        0.0162
      6 C         -13.4713   -5.1512   19.0634 C.3     1  UNL1        0.0602
      7 C         -14.3849   -6.3404   19.0271 C.2     1  UNL1        0.0599
      8 C         -15.7588   -6.4153   19.6244 C.2     1  UNL1        0.0159
      9 C         -16.3079   -7.7846   19.3535 C.2     1  UNL1        0.0150
     10 C         -17.6163   -8.4288   19.7045 C.2     1  UNL1        0.0009
     11 C         -17.8902   -9.8443   19.2906 C.2     1  UNL1       -0.0041
     12 C         -16.8557  -10.6156   18.5259 C.2     1  UNL1       -0.0198
     13 C         -15.5473   -9.9715   18.1749 C.3     1  UNL1        0.0717
     14 C         -15.2735   -8.5560   18.5888 C.2     1  UNL1        0.0630
     15 N         -14.0850   -7.6634   18.3870 N.2     1  UNL1       -0.2536
     16 C         -13.8566   -1.2019   18.9964 C.3     1  UNL1        0.1020
     17 C         -13.1758   -0.2405   18.0676 C.3     1  UNL1        0.1697
     18 O         -13.0659    1.2090   18.4374 O.3     1  UNL1       -0.3793
     19 H         -13.4828    1.3550   19.3010 H       1  UNL1        0.2106
     20 C         -12.6050   -0.7288   16.7693 C.3     1  UNL1        0.2358
     21 O         -11.1716   -1.1646   16.6970 O.3     1  UNL1       -0.4728
     22 C         -10.7963   -2.5714   17.0577 C.ar    1  UNL1        0.1387
     23 C         -10.4164   -2.9079   18.4692 C.ar    1  UNL1        0.0376
     24 C         -10.0411   -4.3146   18.8299 C.ar    1  UNL1        0.0134
     25 C         -10.0457   -5.3849   17.7791 C.ar    1  UNL1        0.0686
     26 C         -10.4257   -5.0485   16.3675 C.ar    1  UNL1        0.0134
     27 C         -10.8010   -3.6418   16.0068 C.ar    1  UNL1        0.0376
     28 C          -9.6704   -6.7918   18.1398 C.1     1  UNL1        0.1004
     29 N          -9.2951   -8.1985   18.5004 N.1     1  UNL1       -0.1908
@<TRIPOS>BOND
     1     3     4    1
     2     4     5    1
     3     4     6    1
     4     6     7    1
     5     7     8    2
     6     8     9    1
     7     9    10    2
     8    10    11    1
     9    11    12    2
    10    12    13    1
    11    13    14    1
    12    14    15    2
    13     4     1    1
    14     1    16    1
    15    16    17    1
    16    17    18    1
    17    17    20    1
    18    20    21    1
    19    21    22    1
    20    22    23   ar
    21    23    24   ar
    22    24    25   ar
    23    25    28    1
    24    28    29    3
    25    25    26   ar
    26    26    27   ar
    27    15     7    1
    28    27    22   ar
    29    14     9    1
    30     1     2    1
    31    18    19    1
