@<TRIPOS>MOLECULE
*****
 38 41 0 0 0
SMALL
GASTEIGER

@<TRIPOS>ATOM
      1 C           0.5672    1.7892   24.8051 C.3     1  UNL1        0.0401
      2 C           0.8287    1.1151   23.4909 C.3     1  UNL1        0.0765
      3 N           0.4415    2.0657   22.3971 N.3     1  UNL1       -0.2721
      4 C          -0.0592    3.3275   23.0353 C.3     1  UNL1        0.0729
      5 C           0.0185    3.1565   24.5236 C.3     1  UNL1        0.0304
      6 C           1.3004    0.0203   28.8774 C.ar    1  UNL1        0.1387
      7 C           2.4413    0.1963   27.9197 C.ar    1  UNL1        0.0366
      8 C           2.1969    0.7860   26.5622 C.ar    1  UNL1       -0.0011
      9 C           0.8116    1.1996   26.1625 C.ar    1  UNL1       -0.0209
     10 C          -0.3293    1.0235   27.1203 C.ar    1  UNL1       -0.0011
     11 C          -0.0849    0.4339   28.4777 C.ar    1  UNL1        0.0366
     12 C           2.9209   -0.5349   30.8308 C.3     1  UNL1        0.2525
     13 O           1.5448   -0.5694   30.2348 O.3     1  UNL1       -0.4714
     14 C           0.5381    1.8011   20.9238 C.3     1  UNL1        0.0768
     15 C           0.4533    0.3955   20.4072 C.3     1  UNL1        0.0438
     16 C           1.6128   -0.2029   19.6674 C.ar    1  UNL1       -0.0176
     17 C           2.1194    0.4480   18.4143 C.ar    1  UNL1       -0.0009
     18 C           3.2790   -0.1504   17.6745 C.ar    1  UNL1        0.0397
     19 C           3.9320   -1.3995   18.1876 C.ar    1  UNL1        0.1724
     20 C           3.4255   -2.0503   19.4406 C.ar    1  UNL1        0.1721
     21 C           2.2658   -1.4519   20.1805 C.ar    1  UNL1        0.0358
     22 O           5.0916   -1.9979   17.4478 O.3     1  UNL1       -0.4684
     23 C           6.4830   -1.8490   17.9878 C.3     1  UNL1        0.2526
     24 O           4.0785   -3.2994   19.9537 O.3     1  UNL1       -0.4684
     25 C           3.6205   -4.6409   19.4634 C.3     1  UNL1        0.2526
     26 C          -0.3822    4.1743   25.5500 C.3     1  UNL1        0.0868
     27 C          -1.8148    4.6045   25.6602 C.2     1  UNL1        0.2228
     28 O          -2.2042    6.0114   25.3150 O.2     1  UNL1       -0.2751
     29 N          -2.8583    3.6280   26.1158 N.am    1  UNL1       -0.3004
     30 H          -2.6028    2.7046   26.3424 H       1  UNL1        0.1497
     31 C          -4.2910    4.0582   26.2260 C.3     1  UNL1        0.1164
     32 C          -5.1512    4.1230   24.9988 C.ar    1  UNL1       -0.0017
     33 C          -6.5014    4.7733   25.0628 C.ar    1  UNL1       -0.0026
     34 C          -7.3617    4.8382   23.8357 C.ar    1  UNL1        0.0006
     35 C          -6.8717    4.2526   22.5446 C.ar    1  UNL1        0.0114
     36 C          -5.5215    3.6023   22.4806 C.ar    1  UNL1        0.0574
     37 CL         -5.0315    3.0167   21.1894 Cl      1  UNL1       -0.0823
     38 C          -4.6613    3.5375   23.7077 C.ar    1  UNL1        0.0088
@<TRIPOS>BOND
     1    12    13    1
     2    13     6    1
     3     6     7   ar
     4     7     8   ar
     5     8     9   ar
     6     1     9    1
     7     1     2    1
     8     2     3    1
     9     3    14    1
    10    14    15    1
    11    15    16    1
    12    16    17   ar
    13    17    18   ar
    14    18    19   ar
    15    19    22    1
    16    22    23    1
    17    19    20   ar
    18    20    24    1
    19    24    25    1
    20    20    21   ar
    21     3     4    1
    22     4     5    1
    23     5    26    1
    24    26    27    1
    25    27    28    2
    26    27    29   am
    27    29    31    1
    28    31    32    1
    29    32    33   ar
    30    33    34   ar
    31    34    35   ar
    32    35    36   ar
    33    36    37    1
    34    36    38   ar
    35     9    10   ar
    36    10    11   ar
    37    11     6   ar
    38     5     1    1
    39    38    32   ar
    40    21    16   ar
    41    29    30    1
@<TRIPOS>MOLECULE
*****
 38 41 0 0 0
SMALL
GASTEIGER

@<TRIPOS>ATOM
      1 C         -10.1943  -18.9946   21.1872 C.3     1  UNL1        0.0401
      2 C          -9.4822  -20.2934   20.9511 C.3     1  UNL1        0.0765
      3 N          -8.4448  -20.0675   19.8915 N.3     1  UNL1       -0.2721
      4 C          -8.5158  -18.6289   19.4727 C.3     1  UNL1        0.0729
      5 C          -9.5970  -17.9658   20.2734 C.3     1  UNL1        0.0304
      6 C         -13.5358  -18.3051   24.1214 C.ar    1  UNL1        0.1387
      7 C         -12.2427  -18.9073   24.5852 C.ar    1  UNL1        0.0366
      8 C         -11.1288  -19.1371   23.6072 C.ar    1  UNL1       -0.0011
      9 C         -11.3081  -18.7647   22.1652 C.ar    1  UNL1       -0.0209
     10 C         -12.6013  -18.1626   21.7014 C.ar    1  UNL1       -0.0011
     11 C         -13.7151  -17.9328   22.6794 C.ar    1  UNL1        0.0366
     12 C         -14.5028  -18.5258   26.5226 C.3     1  UNL1        0.2525
     13 O         -14.6496  -18.0753   25.0994 O.3     1  UNL1       -0.4714
     14 C          -7.5020  -21.0990   19.3465 C.3     1  UNL1        0.0768
     15 C          -6.3383  -21.5620   20.1718 C.3     1  UNL1        0.0438
     16 C          -5.3580  -20.5637   20.7127 C.ar    1  UNL1       -0.0176
     17 C          -5.6343  -19.8706   22.0141 C.ar    1  UNL1       -0.0009
     18 C          -4.6541  -18.8723   22.5549 C.ar    1  UNL1        0.0397
     19 C          -3.3976  -18.5671   21.7945 C.ar    1  UNL1        0.1724
     20 C          -3.1214  -19.2601   20.4932 C.ar    1  UNL1        0.1721
     21 C          -4.1017  -20.2585   19.9523 C.ar    1  UNL1        0.0358
     22 O          -2.4174  -17.5688   22.3354 O.3     1  UNL1       -0.4684
     23 C          -2.5119  -16.1283   21.9278 C.3     1  UNL1        0.2526
     24 O          -1.8650  -18.9549   19.7328 O.3     1  UNL1       -0.4684
     25 C          -1.8521  -17.8502   18.7182 C.3     1  UNL1        0.2526
     26 C         -10.0087  -16.5266   20.1773 C.3     1  UNL1        0.0868
     27 C          -9.2540  -15.4781   20.9394 C.2     1  UNL1        0.2228
     28 O          -9.1697  -14.0784   20.4065 O.2     1  UNL1       -0.2751
     29 N          -8.5835  -15.8291   22.2345 N.am    1  UNL1       -0.3004
     30 H          -8.6387  -16.7476   22.5843 H       1  UNL1        0.1497
     31 C          -7.8287  -14.7804   22.9966 C.3     1  UNL1        0.1164
     32 C          -7.2998  -15.0842   24.3670 C.ar    1  UNL1       -0.0017
     33 C          -5.8235  -15.0383   24.6283 C.ar    1  UNL1       -0.0026
     34 C          -5.2945  -15.3421   25.9987 C.ar    1  UNL1        0.0006
     35 C          -6.2419  -15.6917   27.1078 C.ar    1  UNL1        0.0114
     36 C          -7.7183  -15.7377   26.8465 C.ar    1  UNL1        0.0574
     37 CL         -8.6657  -16.0873   27.9556 Cl      1  UNL1       -0.0823
     38 C          -8.2472  -15.4339   25.4761 C.ar    1  UNL1        0.0088
@<TRIPOS>BOND
     1    12    13    1
     2    13     6    1
     3     6     7   ar
     4     7     8   ar
     5     8     9   ar
     6     1     9    1
     7     1     2    1
     8     2     3    1
     9     3    14    1
    10    14    15    1
    11    15    16    1
    12    16    17   ar
    13    17    18   ar
    14    18    19   ar
    15    19    22    1
    16    22    23    1
    17    19    20   ar
    18    20    24    1
    19    24    25    1
    20    20    21   ar
    21     3     4    1
    22     4     5    1
    23     5    26    1
    24    26    27    1
    25    27    28    2
    26    27    29   am
    27    29    31    1
    28    31    32    1
    29    32    33   ar
    30    33    34   ar
    31    34    35   ar
    32    35    36   ar
    33    36    37    1
    34    36    38   ar
    35     9    10   ar
    36    10    11   ar
    37    11     6   ar
    38     5     1    1
    39    38    32   ar
    40    21    16   ar
    41    29    30    1
@<TRIPOS>MOLECULE
*****
 38 41 0 0 0
SMALL
GASTEIGER

@<TRIPOS>ATOM
      1 C           6.7635   -3.1374   25.7939 C.3     1  UNL1        0.0401
      2 C           7.2099   -2.5473   24.4891 C.3     1  UNL1        0.0765
      3 N           7.6427   -3.6718   23.5957 N.3     1  UNL1       -0.2721
      4 C           7.4639   -4.9569   24.3483 C.3     1  UNL1        0.0729
      5 C           6.9205   -4.6266   25.7069 C.3     1  UNL1        0.0304
      6 C           5.2238   -0.8430   29.3457 C.ar    1  UNL1        0.1387
      7 C           6.6531   -1.2963   29.3079 C.ar    1  UNL1        0.0366
      8 C           7.1663   -2.0611   28.1240 C.ar    1  UNL1       -0.0011
      9 C           6.2503   -2.3726   26.9778 C.ar    1  UNL1       -0.0209
     10 C           4.8209   -1.9192   27.0156 C.ar    1  UNL1       -0.0011
     11 C           4.3077   -1.1545   28.1995 C.ar    1  UNL1        0.0366
     12 C           5.5271    1.0361   31.1140 C.3     1  UNL1        0.2525
     13 O           4.7106   -0.0782   30.5296 O.3     1  UNL1       -0.4714
     14 C           8.1630   -3.5351   22.1955 C.3     1  UNL1        0.0768
     15 C           7.4878   -4.2615   21.0702 C.3     1  UNL1        0.0438
     16 C           6.5656   -3.5222   20.1466 C.ar    1  UNL1       -0.0176
     17 C           5.0801   -3.6731   20.2910 C.ar    1  UNL1       -0.0009
     18 C           4.1580   -2.9338   19.3674 C.ar    1  UNL1        0.0397
     19 C           4.7212   -2.0437   18.2994 C.ar    1  UNL1        0.1724
     20 C           6.2066   -1.8928   18.1551 C.ar    1  UNL1        0.1721
     21 C           7.1288   -2.6322   19.0788 C.ar    1  UNL1        0.0358
     22 O           3.7991   -1.3043   17.3758 O.3     1  UNL1       -0.4684
     23 C           3.1106   -0.0566   17.8440 C.3     1  UNL1        0.2526
     24 O           6.7699   -1.0027   17.0872 O.3     1  UNL1       -0.4684
     25 C           6.8655    0.4764   17.3170 C.3     1  UNL1        0.2526
     26 C           6.5918   -5.6125   26.7885 C.3     1  UNL1        0.0868
     27 C           7.3323   -5.5702   28.0922 C.2     1  UNL1        0.2228
     28 O           8.8216   -5.3911   28.1034 O.2     1  UNL1       -0.2751
     29 N           6.5837   -5.7071   29.3849 N.am    1  UNL1       -0.3004
     30 H           5.6063   -5.8246   29.3776 H       1  UNL1        0.1497
     31 C           7.3243   -5.6648   30.6886 C.3     1  UNL1        0.1164
     32 C           7.5078   -4.3597   31.4050 C.ar    1  UNL1       -0.0017
     33 C           8.8595   -3.7108   31.4469 C.ar    1  UNL1       -0.0026
     34 C           9.0431   -2.4057   32.1633 C.ar    1  UNL1        0.0006
     35 C           7.8749   -1.7496   32.8377 C.ar    1  UNL1        0.0114
     36 C           6.5231   -2.3986   32.7957 C.ar    1  UNL1        0.0574
     37 CL          5.3549   -1.7425   33.4701 Cl      1  UNL1       -0.0823
     38 C           6.3396   -3.7036   32.0794 C.ar    1  UNL1        0.0088
@<TRIPOS>BOND
     1    12    13    1
     2    13     6    1
     3     6     7   ar
     4     7     8   ar
     5     8     9   ar
     6     1     9    1
     7     1     2    1
     8     2     3    1
     9     3    14    1
    10    14    15    1
    11    15    16    1
    12    16    17   ar
    13    17    18   ar
    14    18    19   ar
    15    19    22    1
    16    22    23    1
    17    19    20   ar
    18    20    24    1
    19    24    25    1
    20    20    21   ar
    21     3     4    1
    22     4     5    1
    23     5    26    1
    24    26    27    1
    25    27    28    2
    26    27    29   am
    27    29    31    1
    28    31    32    1
    29    32    33   ar
    30    33    34   ar
    31    34    35   ar
    32    35    36   ar
    33    36    37    1
    34    36    38   ar
    35     9    10   ar
    36    10    11   ar
    37    11     6   ar
    38     5     1    1
    39    38    32   ar
    40    21    16   ar
    41    29    30    1
@<TRIPOS>MOLECULE
*****
 38 41 0 0 0
SMALL
GASTEIGER

@<TRIPOS>ATOM
      1 C           2.0975    0.9277   23.2212 C.3     1  UNL1        0.0401
      2 C           1.4299    0.8301   24.5609 C.3     1  UNL1        0.0765
      3 N           0.2426    1.7466   24.5551 N.3     1  UNL1       -0.2721
      4 C           0.1763    2.4108   23.2118 C.3     1  UNL1        0.0729
      5 C           1.3227    1.9047   22.3874 C.3     1  UNL1        0.0304
      6 C           5.7784   -1.3161   21.9302 C.ar    1  UNL1        0.1387
      7 C           5.8191    0.1773   22.0650 C.ar    1  UNL1        0.0366
      8 C           4.5921    0.9252   22.4954 C.ar    1  UNL1       -0.0011
      9 C           3.3245    0.1798   22.7909 C.ar    1  UNL1       -0.0209
     10 C           3.2838   -1.3135   22.6560 C.ar    1  UNL1       -0.0011
     11 C           4.5107   -2.0615   22.2257 C.ar    1  UNL1        0.0366
     12 C           7.2714   -3.4397   22.0352 C.3     1  UNL1        0.2525
     13 O           7.0053   -2.0640   21.4999 O.3     1  UNL1       -0.4714
     14 C          -0.7111    1.9613   25.6928 C.3     1  UNL1        0.0768
     15 C          -1.2762    3.3267   25.9503 C.3     1  UNL1        0.0438
     16 C          -2.7060    3.6235   25.6077 C.ar    1  UNL1       -0.0176
     17 C          -3.5893    4.3115   26.6062 C.ar    1  UNL1       -0.0009
     18 C          -5.0191    4.6082   26.2635 C.ar    1  UNL1        0.0397
     19 C          -5.5658    4.2170   24.9226 C.ar    1  UNL1        0.1724
     20 C          -4.6826    3.5291   23.9242 C.ar    1  UNL1        0.1721
     21 C          -3.2527    3.2323   24.2668 C.ar    1  UNL1        0.0358
     22 O          -6.9957    4.5138   24.5799 O.3     1  UNL1       -0.4684
     23 C          -7.5767    5.8617   24.8888 C.3     1  UNL1        0.2526
     24 O          -5.2293    3.1380   22.5833 O.3     1  UNL1       -0.4684
     25 C          -4.3718    3.2614   21.3587 C.3     1  UNL1        0.2526
     26 C           1.6388    2.3053   20.9769 C.3     1  UNL1        0.0868
     27 C           1.7359    1.2611   19.9045 C.2     1  UNL1        0.2228
     28 O           0.5726    0.3535   19.6339 O.2     1  UNL1       -0.2751
     29 N           2.9961    1.1243   19.1026 N.am    1  UNL1       -0.3004
     30 H           3.7596    1.7200   19.2801 H       1  UNL1        0.1497
     31 C           3.0931    0.0801   18.0301 C.3     1  UNL1        0.1164
     32 C           3.9099   -1.1569   18.2595 C.ar    1  UNL1       -0.0017
     33 C           5.3758   -1.1574   17.9414 C.ar    1  UNL1       -0.0026
     34 C           6.1927   -2.3944   18.1708 C.ar    1  UNL1        0.0006
     35 C           5.5437   -3.6310   18.7182 C.ar    1  UNL1        0.0114
     36 C           4.0777   -3.6305   19.0363 C.ar    1  UNL1        0.0574
     37 CL          3.4286   -4.8670   19.5837 Cl      1  UNL1       -0.0823
     38 C           3.2609   -2.3935   18.8069 C.ar    1  UNL1        0.0088
@<TRIPOS>BOND
     1    12    13    1
     2    13     6    1
     3     6     7   ar
     4     7     8   ar
     5     8     9   ar
     6     1     9    1
     7     1     2    1
     8     2     3    1
     9     3    14    1
    10    14    15    1
    11    15    16    1
    12    16    17   ar
    13    17    18   ar
    14    18    19   ar
    15    19    22    1
    16    22    23    1
    17    19    20   ar
    18    20    24    1
    19    24    25    1
    20    20    21   ar
    21     3     4    1
    22     4     5    1
    23     5    26    1
    24    26    27    1
    25    27    28    2
    26    27    29   am
    27    29    31    1
    28    31    32    1
    29    32    33   ar
    30    33    34   ar
    31    34    35   ar
    32    35    36   ar
    33    36    37    1
    34    36    38   ar
    35     9    10   ar
    36    10    11   ar
    37    11     6   ar
    38     5     1    1
    39    38    32   ar
    40    21    16   ar
    41    29    30    1
@<TRIPOS>MOLECULE
*****
 38 41 0 0 0
SMALL
GASTEIGER

@<TRIPOS>ATOM
      1 C           1.7322    1.1775   19.4991 C.3     1  UNL1        0.0401
      2 C           0.2631    1.2153   19.7998 C.3     1  UNL1        0.0765
      3 N          -0.1177    2.6402   20.0729 N.3     1  UNL1       -0.2721
      4 C           1.1161    3.4831   19.9410 C.3     1  UNL1        0.0729
      5 C           2.2593    2.5791   19.5864 C.3     1  UNL1        0.0304
      6 C           4.1359   -2.4957   18.5091 C.ar    1  UNL1        0.1387
      7 C           4.1060   -1.3391   17.5544 C.ar    1  UNL1        0.0366
      8 C           3.3047   -0.1147   17.8844 C.ar    1  UNL1       -0.0011
      9 C           2.5334   -0.0469   19.1691 C.ar    1  UNL1       -0.0209
     10 C           2.5633   -1.2035   20.1238 C.ar    1  UNL1       -0.0011
     11 C           3.3646   -2.4278   19.7938 C.ar    1  UNL1        0.0366
     12 C           4.6284   -5.0231   18.8550 C.3     1  UNL1        0.2525
     13 O           4.9371   -3.7201   18.1791 O.3     1  UNL1       -0.4714
     14 C          -1.4911    3.1353   20.4174 C.3     1  UNL1        0.0768
     15 C          -1.8547    3.4036   21.8476 C.3     1  UNL1        0.0438
     16 C          -3.2897    3.6156   22.2296 C.ar    1  UNL1       -0.0176
     17 C          -4.3228    3.8447   21.1663 C.ar    1  UNL1       -0.0009
     18 C          -5.7578    4.0566   21.5483 C.ar    1  UNL1        0.0397
     19 C          -6.1597    4.0394   22.9933 C.ar    1  UNL1        0.1724
     20 C          -5.1266    3.8103   24.0565 C.ar    1  UNL1        0.1721
     21 C          -3.6916    3.5984   23.6746 C.ar    1  UNL1        0.0358
     22 O          -7.5947    4.2514   23.3753 O.3     1  UNL1       -0.4684
     23 C          -8.0751    5.6204   23.7560 C.3     1  UNL1        0.2526
     24 O          -5.5286    3.7931   25.5015 O.3     1  UNL1       -0.4684
     25 C          -5.4340    5.0457   26.3213 C.3     1  UNL1        0.2526
     26 C           3.6803    3.0024   19.3590 C.3     1  UNL1        0.0868
     27 C           4.8047    2.1996   19.9430 C.2     1  UNL1        0.2228
     28 O           6.0074    1.8749   19.1074 O.2     1  UNL1       -0.2751
     29 N           4.7265    1.7213   21.3626 N.am    1  UNL1       -0.3004
     30 H           3.9371    1.9343   21.9110 H       1  UNL1        0.1497
     31 C           5.8509    0.9184   21.9465 C.3     1  UNL1        0.1164
     32 C           5.6734   -0.5500   22.1961 C.ar    1  UNL1       -0.0017
     33 C           4.6175   -1.0264   23.1490 C.ar    1  UNL1       -0.0026
     34 C           4.4398   -2.4948   23.3987 C.ar    1  UNL1        0.0006
     35 C           5.3182   -3.4868   22.6955 C.ar    1  UNL1        0.0114
     36 C           6.3742   -3.0103   21.7425 C.ar    1  UNL1        0.0574
     37 CL          7.2525   -4.0022   21.0393 Cl      1  UNL1       -0.0823
     38 C           6.5517   -1.5419   21.4929 C.ar    1  UNL1        0.0088
@<TRIPOS>BOND
     1    12    13    1
     2    13     6    1
     3     6     7   ar
     4     7     8   ar
     5     8     9   ar
     6     1     9    1
     7     1     2    1
     8     2     3    1
     9     3    14    1
    10    14    15    1
    11    15    16    1
    12    16    17   ar
    13    17    18   ar
    14    18    19   ar
    15    19    22    1
    16    22    23    1
    17    19    20   ar
    18    20    24    1
    19    24    25    1
    20    20    21   ar
    21     3     4    1
    22     4     5    1
    23     5    26    1
    24    26    27    1
    25    27    28    2
    26    27    29   am
    27    29    31    1
    28    31    32    1
    29    32    33   ar
    30    33    34   ar
    31    34    35   ar
    32    35    36   ar
    33    36    37    1
    34    36    38   ar
    35     9    10   ar
    36    10    11   ar
    37    11     6   ar
    38     5     1    1
    39    38    32   ar
    40    21    16   ar
    41    29    30    1
@<TRIPOS>MOLECULE
*****
 38 41 0 0 0
SMALL
GASTEIGER

@<TRIPOS>ATOM
      1 C           0.5549    2.0862   20.9487 C.3     1  UNL1        0.0401
      2 C          -0.8467    2.4973   21.2905 C.3     1  UNL1        0.0765
      3 N          -1.3626    3.3572   20.1750 N.3     1  UNL1       -0.2721
      4 C          -0.2800    3.4776   19.1438 C.3     1  UNL1        0.0729
      5 C           0.9051    2.6921   19.6220 C.3     1  UNL1        0.0304
      6 C           3.2377   -0.5088   23.4624 C.ar    1  UNL1        0.1387
      7 C           2.7995    0.8323   23.9718 C.ar    1  UNL1        0.0366
      8 C           1.9053    1.6973   23.1339 C.ar    1  UNL1       -0.0011
      9 C           1.4491    1.2212   21.7866 C.ar    1  UNL1       -0.0209
     10 C           1.8872   -0.1198   21.2772 C.ar    1  UNL1       -0.0011
     11 C           2.7815   -0.9848   22.1151 C.ar    1  UNL1        0.0366
     12 C           4.7777   -2.5876   23.7006 C.3     1  UNL1        0.2525
     13 O           4.1319   -1.3738   24.3003 O.3     1  UNL1       -0.4714
     14 C          -2.7225    3.9862   20.1033 C.3     1  UNL1        0.0768
     15 C          -3.9339    3.2023   20.5128 C.3     1  UNL1        0.0438
     16 C          -4.8287    3.7182   21.6005 C.ar    1  UNL1       -0.0176
     17 C          -5.9647    4.6382   21.2639 C.ar    1  UNL1       -0.0009
     18 C          -6.8595    5.1541   22.3517 C.ar    1  UNL1        0.0397
     19 C          -6.6182    4.7501   23.7760 C.ar    1  UNL1        0.1724
     20 C          -5.4823    3.8302   24.1125 C.ar    1  UNL1        0.1721
     21 C          -4.5875    3.3142   23.0247 C.ar    1  UNL1        0.0358
     22 O          -7.5130    5.2661   24.8637 O.3     1  UNL1       -0.4684
     23 C          -8.9191    5.6800   24.5450 C.3     1  UNL1        0.2526
     24 O          -5.2411    3.4262   25.5368 O.3     1  UNL1       -0.4684
     25 C          -4.4343    4.3104   26.4408 C.3     1  UNL1        0.2526
     26 C           2.2111    2.5393   18.9001 C.3     1  UNL1        0.0868
     27 C           2.5803    1.2203   18.2888 C.2     1  UNL1        0.2228
     28 O           1.5060    0.2610   17.8696 O.2     1  UNL1       -0.2751
     29 N           4.0238    0.8606   18.0965 N.am    1  UNL1       -0.3004
     30 H           4.7289    1.4902   18.3716 H       1  UNL1        0.1497
     31 C           4.3929   -0.4585   17.4851 C.3     1  UNL1        0.1164
     32 C           4.7479   -1.6200   18.3653 C.ar    1  UNL1       -0.0017
     33 C           3.6824   -2.5784   18.8083 C.ar    1  UNL1       -0.0026
     34 C           4.0372   -3.7400   19.6886 C.ar    1  UNL1        0.0006
     35 C           5.4576   -3.9433   20.1257 C.ar    1  UNL1        0.0114
     36 C           6.5232   -2.9849   19.6826 C.ar    1  UNL1        0.0574
     37 CL          7.9436   -3.1881   20.1198 Cl      1  UNL1       -0.0823
     38 C           6.1683   -1.8233   18.8024 C.ar    1  UNL1        0.0088
@<TRIPOS>BOND
     1    12    13    1
     2    13     6    1
     3     6     7   ar
     4     7     8   ar
     5     8     9   ar
     6     1     9    1
     7     1     2    1
     8     2     3    1
     9     3    14    1
    10    14    15    1
    11    15    16    1
    12    16    17   ar
    13    17    18   ar
    14    18    19   ar
    15    19    22    1
    16    22    23    1
    17    19    20   ar
    18    20    24    1
    19    24    25    1
    20    20    21   ar
    21     3     4    1
    22     4     5    1
    23     5    26    1
    24    26    27    1
    25    27    28    2
    26    27    29   am
    27    29    31    1
    28    31    32    1
    29    32    33   ar
    30    33    34   ar
    31    34    35   ar
    32    35    36   ar
    33    36    37    1
    34    36    38   ar
    35     9    10   ar
    36    10    11   ar
    37    11     6   ar
    38     5     1    1
    39    38    32   ar
    40    21    16   ar
    41    29    30    1
@<TRIPOS>MOLECULE
*****
 38 41 0 0 0
SMALL
GASTEIGER

@<TRIPOS>ATOM
      1 C          -3.8988  -18.6625   20.4176 C.3     1  UNL1        0.0401
      2 C          -4.8763  -18.7925   19.2873 C.3     1  UNL1        0.0765
      3 N          -6.1819  -19.2641   19.8556 N.3     1  UNL1       -0.2721
      4 C          -6.0113  -19.4256   21.3370 C.3     1  UNL1        0.0729
      5 C          -4.6003  -19.0538   21.6844 C.3     1  UNL1        0.0304
      6 C           0.3860  -17.3323   20.0692 C.ar    1  UNL1        0.1387
      7 C          -0.6542  -16.3835   20.5866 C.ar    1  UNL1        0.0366
      8 C          -2.0824  -16.8269   20.7027 C.ar    1  UNL1       -0.0011
      9 C          -2.4705  -18.2191   20.3014 C.ar    1  UNL1       -0.0209
     10 C          -1.4303  -19.1679   19.7840 C.ar    1  UNL1       -0.0011
     11 C          -0.0021  -18.7245   19.6679 C.ar    1  UNL1        0.0366
     12 C           2.8413  -17.4081   20.9150 C.3     1  UNL1        0.2525
     13 O           1.8142  -16.8889   19.9530 O.3     1  UNL1       -0.4714
     14 C          -7.4377  -19.5279   19.0787 C.3     1  UNL1        0.0768
     15 C          -8.5872  -20.2381   19.7299 C.3     1  UNL1        0.0438
     16 C          -9.5914  -19.4629   20.5303 C.ar    1  UNL1       -0.0176
     17 C          -9.6574  -19.6343   22.0191 C.ar    1  UNL1       -0.0009
     18 C         -10.6616  -18.8591   22.8194 C.ar    1  UNL1        0.0397
     19 C         -11.5997  -17.9125   22.1311 C.ar    1  UNL1        0.1724
     20 C         -11.5337  -17.7411   20.6424 C.ar    1  UNL1        0.1721
     21 C         -10.5295  -18.5163   19.8420 C.ar    1  UNL1        0.0358
     22 O         -12.6039  -17.1372   22.9315 O.3     1  UNL1       -0.4684
     23 C         -13.6723  -17.8602   23.6969 C.3     1  UNL1        0.2526
     24 O         -12.4719  -16.7944   19.9541 O.3     1  UNL1       -0.4684
     25 C         -11.9277  -15.6848   19.1041 C.3     1  UNL1        0.2526
     26 C          -3.9967  -19.0704   23.0575 C.3     1  UNL1        0.0868
     27 C          -4.1608  -17.8862   23.9633 C.2     1  UNL1        0.2228
     28 O          -3.7737  -17.9883   25.4089 O.2     1  UNL1       -0.2751
     29 N          -4.7120  -16.5997   23.4236 N.am    1  UNL1       -0.3004
     30 H          -4.9661  -16.5327   22.4748 H       1  UNL1        0.1497
     31 C          -4.8761  -15.4155   24.3295 C.3     1  UNL1        0.1164
     32 C          -6.0830  -15.3093   25.2139 C.ar    1  UNL1       -0.0017
     33 C          -5.9159  -15.0744   26.6859 C.ar    1  UNL1       -0.0026
     34 C          -7.1228  -14.9682   27.5703 C.ar    1  UNL1        0.0006
     35 C          -8.4968  -15.0967   26.9827 C.ar    1  UNL1        0.0114
     36 C          -8.6640  -15.3316   25.5105 C.ar    1  UNL1        0.0574
     37 CL        -10.0381  -15.4601   24.9229 Cl      1  UNL1       -0.0823
     38 C          -7.4571  -15.4378   24.6262 C.ar    1  UNL1        0.0088
@<TRIPOS>BOND
     1    12    13    1
     2    13     6    1
     3     6     7   ar
     4     7     8   ar
     5     8     9   ar
     6     1     9    1
     7     1     2    1
     8     2     3    1
     9     3    14    1
    10    14    15    1
    11    15    16    1
    12    16    17   ar
    13    17    18   ar
    14    18    19   ar
    15    19    22    1
    16    22    23    1
    17    19    20   ar
    18    20    24    1
    19    24    25    1
    20    20    21   ar
    21     3     4    1
    22     4     5    1
    23     5    26    1
    24    26    27    1
    25    27    28    2
    26    27    29   am
    27    29    31    1
    28    31    32    1
    29    32    33   ar
    30    33    34   ar
    31    34    35   ar
    32    35    36   ar
    33    36    37    1
    34    36    38   ar
    35     9    10   ar
    36    10    11   ar
    37    11     6   ar
    38     5     1    1
    39    38    32   ar
    40    21    16   ar
    41    29    30    1
@<TRIPOS>MOLECULE
*****
 38 41 0 0 0
SMALL
GASTEIGER

@<TRIPOS>ATOM
      1 C          -2.2373    3.2808   25.0411 C.3     1  UNL1        0.0401
      2 C          -1.8288    2.6421   26.3353 C.3     1  UNL1        0.0765
      3 N          -0.3752    2.2851   26.2377 N.3     1  UNL1       -0.2721
      4 C           0.1148    2.7032   24.8830 C.3     1  UNL1        0.0729
      5 C          -1.0361    3.3186   24.1435 C.3     1  UNL1        0.0304
      6 C          -6.3450    4.8145   24.0287 C.ar    1  UNL1        0.1387
      7 C          -5.7533    3.6809   23.2446 C.ar    1  UNL1        0.0366
      8 C          -4.3841    3.1697   23.5820 C.ar    1  UNL1       -0.0011
      9 C          -3.6065    3.7921   24.7036 C.ar    1  UNL1       -0.0209
     10 C          -4.1982    4.9256   25.4878 C.ar    1  UNL1       -0.0011
     11 C          -5.5674    5.4368   25.1503 C.ar    1  UNL1        0.0366
     12 C          -8.5782    5.9202   24.7637 C.3     1  UNL1        0.2525
     13 O          -7.7142    5.3257   23.6913 O.3     1  UNL1       -0.4714
     14 C           0.4445    1.6257   27.3069 C.3     1  UNL1        0.0768
     15 C          -0.0873    1.5273   28.7060 C.3     1  UNL1        0.0438
     16 C           0.8469    1.2466   29.8454 C.ar    1  UNL1       -0.0176
     17 C           1.8705    0.1566   29.7249 C.ar    1  UNL1       -0.0009
     18 C           2.8048   -0.1242   30.8643 C.ar    1  UNL1        0.0397
     19 C           2.7155    0.6849   32.1242 C.ar    1  UNL1        0.1724
     20 C           1.6920    1.7748   32.2447 C.ar    1  UNL1        0.1721
     21 C           0.7577    2.0556   31.1053 C.ar    1  UNL1        0.0358
     22 O           3.6498    0.4041   33.2637 O.3     1  UNL1       -0.4684
     23 C           4.1258   -0.9958   33.5157 C.3     1  UNL1        0.2526
     24 O           1.6028    2.5839   33.5047 O.3     1  UNL1       -0.4684
     25 C           2.4868    3.7812   33.6913 C.3     1  UNL1        0.2526
     26 C          -0.9932    3.8743   22.7509 C.3     1  UNL1        0.0868
     27 C          -1.0180    2.9469   21.5722 C.2     1  UNL1        0.2228
     28 O          -2.3053    2.6916   20.8457 O.2     1  UNL1       -0.2751
     29 N           0.2444    2.2748   21.1199 N.am    1  UNL1       -0.3004
     30 H           1.0893    2.4423   21.5967 H       1  UNL1        0.1497
     31 C           0.2195    1.3474   19.9412 C.3     1  UNL1        0.1164
     32 C           1.3600    0.4018   19.7067 C.ar    1  UNL1       -0.0017
     33 C           1.8251   -0.5008   20.8108 C.ar    1  UNL1       -0.0026
     34 C           2.9656   -1.4465   20.5763 C.ar    1  UNL1        0.0006
     35 C           3.6410   -1.4896   19.2377 C.ar    1  UNL1        0.0114
     36 C           3.1759   -0.5869   18.1335 C.ar    1  UNL1        0.0574
     37 CL          3.8514   -0.6300   16.7949 Cl      1  UNL1       -0.0823
     38 C           2.0354    0.3587   18.3681 C.ar    1  UNL1        0.0088
@<TRIPOS>BOND
     1    12    13    1
     2    13     6    1
     3     6     7   ar
     4     7     8   ar
     5     8     9   ar
     6     1     9    1
     7     1     2    1
     8     2     3    1
     9     3    14    1
    10    14    15    1
    11    15    16    1
    12    16    17   ar
    13    17    18   ar
    14    18    19   ar
    15    19    22    1
    16    22    23    1
    17    19    20   ar
    18    20    24    1
    19    24    25    1
    20    20    21   ar
    21     3     4    1
    22     4     5    1
    23     5    26    1
    24    26    27    1
    25    27    28    2
    26    27    29   am
    27    29    31    1
    28    31    32    1
    29    32    33   ar
    30    33    34   ar
    31    34    35   ar
    32    35    36   ar
    33    36    37    1
    34    36    38   ar
    35     9    10   ar
    36    10    11   ar
    37    11     6   ar
    38     5     1    1
    39    38    32   ar
    40    21    16   ar
    41    29    30    1
@<TRIPOS>MOLECULE
*****
 38 41 0 0 0
SMALL
GASTEIGER

@<TRIPOS>ATOM
      1 C           2.0301    0.9629   23.6119 C.3     1  UNL1        0.0401
      2 C           0.6067    1.2790   23.9638 C.3     1  UNL1        0.0765
      3 N           0.5176    1.4186   25.4546 N.3     1  UNL1       -0.2721
      4 C           1.8861    1.1888   26.0242 C.3     1  UNL1        0.0729
      5 C           2.8209    0.9072   24.8854 C.3     1  UNL1        0.0304
      6 C           3.6448    0.2984   19.4645 C.ar    1  UNL1        0.1387
      7 C           3.9065    1.5947   20.1725 C.ar    1  UNL1        0.0366
      8 C           3.3683    1.8162   21.5550 C.ar    1  UNL1       -0.0011
      9 C           2.5684    0.7414   22.2295 C.ar    1  UNL1       -0.0209
     10 C           2.3067   -0.5548   21.5215 C.ar    1  UNL1       -0.0011
     11 C           2.8449   -0.7763   20.1390 C.ar    1  UNL1        0.0366
     12 C           5.3003    0.9345   17.5658 C.3     1  UNL1        0.2525
     13 O           4.1830    0.0770   18.0820 O.3     1  UNL1       -0.4714
     14 C          -0.7222    1.7329   26.2382 C.3     1  UNL1        0.0768
     15 C          -1.2089    3.1483   26.3361 C.3     1  UNL1        0.0438
     16 C          -2.5037    3.5425   25.6895 C.ar    1  UNL1       -0.0176
     17 C          -3.7033    3.8466   26.5373 C.ar    1  UNL1       -0.0009
     18 C          -4.9982    4.2408   25.8908 C.ar    1  UNL1        0.0397
     19 C          -5.0935    4.3309   24.3965 C.ar    1  UNL1        0.1724
     20 C          -3.8939    4.0268   23.5488 C.ar    1  UNL1        0.1721
     21 C          -2.5990    3.6325   24.1953 C.ar    1  UNL1        0.0358
     22 O          -6.3883    4.7251   23.7499 O.3     1  UNL1       -0.4684
     23 C          -7.2083    5.8385   24.3311 C.3     1  UNL1        0.2526
     24 O          -3.9892    4.1168   22.0545 O.3     1  UNL1       -0.4684
     25 C          -4.6374    3.0104   21.2763 C.3     1  UNL1        0.2526
     26 C           4.2887    0.6202   24.9999 C.3     1  UNL1        0.0868
     27 C           4.8352   -0.6940   24.5266 C.2     1  UNL1        0.2228
     28 O           4.4775   -1.9590   25.2491 O.2     1  UNL1       -0.2751
     29 N           5.7393   -0.7434   23.3307 N.am    1  UNL1       -0.3004
     30 H           5.9741    0.0868   22.8565 H       1  UNL1        0.1497
     31 C           6.2858   -2.0577   22.8574 C.3     1  UNL1        0.1164
     32 C           5.7640   -2.6757   21.5942 C.ar    1  UNL1       -0.0017
     33 C           4.6564   -3.6854   21.6551 C.ar    1  UNL1       -0.0026
     34 C           4.1345   -4.3035   20.3919 C.ar    1  UNL1        0.0006
     35 C           4.7202   -3.9119   19.0677 C.ar    1  UNL1        0.0114
     36 C           5.8279   -2.9021   19.0067 C.ar    1  UNL1        0.0574
     37 CL          6.4137   -2.5104   17.6826 Cl      1  UNL1       -0.0823
     38 C           6.3497   -2.2841   20.2700 C.ar    1  UNL1        0.0088
@<TRIPOS>BOND
     1    12    13    1
     2    13     6    1
     3     6     7   ar
     4     7     8   ar
     5     8     9   ar
     6     1     9    1
     7     1     2    1
     8     2     3    1
     9     3    14    1
    10    14    15    1
    11    15    16    1
    12    16    17   ar
    13    17    18   ar
    14    18    19   ar
    15    19    22    1
    16    22    23    1
    17    19    20   ar
    18    20    24    1
    19    24    25    1
    20    20    21   ar
    21     3     4    1
    22     4     5    1
    23     5    26    1
    24    26    27    1
    25    27    28    2
    26    27    29   am
    27    29    31    1
    28    31    32    1
    29    32    33   ar
    30    33    34   ar
    31    34    35   ar
    32    35    36   ar
    33    36    37    1
    34    36    38   ar
    35     9    10   ar
    36    10    11   ar
    37    11     6   ar
    38     5     1    1
    39    38    32   ar
    40    21    16   ar
    41    29    30    1
