@<TRIPOS>MOLECULE
*****
 31 33 0 0 0
SMALL
GASTEIGER

@<TRIPOS>ATOM
      1 C         -11.2315  -17.8620   23.4462 C.ar    1  UNL1        0.0008
      2 C         -10.9760  -19.1031   24.2488 C.ar    1  UNL1       -0.0024
      3 C         -10.0271  -19.0633   25.4099 C.ar    1  UNL1        0.0028
      4 C          -9.3337  -17.7824   25.7683 C.ar    1  UNL1        0.0369
      5 C          -9.5892  -16.5413   24.9656 C.ar    1  UNL1        0.1389
      6 C         -10.5381  -16.5811   23.8045 C.ar    1  UNL1        0.0343
      7 C         -12.1804  -17.9018   22.2851 C.3     1  UNL1        0.1239
      8 C         -10.9532  -19.2629   20.4435 C.2     1  UNL1        0.4055
      9 O         -10.7871  -20.4068   21.3996 O.2     1  UNL1       -0.2262
     10 N         -11.6498  -18.0104   20.8863 N.am    1  UNL1       -0.2366
     11 C          -8.9752  -19.6906   18.8142 C.3     1  UNL1        0.2573
     12 O         -10.4227  -19.3716   19.0447 O.3     1  UNL1       -0.4304
     13 C         -11.8159  -16.8666   19.9302 C.3     1  UNL1        0.1388
     14 C         -10.7643  -15.8002   19.8467 C.2     1  UNL1        0.0706
     15 O          -9.7317  -15.6788   20.9279 O.co2   1  UNL1       -0.5474
     16 O         -10.7454  -14.8551   18.6821 O.co2   1  UNL1       -0.5474
     17 O          -8.8958  -15.2603   25.3239 O.3     1  UNL1       -0.4689
     18 C          -7.8012  -14.7291   24.4466 C.3     1  UNL1        0.2537
     19 C          -6.4741  -15.4266   24.3977 C.ar    1  UNL1        0.1359
     20 N          -5.7179  -15.7965   23.1562 N.ar    1  UNL1       -0.2093
     21 C          -4.4466  -16.4752   23.5729 C.ar    1  UNL1        0.2290
     22 O          -4.4173  -16.5246   25.0718 O.2     1  UNL1       -0.4391
     23 C          -5.6704  -15.8766   25.5815 C.ar    1  UNL1        0.1421
     24 C          -6.0527  -15.7080   27.0222 C.3     1  UNL1        0.0740
     25 C          -3.3902  -17.0104   22.6522 C.ar    1  UNL1        0.0536
     26 C          -2.4467  -16.0682   21.9651 C.ar    1  UNL1        0.0055
     27 C          -1.3903  -16.6034   21.0445 C.ar    1  UNL1        0.0115
     28 C          -1.2775  -18.0808   20.8110 C.ar    1  UNL1        0.0577
     29 CL         -0.2211  -18.6160   19.8904 Cl      1  UNL1       -0.0822
     30 C          -2.2210  -19.0230   21.4981 C.ar    1  UNL1        0.0115
     31 C          -3.2774  -18.4878   22.4187 C.ar    1  UNL1        0.0055
@<TRIPOS>UNITY_ATOM_ATTR
15 1
charge -1
@<TRIPOS>BOND
     1    11    12    1
     2    12     8    1
     3     8     9    2
     4     8    10   am
     5    10    13    1
     6    13    14    1
     7    14    15   ar
     8    14    16   ar
     9    10     7    1
    10     7     1    1
    11     1     2   ar
    12     2     3   ar
    13     3     4   ar
    14     4     5   ar
    15     5    17    1
    16    17    18    1
    17    18    19    1
    18    19    20   ar
    19    20    21   ar
    20    21    25    1
    21    25    26   ar
    22    26    27   ar
    23    27    28   ar
    24    28    29    1
    25    28    30   ar
    26    30    31   ar
    27    21    22   ar
    28    22    23   ar
    29    23    24    1
    30     5     6   ar
    31     6     1   ar
    32    23    19   ar
    33    31    25   ar
@<TRIPOS>MOLECULE
*****
 31 33 0 0 0
SMALL
GASTEIGER

@<TRIPOS>ATOM
      1 C          -9.4549  -16.6628   23.9956 C.ar    1  UNL1        0.0008
      2 C         -10.0264  -17.8958   24.6303 C.ar    1  UNL1       -0.0024
      3 C          -9.6925  -18.2300   26.0540 C.ar    1  UNL1        0.0028
      4 C          -8.7871  -17.3313   26.8429 C.ar    1  UNL1        0.0369
      5 C          -8.2155  -16.0983   26.2081 C.ar    1  UNL1        0.1389
      6 C          -8.5494  -15.7640   24.7844 C.ar    1  UNL1        0.0343
      7 C          -9.7888  -16.3285   22.5719 C.3     1  UNL1        0.1239
      8 C          -8.1854  -17.8252   21.1794 C.2     1  UNL1        0.4055
      9 O          -7.0151  -17.2856   21.9470 O.2     1  UNL1       -0.2262
     10 N          -9.5723  -17.3466   21.4919 N.am    1  UNL1       -0.2366
     11 C          -6.9303  -19.9116   20.2729 C.3     1  UNL1        0.2573
     12 O          -7.9689  -18.8433   20.0993 O.3     1  UNL1       -0.4304
     13 C         -10.7426  -17.8862   20.7243 C.3     1  UNL1        0.1388
     14 C         -12.1072  -17.2962   20.9245 C.2     1  UNL1        0.0706
     15 O         -12.9803  -17.7876   22.0408 O.co2   1  UNL1       -0.5474
     16 O         -12.5986  -16.2149   20.0083 O.co2   1  UNL1       -0.5474
     17 O          -7.3100  -15.1995   26.9970 O.3     1  UNL1       -0.4689
     18 C          -5.9542  -14.8445   26.4624 C.3     1  UNL1        0.2537
     19 C          -5.1590  -15.8619   25.6990 C.ar    1  UNL1        0.1359
     20 N          -4.7331  -15.7528   24.2649 N.ar    1  UNL1       -0.2093
     21 C          -3.9610  -16.9905   23.9153 C.ar    1  UNL1        0.2290
     22 O          -3.9098  -17.8644   25.1334 O.2     1  UNL1       -0.4391
     23 C          -4.6502  -17.1669   26.2358 C.ar    1  UNL1        0.1421
     24 C          -4.8472  -17.6836   27.6301 C.3     1  UNL1        0.0740
     25 C          -3.3478  -17.2999   22.5818 C.ar    1  UNL1        0.0536
     26 C          -2.3341  -16.3673   21.9879 C.ar    1  UNL1        0.0055
     27 C          -1.7210  -16.6767   20.6543 C.ar    1  UNL1        0.0115
     28 C          -2.1215  -17.9187   19.9147 C.ar    1  UNL1        0.0577
     29 CL         -1.5084  -18.2281   18.5812 Cl      1  UNL1       -0.0822
     30 C          -3.1352  -18.8513   20.5086 C.ar    1  UNL1        0.0115
     31 C          -3.7484  -18.5419   21.8422 C.ar    1  UNL1        0.0055
@<TRIPOS>UNITY_ATOM_ATTR
15 1
charge -1
@<TRIPOS>BOND
     1    11    12    1
     2    12     8    1
     3     8     9    2
     4     8    10   am
     5    10    13    1
     6    13    14    1
     7    14    15   ar
     8    14    16   ar
     9    10     7    1
    10     7     1    1
    11     1     2   ar
    12     2     3   ar
    13     3     4   ar
    14     4     5   ar
    15     5    17    1
    16    17    18    1
    17    18    19    1
    18    19    20   ar
    19    20    21   ar
    20    21    25    1
    21    25    26   ar
    22    26    27   ar
    23    27    28   ar
    24    28    29    1
    25    28    30   ar
    26    30    31   ar
    27    21    22   ar
    28    22    23   ar
    29    23    24    1
    30     5     6   ar
    31     6     1   ar
    32    23    19   ar
    33    31    25   ar
@<TRIPOS>MOLECULE
*****
 31 33 0 0 0
SMALL
GASTEIGER

@<TRIPOS>ATOM
      1 C           2.5953   -1.3427   20.3260 C.ar    1  UNL1        0.0008
      2 C           3.2504   -1.0361   21.6401 C.ar    1  UNL1       -0.0024
      3 C           2.6346   -0.0319   22.5688 C.ar    1  UNL1        0.0028
      4 C           1.3638    0.6655   22.1835 C.ar    1  UNL1        0.0369
      5 C           0.7088    0.3589   20.8694 C.ar    1  UNL1        0.1389
      6 C           1.3245   -0.6453   19.9406 C.ar    1  UNL1        0.0343
      7 C           3.2111   -2.3469   19.3973 C.3     1  UNL1        0.1239
      8 C           4.8071   -1.1637   17.7230 C.2     1  UNL1        0.4055
      9 O           3.6406   -0.4321   17.1281 O.2     1  UNL1       -0.2262
     10 N           4.5923   -2.1211   18.8577 N.am    1  UNL1       -0.2366
     11 C           6.6446    0.4510   16.8476 C.3     1  UNL1        0.2573
     12 O           6.1883   -0.9380   17.1834 O.3     1  UNL1       -0.4304
     13 C           5.7589   -2.8527   19.4526 C.3     1  UNL1        0.1388
     14 C           5.5466   -4.1676   20.1427 C.2     1  UNL1        0.0706
     15 O           5.0420   -5.3485   19.3677 O.co2   1  UNL1       -0.5474
     16 O           5.8391   -4.3015   21.6078 O.co2   1  UNL1       -0.5474
     17 O          -0.5621    1.0564   20.4839 O.3     1  UNL1       -0.4689
     18 C          -0.6472    2.5523   20.5528 C.3     1  UNL1        0.2537
     19 C          -1.4812    3.2081   21.6133 C.ar    1  UNL1        0.1359
     20 N          -2.9790    3.2850   21.6349 N.ar    1  UNL1       -0.2093
     21 C          -3.3873    4.0265   22.8733 C.ar    1  UNL1        0.2290
     22 O          -2.1416    4.4078   23.6171 O.2     1  UNL1       -0.4391
     23 C          -0.9636    3.9020   22.8384 C.ar    1  UNL1        0.1421
     24 C           0.4787    4.0619   23.2180 C.3     1  UNL1        0.0740
     25 C          -4.7941    4.3329   23.2941 C.ar    1  UNL1        0.0536
     26 C          -5.0622    4.9063   24.6540 C.ar    1  UNL1        0.0055
     27 C          -6.4689    5.2127   25.0748 C.ar    1  UNL1        0.0115
     28 C          -7.6076    4.9457   24.1356 C.ar    1  UNL1        0.0577
     29 CL         -9.0144    5.2521   24.5563 Cl      1  UNL1       -0.0822
     30 C          -7.3395    4.3724   22.7756 C.ar    1  UNL1        0.0115
     31 C          -5.9328    4.0660   22.3549 C.ar    1  UNL1        0.0055
@<TRIPOS>UNITY_ATOM_ATTR
15 1
charge -1
@<TRIPOS>BOND
     1    11    12    1
     2    12     8    1
     3     8     9    2
     4     8    10   am
     5    10    13    1
     6    13    14    1
     7    14    15   ar
     8    14    16   ar
     9    10     7    1
    10     7     1    1
    11     1     2   ar
    12     2     3   ar
    13     3     4   ar
    14     4     5   ar
    15     5    17    1
    16    17    18    1
    17    18    19    1
    18    19    20   ar
    19    20    21   ar
    20    21    25    1
    21    25    26   ar
    22    26    27   ar
    23    27    28   ar
    24    28    29    1
    25    28    30   ar
    26    30    31   ar
    27    21    22   ar
    28    22    23   ar
    29    23    24    1
    30     5     6   ar
    31     6     1   ar
    32    23    19   ar
    33    31    25   ar
@<TRIPOS>MOLECULE
*****
 31 33 0 0 0
SMALL
GASTEIGER

@<TRIPOS>ATOM
      1 C           6.4524   -2.7937   30.4432 C.ar    1  UNL1        0.0008
      2 C           6.6987   -3.6371   31.6590 C.ar    1  UNL1       -0.0024
      3 C           6.9640   -5.1060   31.5115 C.ar    1  UNL1        0.0028
      4 C           6.9830   -5.7316   30.1483 C.ar    1  UNL1        0.0369
      5 C           6.7368   -4.8882   28.9326 C.ar    1  UNL1        0.1389
      6 C           6.4715   -3.4192   29.0801 C.ar    1  UNL1        0.0343
      7 C           6.1871   -1.3247   30.5907 C.3     1  UNL1        0.1239
      8 C           3.6461   -0.8225   30.3873 C.2     1  UNL1        0.4055
      9 O           3.6734   -1.2648   28.9543 O.2     1  UNL1       -0.2262
     10 N           4.9030   -0.8525   31.2055 N.am    1  UNL1       -0.2366
     11 C           1.9084    1.0648   30.7977 C.3     1  UNL1        0.2573
     12 O           2.3620   -0.3503   31.0021 O.3     1  UNL1       -0.4304
     13 C           4.8757   -0.4102   32.6386 C.3     1  UNL1        0.1388
     14 C           4.4367   -1.3642   33.7097 C.2     1  UNL1        0.0706
     15 O           4.5898   -0.9916   35.1546 O.co2   1  UNL1       -0.5474
     16 O           3.8446   -2.6907   33.3359 O.co2   1  UNL1       -0.5474
     17 O           6.7559   -5.5137   27.5694 O.3     1  UNL1       -0.4689
     18 C           7.6765   -4.9803   26.5122 C.3     1  UNL1        0.2537
     19 C           7.1678   -4.7534   25.1194 C.ar    1  UNL1        0.1359
     20 N           6.1005   -3.7786   24.7185 N.ar    1  UNL1       -0.2093
     21 C           5.9100   -3.8843   23.2344 C.ar    1  UNL1        0.2290
     22 O           6.8597   -4.9244   22.7181 O.2     1  UNL1       -0.4391
     23 C           7.6370   -5.4615   23.8831 C.ar    1  UNL1        0.1421
     24 C           8.6973   -6.5207   23.8225 C.3     1  UNL1        0.0740
     25 C           4.9403   -3.0895   22.4111 C.ar    1  UNL1        0.0536
     26 C           4.1570   -1.9764   23.0418 C.ar    1  UNL1        0.0055
     27 C           3.1873   -1.1816   22.2185 C.ar    1  UNL1        0.0115
     28 C           3.0008   -1.4998   20.7645 C.ar    1  UNL1        0.0577
     29 CL          2.0311   -0.7049   19.9413 Cl      1  UNL1       -0.0822
     30 C           3.7841   -2.6128   20.1339 C.ar    1  UNL1        0.0115
     31 C           4.7538   -3.4076   20.9571 C.ar    1  UNL1        0.0055
@<TRIPOS>UNITY_ATOM_ATTR
15 1
charge -1
@<TRIPOS>BOND
     1    11    12    1
     2    12     8    1
     3     8     9    2
     4     8    10   am
     5    10    13    1
     6    13    14    1
     7    14    15   ar
     8    14    16   ar
     9    10     7    1
    10     7     1    1
    11     1     2   ar
    12     2     3   ar
    13     3     4   ar
    14     4     5   ar
    15     5    17    1
    16    17    18    1
    17    18    19    1
    18    19    20   ar
    19    20    21   ar
    20    21    25    1
    21    25    26   ar
    22    26    27   ar
    23    27    28   ar
    24    28    29    1
    25    28    30   ar
    26    30    31   ar
    27    21    22   ar
    28    22    23   ar
    29    23    24    1
    30     5     6   ar
    31     6     1   ar
    32    23    19   ar
    33    31    25   ar
@<TRIPOS>MOLECULE
*****
 31 33 0 0 0
SMALL
GASTEIGER

@<TRIPOS>ATOM
      1 C           2.6139   -1.3551   20.5147 C.ar    1  UNL1        0.0008
      2 C           3.2186   -1.0091   21.8431 C.ar    1  UNL1       -0.0024
      3 C           2.5672    0.0202   22.7184 C.ar    1  UNL1        0.0028
      4 C           1.3110    0.7034   22.2654 C.ar    1  UNL1        0.0369
      5 C           0.7063    0.3574   20.9371 C.ar    1  UNL1        0.1389
      6 C           1.3578   -0.6719   20.0617 C.ar    1  UNL1        0.0343
      7 C           3.2653   -2.3844   19.6394 C.3     1  UNL1        0.1239
      8 C           5.6352   -3.2745   20.2240 C.2     1  UNL1        0.4055
      9 O           5.0347   -4.2143   21.2272 O.2     1  UNL1       -0.2262
     10 N           4.7504   -2.3596   19.4301 N.am    1  UNL1       -0.2366
     11 C           8.0033   -4.1779   20.7950 C.3     1  UNL1        0.2573
     12 O           7.1202   -3.2497   20.0148 O.3     1  UNL1       -0.4304
     13 C           5.3509   -1.4198   18.4270 C.3     1  UNL1        0.1388
     14 C           4.4611   -0.5680   17.5709 C.2     1  UNL1        0.0706
     15 O           4.0520    0.7968   18.0398 O.co2   1  UNL1       -0.5474
     16 O           3.9805   -1.0812   16.2459 O.co2   1  UNL1       -0.5474
     17 O          -0.5499    1.0406   20.4840 O.3     1  UNL1       -0.4689
     18 C          -0.6154    2.5385   20.4416 C.3     1  UNL1        0.2537
     19 C          -1.9457    3.2317   20.4536 C.ar    1  UNL1        0.1359
     20 N          -2.8712    3.3429   21.6287 N.ar    1  UNL1       -0.2093
     21 C          -4.0815    4.1153   21.1940 C.ar    1  UNL1        0.2290
     22 O          -3.9038    4.4814   19.7502 O.2     1  UNL1       -0.4391
     23 C          -2.5838    3.9353   19.2926 C.ar    1  UNL1        0.1421
     24 C          -2.0037    4.0692   17.9159 C.3     1  UNL1        0.0740
     25 C          -5.2621    4.4609   22.0523 C.ar    1  UNL1        0.0536
     26 C          -5.3077    4.0095   23.4821 C.ar    1  UNL1        0.0055
     27 C          -6.4883    4.3551   24.3404 C.ar    1  UNL1        0.0115
     28 C          -7.6232    5.1521   23.7690 C.ar    1  UNL1        0.0577
     29 CL         -8.8038    5.4977   24.6273 Cl      1  UNL1       -0.0822
     30 C          -7.5776    5.6036   22.3392 C.ar    1  UNL1        0.0115
     31 C          -6.3971    5.2580   21.4809 C.ar    1  UNL1        0.0055
@<TRIPOS>UNITY_ATOM_ATTR
15 1
charge -1
@<TRIPOS>BOND
     1    11    12    1
     2    12     8    1
     3     8     9    2
     4     8    10   am
     5    10    13    1
     6    13    14    1
     7    14    15   ar
     8    14    16   ar
     9    10     7    1
    10     7     1    1
    11     1     2   ar
    12     2     3   ar
    13     3     4   ar
    14     4     5   ar
    15     5    17    1
    16    17    18    1
    17    18    19    1
    18    19    20   ar
    19    20    21   ar
    20    21    25    1
    21    25    26   ar
    22    26    27   ar
    23    27    28   ar
    24    28    29    1
    25    28    30   ar
    26    30    31   ar
    27    21    22   ar
    28    22    23   ar
    29    23    24    1
    30     5     6   ar
    31     6     1   ar
    32    23    19   ar
    33    31    25   ar
@<TRIPOS>MOLECULE
*****
 31 33 0 0 0
SMALL
GASTEIGER

@<TRIPOS>ATOM
      1 C          -9.7009  -17.6673   24.4597 C.ar    1  UNL1        0.0008
      2 C          -9.9661  -18.2063   25.8341 C.ar    1  UNL1       -0.0024
      3 C          -9.2330  -17.6425   27.0151 C.ar    1  UNL1        0.0028
      4 C          -8.2348  -16.5398   26.8217 C.ar    1  UNL1        0.0369
      5 C          -7.9696  -16.0008   25.4473 C.ar    1  UNL1        0.1389
      6 C          -8.7026  -16.5645   24.2663 C.ar    1  UNL1        0.0343
      7 C         -10.4339  -18.2311   23.2786 C.3     1  UNL1        0.1239
      8 C         -10.9532  -16.6533   21.2809 C.2     1  UNL1        0.4055
      9 O         -12.0984  -16.0603   22.0469 O.2     1  UNL1       -0.2262
     10 N         -10.1209  -17.7387   21.8968 N.am    1  UNL1       -0.2366
     11 C         -11.7163  -15.5300   19.0659 C.3     1  UNL1        0.2573
     12 O         -10.6402  -16.1609   19.8990 O.3     1  UNL1       -0.4304
     13 C          -8.9757  -18.3317   21.1307 C.3     1  UNL1        0.1388
     14 C          -9.2420  -19.2221   19.9533 C.2     1  UNL1        0.0706
     15 O         -10.5172  -20.0085   19.8809 O.co2   1  UNL1       -0.5474
     16 O          -8.2329  -19.3261   18.8483 O.co2   1  UNL1       -0.5474
     17 O          -6.9714  -14.8980   25.2538 O.3     1  UNL1       -0.4689
     18 C          -5.5363  -15.1100   25.6352 C.3     1  UNL1        0.2537
     19 C          -4.6792  -16.0483   24.8384 C.ar    1  UNL1        0.1359
     20 N          -4.3688  -15.9318   23.3755 N.ar    1  UNL1       -0.2093
     21 C          -3.4798  -17.0794   22.9974 C.ar    1  UNL1        0.2290
     22 O          -3.2408  -17.9051   24.2268 O.2     1  UNL1       -0.4391
     23 C          -3.9820  -17.2678   25.3645 C.ar    1  UNL1        0.1421
     24 C          -4.0196  -17.7630   26.7799 C.3     1  UNL1        0.0740
     25 C          -2.9269  -17.3532   21.6302 C.ar    1  UNL1        0.0536
     26 C          -3.5920  -18.3611   20.7403 C.ar    1  UNL1        0.0055
     27 C          -3.0391  -18.6349   19.3730 C.ar    1  UNL1        0.0115
     28 C          -1.8212  -17.9009   18.8958 C.ar    1  UNL1        0.0577
     29 CL         -1.2683  -18.1747   17.5285 Cl      1  UNL1       -0.0822
     30 C          -1.1561  -16.8930   19.7857 C.ar    1  UNL1        0.0115
     31 C          -1.7090  -16.6192   21.1529 C.ar    1  UNL1        0.0055
@<TRIPOS>UNITY_ATOM_ATTR
15 1
charge -1
@<TRIPOS>BOND
     1    11    12    1
     2    12     8    1
     3     8     9    2
     4     8    10   am
     5    10    13    1
     6    13    14    1
     7    14    15   ar
     8    14    16   ar
     9    10     7    1
    10     7     1    1
    11     1     2   ar
    12     2     3   ar
    13     3     4   ar
    14     4     5   ar
    15     5    17    1
    16    17    18    1
    17    18    19    1
    18    19    20   ar
    19    20    21   ar
    20    21    25    1
    21    25    26   ar
    22    26    27   ar
    23    27    28   ar
    24    28    29    1
    25    28    30   ar
    26    30    31   ar
    27    21    22   ar
    28    22    23   ar
    29    23    24    1
    30     5     6   ar
    31     6     1   ar
    32    23    19   ar
    33    31    25   ar
@<TRIPOS>MOLECULE
*****
 31 33 0 0 0
SMALL
GASTEIGER

@<TRIPOS>ATOM
      1 C           6.5493   -2.9186   30.7220 C.ar    1  UNL1        0.0008
      2 C           6.8286   -3.9541   31.7707 C.ar    1  UNL1       -0.0024
      3 C           7.0472   -5.3839   31.3735 C.ar    1  UNL1        0.0028
      4 C           6.9864   -5.7783   29.9276 C.ar    1  UNL1        0.0369
      5 C           6.7071   -4.7429   28.8789 C.ar    1  UNL1        0.1389
      6 C           6.4885   -3.3130   29.2761 C.ar    1  UNL1        0.0343
      7 C           6.3307   -1.4888   31.1192 C.3     1  UNL1        0.1239
      8 C           3.8039   -1.1176   31.5963 C.2     1  UNL1        0.4055
      9 O           3.8719   -2.1041   32.7242 O.2     1  UNL1       -0.2262
     10 N           5.0333   -0.8099   30.7938 N.am    1  UNL1       -0.2366
     11 C           2.2645    0.9717   31.7208 C.3     1  UNL1        0.2573
     12 O           2.5065   -0.4387   31.2708 O.3     1  UNL1       -0.4304
     13 C           4.9653    0.1766   29.6659 C.3     1  UNL1        0.1388
     14 C           4.2962   -0.2019   28.3778 C.2     1  UNL1        0.0706
     15 O           4.1936    0.7976   27.2640 O.co2   1  UNL1       -0.5474
     16 O           3.7299   -1.5799   28.2035 O.co2   1  UNL1       -0.5474
     17 O           6.6464   -5.1372   27.4329 O.3     1  UNL1       -0.4689
     18 C           7.3937   -4.3394   26.4058 C.3     1  UNL1        0.2537
     19 C           6.8454   -4.2047   25.0161 C.ar    1  UNL1        0.1359
     20 N           5.7770   -3.2469   24.5789 N.ar    1  UNL1       -0.2093
     21 C           5.5406   -3.4544   23.1121 C.ar    1  UNL1        0.2290
     22 O           6.4629   -4.5404   22.6430 O.2     1  UNL1       -0.4391
     23 C           7.2694   -5.0040   23.8197 C.ar    1  UNL1        0.1421
     24 C           8.3159   -6.0784   23.8030 C.3     1  UNL1        0.0740
     25 C           4.5549   -2.7071   22.2636 C.ar    1  UNL1        0.0536
     26 C           4.3743   -3.0776   20.8213 C.ar    1  UNL1        0.0055
     27 C           3.3886   -2.3304   19.9728 C.ar    1  UNL1        0.0115
     28 C           2.5836   -1.2126   20.5665 C.ar    1  UNL1        0.0577
     29 CL          1.5979   -0.4654   19.7180 Cl      1  UNL1       -0.0822
     30 C           2.7642   -0.8421   22.0088 C.ar    1  UNL1        0.0115
     31 C           3.7498   -1.5894   22.8573 C.ar    1  UNL1        0.0055
@<TRIPOS>UNITY_ATOM_ATTR
15 1
charge -1
@<TRIPOS>BOND
     1    11    12    1
     2    12     8    1
     3     8     9    2
     4     8    10   am
     5    10    13    1
     6    13    14    1
     7    14    15   ar
     8    14    16   ar
     9    10     7    1
    10     7     1    1
    11     1     2   ar
    12     2     3   ar
    13     3     4   ar
    14     4     5   ar
    15     5    17    1
    16    17    18    1
    17    18    19    1
    18    19    20   ar
    19    20    21   ar
    20    21    25    1
    21    25    26   ar
    22    26    27   ar
    23    27    28   ar
    24    28    29    1
    25    28    30   ar
    26    30    31   ar
    27    21    22   ar
    28    22    23   ar
    29    23    24    1
    30     5     6   ar
    31     6     1   ar
    32    23    19   ar
    33    31    25   ar
@<TRIPOS>MOLECULE
*****
 31 33 0 0 0
SMALL
GASTEIGER

@<TRIPOS>ATOM
      1 C           2.8018    0.6690   18.1491 C.ar    1  UNL1        0.0008
      2 C           3.6059    1.9190   18.3506 C.ar    1  UNL1       -0.0024
      3 C           5.1010    1.8755   18.2376 C.ar    1  UNL1        0.0028
      4 C           5.7920    0.5819   17.9230 C.ar    1  UNL1        0.0369
      5 C           4.9879   -0.6682   17.7214 C.ar    1  UNL1        0.1389
      6 C           3.4928   -0.6246   17.8345 C.ar    1  UNL1        0.0343
      7 C           1.3067    0.7125   18.2621 C.3     1  UNL1        0.1239
      8 C          -0.0563    2.1411   19.9507 C.2     1  UNL1        0.4055
      9 O          -0.1268    3.2565   18.9502 O.2     1  UNL1       -0.2262
     10 N           0.6604    0.8691   19.6066 N.am    1  UNL1       -0.2366
     11 C          -1.8726    3.2215   21.4620 C.3     1  UNL1        0.2573
     12 O          -0.7026    2.2977   21.2952 O.3     1  UNL1       -0.4304
     13 C           0.7309   -0.2463   20.6072 C.3     1  UNL1        0.1388
     14 C           1.9222   -0.3695   21.5103 C.2     1  UNL1        0.0706
     15 O           2.0237    0.4854   22.7387 O.co2   1  UNL1       -0.5474
     16 O           3.0120   -1.3475   21.1851 O.co2   1  UNL1       -0.5474
     17 O           5.6789   -1.9619   17.4068 O.3     1  UNL1       -0.4689
     18 C           6.6191   -2.5717   18.4038 C.3     1  UNL1        0.2537
     19 C           6.0999   -3.0586   19.7242 C.ar    1  UNL1        0.1359
     20 N           6.6238   -2.6701   21.0750 N.ar    1  UNL1       -0.2093
     21 C           5.8132   -3.3908   22.1113 C.ar    1  UNL1        0.2290
     22 O           4.7885   -4.2246   21.4008 O.2     1  UNL1       -0.4391
     23 C           4.9656   -4.0193   19.9255 C.ar    1  UNL1        0.1421
     24 C           4.1515   -4.6618   18.8419 C.3     1  UNL1        0.0740
     25 C           5.9955   -3.2945   23.5970 C.ar    1  UNL1        0.0536
     26 C           5.3333   -2.1884   24.3638 C.ar    1  UNL1        0.0055
     27 C           5.5155   -2.0921   25.8495 C.ar    1  UNL1        0.0115
     28 C           6.3600   -3.1020   26.5685 C.ar    1  UNL1        0.0577
     29 CL          6.5422   -3.0058   28.0543 Cl      1  UNL1       -0.0822
     30 C           7.0222   -4.2082   25.8018 C.ar    1  UNL1        0.0115
     31 C           6.8399   -4.3045   24.3160 C.ar    1  UNL1        0.0055
@<TRIPOS>UNITY_ATOM_ATTR
15 1
charge -1
@<TRIPOS>BOND
     1    11    12    1
     2    12     8    1
     3     8     9    2
     4     8    10   am
     5    10    13    1
     6    13    14    1
     7    14    15   ar
     8    14    16   ar
     9    10     7    1
    10     7     1    1
    11     1     2   ar
    12     2     3   ar
    13     3     4   ar
    14     4     5   ar
    15     5    17    1
    16    17    18    1
    17    18    19    1
    18    19    20   ar
    19    20    21   ar
    20    21    25    1
    21    25    26   ar
    22    26    27   ar
    23    27    28   ar
    24    28    29    1
    25    28    30   ar
    26    30    31   ar
    27    21    22   ar
    28    22    23   ar
    29    23    24    1
    30     5     6   ar
    31     6     1   ar
    32    23    19   ar
    33    31    25   ar
@<TRIPOS>MOLECULE
*****
 31 33 0 0 0
SMALL
GASTEIGER

@<TRIPOS>ATOM
      1 C           4.1072   -2.1384   19.9606 C.ar    1  UNL1        0.0008
      2 C           3.3836   -1.3813   21.0345 C.ar    1  UNL1       -0.0024
      3 C           3.6289   -1.7081   22.4777 C.ar    1  UNL1        0.0028
      4 C           4.5978   -2.7919   22.8472 C.ar    1  UNL1        0.0369
      5 C           5.3214   -3.5490   21.7733 C.ar    1  UNL1        0.1389
      6 C           5.0761   -3.2222   20.3300 C.ar    1  UNL1        0.0343
      7 C           3.8619   -1.8116   18.5173 C.3     1  UNL1        0.1239
      8 C           5.8584   -0.6553   17.3227 C.2     1  UNL1        0.4055
      9 O           6.6190   -1.9480   17.3426 O.2     1  UNL1       -0.2262
     10 N           4.4798   -0.5871   17.9101 N.am    1  UNL1       -0.2366
     11 C           7.6891    1.1881   17.3448 C.3     1  UNL1        0.2573
     12 O           6.4762    0.5692   16.7154 O.3     1  UNL1       -0.4304
     13 C           3.7192    0.7056   17.8902 C.3     1  UNL1        0.1388
     14 C           4.2127    1.8785   18.6844 C.2     1  UNL1        0.0706
     15 O           4.5837    3.1537   17.9871 O.co2   1  UNL1       -0.5474
     16 O           4.3353    1.7762   20.1759 O.co2   1  UNL1       -0.5474
     17 O           6.2904   -4.6328   22.1427 O.3     1  UNL1       -0.4689
     18 C           7.4724   -4.3182   23.0109 C.3     1  UNL1        0.2537
     19 C           7.5329   -4.8432   24.4147 C.ar    1  UNL1        0.1359
     20 N           7.1402   -4.0943   25.6537 N.ar    1  UNL1       -0.2093
     21 C           7.3612   -4.9975   26.8308 C.ar    1  UNL1        0.2290
     22 O           7.8905   -6.3046   26.3192 O.2     1  UNL1       -0.4391
     23 C           7.9965   -6.2092   24.8261 C.ar    1  UNL1        0.1421
     24 C           8.4811   -7.2899   23.9057 C.3     1  UNL1        0.0740
     25 C           7.0991   -4.6540   28.2672 C.ar    1  UNL1        0.0536
     26 C           7.1957   -5.7161   29.3221 C.ar    1  UNL1        0.0055
     27 C           6.9335   -5.3725   30.7585 C.ar    1  UNL1        0.0115
     28 C           6.5748   -3.9669   31.1400 C.ar    1  UNL1        0.0577
     29 CL          6.3126   -3.6234   32.5764 Cl      1  UNL1       -0.0822
     30 C           6.4782   -2.9049   30.0851 C.ar    1  UNL1        0.0115
     31 C           6.7403   -3.2484   28.6487 C.ar    1  UNL1        0.0055
@<TRIPOS>UNITY_ATOM_ATTR
15 1
charge -1
@<TRIPOS>BOND
     1    11    12    1
     2    12     8    1
     3     8     9    2
     4     8    10   am
     5    10    13    1
     6    13    14    1
     7    14    15   ar
     8    14    16   ar
     9    10     7    1
    10     7     1    1
    11     1     2   ar
    12     2     3   ar
    13     3     4   ar
    14     4     5   ar
    15     5    17    1
    16    17    18    1
    17    18    19    1
    18    19    20   ar
    19    20    21   ar
    20    21    25    1
    21    25    26   ar
    22    26    27   ar
    23    27    28   ar
    24    28    29    1
    25    28    30   ar
    26    30    31   ar
    27    21    22   ar
    28    22    23   ar
    29    23    24    1
    30     5     6   ar
    31     6     1   ar
    32    23    19   ar
    33    31    25   ar
