@<TRIPOS>MOLECULE
*****
 35 39 0 0 0
SMALL
GASTEIGER

@<TRIPOS>ATOM
      1 C         -10.1341  -16.4882   22.7520 C.3     1  UNL1        0.0741
      2 C         -10.2583  -16.4973   22.6564 C.3     1  UNL1        0.0904
      3 C          -9.4585  -15.6982   21.6706 C.3     1  UNL1        0.0386
      4 C         -10.0513  -15.3375   20.3408 C.3     1  UNL1        0.0594
      5 C         -11.0062  -15.2152   19.1905 C.3     1  UNL1        0.0174
      6 C         -12.2720  -15.9296   19.5610 C.3     1  UNL1        0.0174
      7 C         -12.0994  -16.4935   20.9402 C.3     1  UNL1        0.0594
      8 C         -11.6510  -16.9357   22.3122 C.3     1  UNL1        0.0386
      9 N         -10.7269  -16.1275   21.4222 N.3     1  UNL1       -0.2750
     10 C          -7.8978  -14.8655   24.2104 C.3     1  UNL1        0.0738
     11 C          -8.5805  -16.1080   24.7006 C.ar    1  UNL1        0.1433
     12 N          -8.2982  -16.8185   25.9911 N.ar    1  UNL1       -0.1337
     13 N          -9.2086  -18.0076   26.0743 N.ar    1  UNL1       -0.1337
     14 C         -10.0537  -18.0321   24.8353 C.ar    1  UNL1        0.1425
     15 N          -9.6655  -16.8580   23.9863 N.ar    1  UNL1       -0.3039
     16 C         -11.1028  -19.0516   24.5036 C.3     1  UNL1        0.0588
     17 C         -10.7002  -20.4024   23.9906 C.3     1  UNL1        0.0080
     18 C         -12.5545  -18.7203   24.6848 C.3     1  UNL1        0.0080
     19 C          -9.3954  -17.7832   22.9175 C.3     1  UNL1        0.0419
     20 C          -8.4713  -18.2627   21.8376 C.3     1  UNL1        0.1014
     21 C          -9.0183  -19.0195   20.6637 C.ar    1  UNL1        0.0251
     22 C         -10.4324  -19.4927   20.5010 C.ar    1  UNL1        0.0043
     23 C         -10.5352  -20.2016   19.1831 C.ar    1  UNL1        0.0072
     24 C          -9.1846  -20.1665   18.5313 C.ar    1  UNL1        0.0352
     25 S          -8.2471  -19.4359   19.4464 S.2     1  UNL1       -0.0892
     26 N          -7.0001  -17.9854   21.9316 N.am    1  UNL1       -0.3017
     27 C          -6.0363  -19.1144   22.1470 C.2     1  UNL1        0.2222
     28 O          -6.5437  -20.5208   22.2684 O.2     1  UNL1       -0.2751
     29 H          -6.6671  -17.0623   21.8519 H       1  UNL1        0.1497
     30 C          -4.5652  -18.8371   22.2409 C.3     1  UNL1        0.0765
     31 C          -4.0593  -17.7820   23.1794 C.3     1  UNL1        0.0091
     32 C          -2.5881  -17.5046   23.2734 C.3     1  UNL1        0.0005
     33 C          -1.6229  -18.2825   22.4287 C.3     1  UNL1        0.0000
     34 C          -2.1288  -19.3376   21.4902 C.3     1  UNL1        0.0005
     35 C          -3.5999  -19.6149   21.3963 C.3     1  UNL1        0.0091
@<TRIPOS>BOND
     1    10    11    1
     2    11    12   ar
     3    12    13   ar
     4    13    14   ar
     5    14    16    1
     6    16    17    1
     7    16    18    1
     8    14    15   ar
     9     2    15    1
    10     2     3    1
    11     4     3    1
    12     4     5    1
    13     5     6    1
    14     7     6    1
    15     7     8    1
    16     7     9    1
    17     9     1    1
    18     1    19    1
    19    20    19    1
    20    20    26    1
    21    26    27   am
    22    27    28    2
    23    27    30    1
    24    30    31    1
    25    31    32    1
    26    32    33    1
    27    33    34    1
    28    34    35    1
    29    20    21    1
    30    21    22   ar
    31    22    23   ar
    32    23    24   ar
    33    24    25   ar
    34    15    11   ar
    35     8     2    1
    36    35    30    1
    37    25    21   ar
    38     9     4    1
    39    26    29    1
@<TRIPOS>MOLECULE
*****
 35 39 0 0 0
SMALL
GASTEIGER

@<TRIPOS>ATOM
      1 C           4.4607   -0.8756   19.3782 C.3     1  UNL1        0.0741
      2 C           4.3771   -1.0053   19.4071 C.3     1  UNL1        0.0904
      3 C           5.4491   -1.7628   18.6812 C.3     1  UNL1        0.0386
      4 C           5.3412   -3.2507   18.5248 C.3     1  UNL1        0.0594
      5 C           4.8368   -4.6610   18.6071 C.3     1  UNL1        0.0174
      6 C           3.5367   -4.6453   19.3551 C.3     1  UNL1        0.0174
      7 C           3.2375   -3.2254   19.7350 C.3     1  UNL1        0.0594
      8 C           3.1972   -1.7357   19.9767 C.3     1  UNL1        0.0386
      9 N           4.3528   -2.3635   19.2218 N.3     1  UNL1       -0.2750
     10 C           7.1471    0.6998   19.6713 C.3     1  UNL1        0.0738
     11 C           5.7582    1.2664   19.6850 C.ar    1  UNL1        0.1433
     12 N           5.3988    2.7162   19.8225 N.ar    1  UNL1       -0.1337
     13 N           3.9035    2.8284   19.7860 N.ar    1  UNL1       -0.1337
     14 C           3.3387    1.4481   19.6260 C.ar    1  UNL1        0.1425
     15 N           4.4850    0.4827   19.5636 N.ar    1  UNL1       -0.3039
     16 C           1.8832    1.0951   19.5430 C.3     1  UNL1        0.0588
     17 C           1.0248    1.1587   20.7714 C.3     1  UNL1        0.0080
     18 C           1.2860    0.6785   18.2315 C.3     1  UNL1        0.0080
     19 C           4.1097   -0.2315   20.6867 C.3     1  UNL1        0.0419
     20 C           4.7432   -0.7186   21.9560 C.3     1  UNL1        0.1014
     21 C           4.2266   -0.2444   23.2821 C.ar    1  UNL1        0.0251
     22 C           2.8158   -0.3714   23.7753 C.ar    1  UNL1        0.0043
     23 C           2.7475    0.2346   25.1457 C.ar    1  UNL1        0.0072
     24 C           4.1162    0.7362   25.4995 C.ar    1  UNL1        0.0352
     25 S           5.0304    0.4402   24.3477 S.2     1  UNL1       -0.0892
     26 N           5.8934   -1.6799   21.8996 N.am    1  UNL1       -0.3017
     27 C           5.7325   -3.0738   22.4297 C.2     1  UNL1        0.2222
     28 O           4.4215   -3.5065   23.0164 O.2     1  UNL1       -0.2751
     29 H           6.7538   -1.3959   21.5145 H       1  UNL1        0.1497
     30 C           6.8826   -4.0350   22.3732 C.3     1  UNL1        0.0765
     31 C           7.6370   -4.2274   21.0911 C.3     1  UNL1        0.0091
     32 C           8.7872   -5.1887   21.0346 C.3     1  UNL1        0.0005
     33 C           9.1829   -5.9575   22.2603 C.3     1  UNL1        0.0000
     34 C           8.4285   -5.7652   23.5424 C.3     1  UNL1        0.0005
     35 C           7.2783   -4.8040   23.5989 C.3     1  UNL1        0.0091
@<TRIPOS>BOND
     1    10    11    1
     2    11    12   ar
     3    12    13   ar
     4    13    14   ar
     5    14    16    1
     6    16    17    1
     7    16    18    1
     8    14    15   ar
     9     2    15    1
    10     2     3    1
    11     4     3    1
    12     4     5    1
    13     5     6    1
    14     7     6    1
    15     7     8    1
    16     7     9    1
    17     9     1    1
    18     1    19    1
    19    20    19    1
    20    20    26    1
    21    26    27   am
    22    27    28    2
    23    27    30    1
    24    30    31    1
    25    31    32    1
    26    32    33    1
    27    33    34    1
    28    34    35    1
    29    20    21    1
    30    21    22   ar
    31    22    23   ar
    32    23    24   ar
    33    24    25   ar
    34    15    11   ar
    35     8     2    1
    36    35    30    1
    37    25    21   ar
    38     9     4    1
    39    26    29    1
@<TRIPOS>MOLECULE
*****
 35 39 0 0 0
SMALL
GASTEIGER

@<TRIPOS>ATOM
      1 C           3.4999   -0.6761   18.8269 C.3     1  UNL1        0.0741
      2 C           3.3701   -0.6822   18.9151 C.3     1  UNL1        0.0904
      3 C           2.9914    0.6369   18.3094 C.3     1  UNL1        0.0386
      4 C           1.7097    1.3055   18.7096 C.3     1  UNL1        0.0594
      5 C           0.3972    1.5902   19.3776 C.3     1  UNL1        0.0174
      6 C           0.0945    0.4532   20.3080 C.3     1  UNL1        0.0174
      7 C           1.2199   -0.5342   20.2149 C.3     1  UNL1        0.0594
      8 C           2.4670   -1.3325   19.9209 C.3     1  UNL1        0.0386
      9 N           2.2182   -0.0074   19.2271 N.3     1  UNL1       -0.2750
     10 C           5.7247    0.6293   17.0751 C.3     1  UNL1        0.0738
     11 C           5.7341   -0.7481   17.6692 C.ar    1  UNL1        0.1433
     12 N           6.8274   -1.7645   17.5219 N.ar    1  UNL1       -0.1337
     13 N           6.4208   -2.9953   18.2765 N.ar    1  UNL1       -0.1337
     14 C           5.0762   -2.7398   18.8902 C.ar    1  UNL1        0.1425
     15 N           4.6518   -1.3509   18.5149 N.ar    1  UNL1       -0.3039
     16 C           4.2934   -3.7038   19.7316 C.3     1  UNL1        0.0588
     17 C           4.5933   -3.8369   21.1953 C.3     1  UNL1        0.0080
     18 C           3.2107   -4.5348   19.1093 C.3     1  UNL1        0.0080
     19 C           4.6332   -0.7716   19.8049 C.3     1  UNL1        0.0419
     20 C           4.9280    0.3754   20.7254 C.3     1  UNL1        0.1014
     21 C           6.2313    1.1097   20.6151 C.ar    1  UNL1        0.0251
     22 C           6.3999    2.5596   20.2696 C.ar    1  UNL1        0.0043
     23 C           7.8677    2.8690   20.2718 C.ar    1  UNL1        0.0072
     24 C           8.6062    1.6103   20.6188 C.ar    1  UNL1        0.0352
     25 S           7.5949    0.5230   20.8309 S.2     1  UNL1       -0.0892
     26 N           3.9196    0.7881   21.7565 N.am    1  UNL1       -0.3017
     27 C           3.8484    0.0637   23.0680 C.2     1  UNL1        0.2222
     28 O           4.7856   -1.0734   23.3486 O.2     1  UNL1       -0.2751
     29 H           3.3046    1.5344   21.5723 H       1  UNL1        0.1497
     30 C           2.8401    0.4765   24.0989 C.3     1  UNL1        0.0765
     31 C           3.2087    0.4709   25.5529 C.3     1  UNL1        0.0091
     32 C           2.2003    0.8837   26.5839 C.3     1  UNL1        0.0005
     33 C           0.8234    1.3020   26.1608 C.3     1  UNL1        0.0000
     34 C           0.4547    1.3076   24.7068 C.3     1  UNL1        0.0005
     35 C           1.4631    0.8948   23.6759 C.3     1  UNL1        0.0091
@<TRIPOS>BOND
     1    10    11    1
     2    11    12   ar
     3    12    13   ar
     4    13    14   ar
     5    14    16    1
     6    16    17    1
     7    16    18    1
     8    14    15   ar
     9     2    15    1
    10     2     3    1
    11     4     3    1
    12     4     5    1
    13     5     6    1
    14     7     6    1
    15     7     8    1
    16     7     9    1
    17     9     1    1
    18     1    19    1
    19    20    19    1
    20    20    26    1
    21    26    27   am
    22    27    28    2
    23    27    30    1
    24    30    31    1
    25    31    32    1
    26    32    33    1
    27    33    34    1
    28    34    35    1
    29    20    21    1
    30    21    22   ar
    31    22    23   ar
    32    23    24   ar
    33    24    25   ar
    34    15    11   ar
    35     8     2    1
    36    35    30    1
    37    25    21   ar
    38     9     4    1
    39    26    29    1
@<TRIPOS>MOLECULE
*****
 35 39 0 0 0
SMALL
GASTEIGER

@<TRIPOS>ATOM
      1 C           3.9745   -0.9690   18.6463 C.3     1  UNL1        0.0741
      2 C           3.9111   -1.1001   18.7051 C.3     1  UNL1        0.0904
      3 C           5.0766   -1.8353   18.1127 C.3     1  UNL1        0.0386
      4 C           5.1872   -3.3222   18.2766 C.3     1  UNL1        0.0594
      5 C           4.8963   -4.7393   18.6731 C.3     1  UNL1        0.0174
      6 C           3.6143   -4.7488   19.4518 C.3     1  UNL1        0.0174
      7 C           3.1129   -3.3376   19.5366 C.3     1  UNL1        0.0594
      8 C           2.8562   -1.8518   19.4615 C.3     1  UNL1        0.0386
      9 N           4.0851   -2.4559   18.8103 N.3     1  UNL1       -0.2750
     10 C           1.1525    0.6406   18.8045 C.3     1  UNL1        0.0738
     11 C           2.5325    1.1870   18.5869 C.ar    1  UNL1        0.1433
     12 N           2.8867    2.6293   18.3768 N.ar    1  UNL1       -0.1337
     13 N           4.3736    2.7206   18.2013 N.ar    1  UNL1       -0.1337
     14 C           4.9383    1.3348   18.3029 C.ar    1  UNL1        0.1425
     15 N           3.8005    0.3869   18.5412 N.ar    1  UNL1       -0.3039
     16 C           6.3866    0.9621   18.1867 C.3     1  UNL1        0.0588
     17 C           6.9625    0.5980   16.8503 C.3     1  UNL1        0.0080
     18 C           7.2592    0.9535   19.4068 C.3     1  UNL1        0.0080
     19 C           3.7450   -0.0973   19.8453 C.3     1  UNL1        0.0419
     20 C           4.4074   -0.4270   21.1500 C.3     1  UNL1        0.1014
     21 C           3.8667    0.1388   22.4297 C.ar    1  UNL1        0.0251
     22 C           2.4385    0.0825   22.8848 C.ar    1  UNL1        0.0043
     23 C           2.3486    0.7692   24.2154 C.ar    1  UNL1        0.0072
     24 C           3.7212    1.2498   24.5826 C.ar    1  UNL1        0.0352
     25 S           4.6595    0.8603   23.4791 S.2     1  UNL1       -0.0892
     26 N           5.6105   -1.3226   21.1753 N.am    1  UNL1       -0.3017
     27 C           5.5823   -2.5942   21.9703 C.2     1  UNL1        0.2222
     28 O           4.3511   -2.9704   22.7400 O.2     1  UNL1       -0.2751
     29 H           6.4186   -1.0757   20.6700 H       1  UNL1        0.1497
     30 C           6.7854   -3.4897   21.9955 C.3     1  UNL1        0.0765
     31 C           7.0318   -4.3817   23.1760 C.3     1  UNL1        0.0091
     32 C           8.2349   -5.2773   23.2012 C.3     1  UNL1        0.0005
     33 C           9.1915   -5.2808   22.0459 C.3     1  UNL1        0.0000
     34 C           8.9452   -4.3888   20.8653 C.3     1  UNL1        0.0005
     35 C           7.7421   -3.4933   20.8401 C.3     1  UNL1        0.0091
@<TRIPOS>BOND
     1    10    11    1
     2    11    12   ar
     3    12    13   ar
     4    13    14   ar
     5    14    16    1
     6    16    17    1
     7    16    18    1
     8    14    15   ar
     9     2    15    1
    10     2     3    1
    11     4     3    1
    12     4     5    1
    13     5     6    1
    14     7     6    1
    15     7     8    1
    16     7     9    1
    17     9     1    1
    18     1    19    1
    19    20    19    1
    20    20    26    1
    21    26    27   am
    22    27    28    2
    23    27    30    1
    24    30    31    1
    25    31    32    1
    26    32    33    1
    27    33    34    1
    28    34    35    1
    29    20    21    1
    30    21    22   ar
    31    22    23   ar
    32    23    24   ar
    33    24    25   ar
    34    15    11   ar
    35     8     2    1
    36    35    30    1
    37    25    21   ar
    38     9     4    1
    39    26    29    1
@<TRIPOS>MOLECULE
*****
 35 39 0 0 0
SMALL
GASTEIGER

@<TRIPOS>ATOM
      1 C           3.4986   -0.7272   18.9394 C.3     1  UNL1        0.0741
      2 C           3.4138   -0.5951   18.9367 C.3     1  UNL1        0.0904
      3 C           2.3918   -1.3269   19.7551 C.3     1  UNL1        0.0386
      4 C           1.1325   -0.6311   20.1794 C.3     1  UNL1        0.0594
      5 C           0.0749    0.4159   20.3665 C.3     1  UNL1        0.0174
      6 C           0.5279    1.6627   19.6664 C.3     1  UNL1        0.0174
      7 C           1.8656    1.3863   19.0465 C.3     1  UNL1        0.0594
      8 C           3.1765    0.8326   18.5425 C.3     1  UNL1        0.0386
      9 N           2.2393   -0.0314   19.3636 N.3     1  UNL1       -0.2750
     10 C           5.7289    0.6421   16.9978 C.3     1  UNL1        0.0738
     11 C           5.7373   -0.7222   17.6212 C.ar    1  UNL1        0.1433
     12 N           6.8113   -1.7574   17.4629 N.ar    1  UNL1       -0.1337
     13 N           6.4109   -2.9657   18.2563 N.ar    1  UNL1       -0.1337
     14 C           5.0896   -2.6775   18.9049 C.ar    1  UNL1        0.1425
     15 N           4.6732   -1.2909   18.5124 N.ar    1  UNL1       -0.3039
     16 C           4.3196   -3.6117   19.7906 C.3     1  UNL1        0.0588
     17 C           3.2984   -4.5366   19.1974 C.3     1  UNL1        0.0080
     18 C           4.5708   -3.6212   21.2694 C.3     1  UNL1        0.0080
     19 C           4.8251   -0.2631   19.4638 C.3     1  UNL1        0.0419
     20 C           5.0491   -0.1508   20.9427 C.3     1  UNL1        0.1014
     21 C           6.4245   -0.3428   21.5096 C.ar    1  UNL1        0.0251
     22 C           7.7055   -0.3598   20.7293 C.ar    1  UNL1        0.0043
     23 C           8.8330   -0.5790   21.6939 C.ar    1  UNL1        0.0072
     24 C           8.2489   -0.6976   23.0705 C.ar    1  UNL1        0.0352
     25 S           6.7604   -0.5516   22.9566 S.2     1  UNL1       -0.0892
     26 N           3.8978    0.1535   21.8548 N.am    1  UNL1       -0.3017
     27 C           3.5289    1.5777   22.1474 C.2     1  UNL1        0.2222
     28 O           4.3114    2.6976   21.5280 O.2     1  UNL1       -0.2751
     29 H           3.3842   -0.5815   22.2613 H       1  UNL1        0.1497
     30 C           2.3776    1.8820   23.0595 C.3     1  UNL1        0.0765
     31 C           1.9018    3.2953   23.2207 C.3     1  UNL1        0.0091
     32 C           0.7504    3.5997   24.1328 C.3     1  UNL1        0.0005
     33 C           0.0750    2.4906   24.8836 C.3     1  UNL1        0.0000
     34 C           0.5509    1.0772   24.7224 C.3     1  UNL1        0.0005
     35 C           1.7022    0.7729   23.8104 C.3     1  UNL1        0.0091
@<TRIPOS>BOND
     1    10    11    1
     2    11    12   ar
     3    12    13   ar
     4    13    14   ar
     5    14    16    1
     6    16    17    1
     7    16    18    1
     8    14    15   ar
     9     2    15    1
    10     2     3    1
    11     4     3    1
    12     4     5    1
    13     5     6    1
    14     7     6    1
    15     7     8    1
    16     7     9    1
    17     9     1    1
    18     1    19    1
    19    20    19    1
    20    20    26    1
    21    26    27   am
    22    27    28    2
    23    27    30    1
    24    30    31    1
    25    31    32    1
    26    32    33    1
    27    33    34    1
    28    34    35    1
    29    20    21    1
    30    21    22   ar
    31    22    23   ar
    32    23    24   ar
    33    24    25   ar
    34    15    11   ar
    35     8     2    1
    36    35    30    1
    37    25    21   ar
    38     9     4    1
    39    26    29    1
@<TRIPOS>MOLECULE
*****
 35 39 0 0 0
SMALL
GASTEIGER

@<TRIPOS>ATOM
      1 C          -9.5654  -16.4721   23.9658 C.3     1  UNL1        0.0741
      2 C          -9.7076  -16.4822   23.9000 C.3     1  UNL1        0.0904
      3 C          -9.9774  -17.6173   24.8427 C.3     1  UNL1        0.0386
      4 C         -11.3024  -18.3196   24.8112 C.3     1  UNL1        0.0594
      5 C         -12.7027  -18.7079   24.4392 C.3     1  UNL1        0.0174
      6 C         -13.1562  -17.8027   23.3324 C.3     1  UNL1        0.0174
      7 C         -12.0361  -16.8550   23.0203 C.3     1  UNL1        0.0594
      8 C         -10.7628  -16.0495   22.9257 C.3     1  UNL1        0.0386
      9 N         -10.8904  -17.1745   23.9343 N.3     1  UNL1       -0.2750
     10 C          -8.1600  -15.1903   21.3337 C.3     1  UNL1        0.0738
     11 C          -7.6712  -15.1860   22.7519 C.ar    1  UNL1        0.1433
     12 N          -6.3852  -14.5871   23.2395 N.ar    1  UNL1       -0.1337
     13 N          -6.3018  -14.8108   24.7203 N.ar    1  UNL1       -0.1337
     14 C          -7.5362  -15.5479   25.1480 C.ar    1  UNL1        0.1425
     15 N          -8.3825  -15.7798   23.9315 N.ar    1  UNL1       -0.3039
     16 C          -7.8663  -15.9778   26.5467 C.3     1  UNL1        0.0588
     17 C          -8.8141  -15.1643   27.3773 C.3     1  UNL1        0.0080
     18 C          -7.2487  -17.2211   27.1148 C.3     1  UNL1        0.0080
     19 C          -8.2957  -17.2598   23.8336 C.3     1  UNL1        0.0419
     20 C          -7.9886  -17.9780   22.5531 C.3     1  UNL1        0.1014
     21 C          -9.0570  -18.7753   21.8655 C.ar    1  UNL1        0.0251
     22 C          -9.7672  -19.9696   22.4304 C.ar    1  UNL1        0.0043
     23 C         -10.7519  -20.4507   21.4062 C.ar    1  UNL1        0.0072
     24 C         -10.6502  -19.5537   20.2083 C.ar    1  UNL1        0.0352
     25 S          -9.6027  -18.5182   20.4921 S.2     1  UNL1       -0.0892
     26 N          -6.6130  -17.8989   21.9601 N.am    1  UNL1       -0.3017
     27 C          -5.7714  -19.1358   21.8501 C.2     1  UNL1        0.2222
     28 O          -6.3054  -20.4517   22.3332 O.2     1  UNL1       -0.2751
     29 H          -6.2625  -17.0353   21.6430 H       1  UNL1        0.1497
     30 C          -4.3959  -19.0567   21.2571 C.3     1  UNL1        0.0765
     31 C          -4.2231  -19.0056   19.7679 C.3     1  UNL1        0.0091
     32 C          -2.8475  -18.9265   19.1748 C.3     1  UNL1        0.0005
     33 C          -1.6449  -18.8985   20.0710 C.3     1  UNL1        0.0000
     34 C          -1.8178  -18.9496   21.5601 C.3     1  UNL1        0.0005
     35 C          -3.1933  -19.0287   22.1532 C.3     1  UNL1        0.0091
@<TRIPOS>BOND
     1    10    11    1
     2    11    12   ar
     3    12    13   ar
     4    13    14   ar
     5    14    16    1
     6    16    17    1
     7    16    18    1
     8    14    15   ar
     9     2    15    1
    10     2     3    1
    11     4     3    1
    12     4     5    1
    13     5     6    1
    14     7     6    1
    15     7     8    1
    16     7     9    1
    17     9     1    1
    18     1    19    1
    19    20    19    1
    20    20    26    1
    21    26    27   am
    22    27    28    2
    23    27    30    1
    24    30    31    1
    25    31    32    1
    26    32    33    1
    27    33    34    1
    28    34    35    1
    29    20    21    1
    30    21    22   ar
    31    22    23   ar
    32    23    24   ar
    33    24    25   ar
    34    15    11   ar
    35     8     2    1
    36    35    30    1
    37    25    21   ar
    38     9     4    1
    39    26    29    1
@<TRIPOS>MOLECULE
*****
 35 39 0 0 0
SMALL
GASTEIGER

@<TRIPOS>ATOM
      1 C           3.4674   -0.8632   18.9109 C.3     1  UNL1        0.0741
      2 C           3.3708   -0.7418   18.8864 C.3     1  UNL1        0.0904
      3 C           2.5358   -1.2804   20.0101 C.3     1  UNL1        0.0386
      4 C           1.2809   -0.5683   20.4199 C.3     1  UNL1        0.0594
      5 C           0.1613    0.4280   20.4819 C.3     1  UNL1        0.0174
      6 C           0.4010    1.4610   19.4211 C.3     1  UNL1        0.0174
      7 C           1.6686    1.1031   18.7034 C.3     1  UNL1        0.0594
      8 C           2.9509    0.5089   18.1726 C.3     1  UNL1        0.0386
      9 N           2.2124   -0.1511   19.3208 N.3     1  UNL1       -0.2750
     10 C           5.7842    0.5102   17.0814 C.3     1  UNL1        0.0738
     11 C           5.7352   -0.8784   17.6468 C.ar    1  UNL1        0.1433
     12 N           6.7868   -1.9352   17.4819 N.ar    1  UNL1       -0.1337
     13 N           6.3275   -3.1637   18.2096 N.ar    1  UNL1       -0.1337
     14 C           4.9920   -2.8663   18.8243 C.ar    1  UNL1        0.1425
     15 N           4.6259   -1.4538   18.4765 N.ar    1  UNL1       -0.3039
     16 C           4.1673   -3.8147   19.6431 C.3     1  UNL1        0.0588
     17 C           3.1202   -4.6611   18.9820 C.3     1  UNL1        0.0080
     18 C           4.3898   -3.9168   21.1231 C.3     1  UNL1        0.0080
     19 C           4.8038   -0.3363   19.3427 C.3     1  UNL1        0.0419
     20 C           4.9985    0.1542   20.7467 C.3     1  UNL1        0.1014
     21 C           4.7517    1.5961   21.0785 C.ar    1  UNL1        0.0251
     22 C           3.5591    2.1417   21.8066 C.ar    1  UNL1        0.0043
     23 C           3.7245    3.6283   21.9184 C.ar    1  UNL1        0.0072
     24 C           5.0193    4.0015   21.2595 C.ar    1  UNL1        0.0352
     25 S           5.6542    2.7456   20.7403 S.2     1  UNL1       -0.0892
     26 N           5.4402   -0.7971   21.8191 N.am    1  UNL1       -0.3017
     27 C           6.8322   -1.3557   21.7994 C.2     1  UNL1        0.2222
     28 O           7.7825   -0.9630   20.7074 O.2     1  UNL1       -0.2751
     29 H           4.8165   -1.0548   22.5359 H       1  UNL1        0.1497
     30 C           7.2737   -2.3070   22.8718 C.3     1  UNL1        0.0765
     31 C           6.3281   -2.6883   23.9720 C.3     1  UNL1        0.0091
     32 C           6.7697   -3.6396   25.0444 C.3     1  UNL1        0.0005
     33 C           8.1569   -4.2095   25.0166 C.3     1  UNL1        0.0000
     34 C           9.1026   -3.8281   23.9165 C.3     1  UNL1        0.0005
     35 C           8.6610   -2.8769   22.8441 C.3     1  UNL1        0.0091
@<TRIPOS>BOND
     1    10    11    1
     2    11    12   ar
     3    12    13   ar
     4    13    14   ar
     5    14    16    1
     6    16    17    1
     7    16    18    1
     8    14    15   ar
     9     2    15    1
    10     2     3    1
    11     4     3    1
    12     4     5    1
    13     5     6    1
    14     7     6    1
    15     7     8    1
    16     7     9    1
    17     9     1    1
    18     1    19    1
    19    20    19    1
    20    20    26    1
    21    26    27   am
    22    27    28    2
    23    27    30    1
    24    30    31    1
    25    31    32    1
    26    32    33    1
    27    33    34    1
    28    34    35    1
    29    20    21    1
    30    21    22   ar
    31    22    23   ar
    32    23    24   ar
    33    24    25   ar
    34    15    11   ar
    35     8     2    1
    36    35    30    1
    37    25    21   ar
    38     9     4    1
    39    26    29    1
@<TRIPOS>MOLECULE
*****
 35 39 0 0 0
SMALL
GASTEIGER

@<TRIPOS>ATOM
      1 C           3.5182   -0.7324   18.8139 C.3     1  UNL1        0.0741
      2 C           3.3928   -0.7326   18.9084 C.3     1  UNL1        0.0904
      3 C           2.9653    0.5269   18.2151 C.3     1  UNL1        0.0386
      4 C           1.6936    1.2114   18.6202 C.3     1  UNL1        0.0594
      5 C           0.4098    1.5352   19.3251 C.3     1  UNL1        0.0174
      6 C           0.1692    0.4760   20.3596 C.3     1  UNL1        0.0174
      7 C           1.3043   -0.5024   20.2940 C.3     1  UNL1        0.0594
      8 C           2.5486   -1.3077   20.0069 C.3     1  UNL1        0.0386
      9 N           2.2465   -0.0478   19.2190 N.3     1  UNL1       -0.2750
     10 C           5.7005    0.5042   16.9605 C.3     1  UNL1        0.0738
     11 C           5.7253   -0.8487   17.6079 C.ar    1  UNL1        0.1433
     12 N           6.8152   -1.8706   17.4737 N.ar    1  UNL1       -0.1337
     13 N           6.4280   -3.0706   18.2861 N.ar    1  UNL1       -0.1337
     14 C           5.0989   -2.7904   18.9224 C.ar    1  UNL1        0.1425
     15 N           4.6646   -1.4172   18.5033 N.ar    1  UNL1       -0.3039
     16 C           4.3377   -3.7202   19.8202 C.3     1  UNL1        0.0588
     17 C           4.6366   -3.7559   21.2897 C.3     1  UNL1        0.0080
     18 C           3.2775   -4.6143   19.2486 C.3     1  UNL1        0.0080
     19 C           4.6994   -0.7287   19.7385 C.3     1  UNL1        0.0419
     20 C           4.9153    0.4230   20.6748 C.3     1  UNL1        0.1014
     21 C           5.7937    1.5679   20.2654 C.ar    1  UNL1        0.0251
     22 C           5.3266    2.9080   19.7798 C.ar    1  UNL1        0.0043
     23 C           6.5378    3.7420   19.4841 C.ar    1  UNL1        0.0072
     24 C           7.7536    2.9172   19.7869 C.ar    1  UNL1        0.0352
     25 S           7.2938    1.5736   20.2697 S.2     1  UNL1       -0.0892
     26 N           4.2527    0.4301   22.0206 N.am    1  UNL1       -0.3017
     27 C           4.8876   -0.2904   23.1728 C.2     1  UNL1        0.2222
     28 O           6.1850   -1.0180   22.9794 O.2     1  UNL1       -0.2751
     29 H           3.4012    0.9076   22.1475 H       1  UNL1        0.1497
     30 C           4.2250   -0.2834   24.5186 C.3     1  UNL1        0.0765
     31 C           3.2899    0.8297   24.8882 C.3     1  UNL1        0.0091
     32 C           2.6273    0.8368   26.2340 C.3     1  UNL1        0.0005
     33 C           2.8999   -0.2692   27.2100 C.3     1  UNL1        0.0000
     34 C           3.8350   -1.3823   26.8403 C.3     1  UNL1        0.0005
     35 C           4.4976   -1.3893   25.4946 C.3     1  UNL1        0.0091
@<TRIPOS>BOND
     1    10    11    1
     2    11    12   ar
     3    12    13   ar
     4    13    14   ar
     5    14    16    1
     6    16    17    1
     7    16    18    1
     8    14    15   ar
     9     2    15    1
    10     2     3    1
    11     4     3    1
    12     4     5    1
    13     5     6    1
    14     7     6    1
    15     7     8    1
    16     7     9    1
    17     9     1    1
    18     1    19    1
    19    20    19    1
    20    20    26    1
    21    26    27   am
    22    27    28    2
    23    27    30    1
    24    30    31    1
    25    31    32    1
    26    32    33    1
    27    33    34    1
    28    34    35    1
    29    20    21    1
    30    21    22   ar
    31    22    23   ar
    32    23    24   ar
    33    24    25   ar
    34    15    11   ar
    35     8     2    1
    36    35    30    1
    37    25    21   ar
    38     9     4    1
    39    26    29    1
@<TRIPOS>MOLECULE
*****
 35 39 0 0 0
SMALL
GASTEIGER

@<TRIPOS>ATOM
      1 C           3.9693    0.1039   18.4124 C.3     1  UNL1        0.0741
      2 C           3.9525    0.2509   18.4650 C.3     1  UNL1        0.0904
      3 C           2.4891    0.1061   18.1695 C.3     1  UNL1        0.0386
      4 C           1.5522    1.2449   18.4442 C.3     1  UNL1        0.0594
      5 C           1.0162    2.5827   18.8599 C.3     1  UNL1        0.0174
      6 C           2.1652    3.4074   19.3596 C.3     1  UNL1        0.0174
      7 C           3.4113    2.5792   19.2529 C.3     1  UNL1        0.0594
      8 C           4.4791    1.5345   19.0352 C.3     1  UNL1        0.0386
      9 N           3.0324    1.2427   18.6871 N.3     1  UNL1       -0.2750
     10 C           3.2949   -2.9179   18.8845 C.3     1  UNL1        0.0738
     11 C           4.5872   -2.3444   18.3832 C.ar    1  UNL1        0.1433
     12 N           5.8041   -3.1268   17.9866 N.ar    1  UNL1       -0.1337
     13 N           6.8583   -2.1538   17.5487 N.ar    1  UNL1       -0.1337
     14 C           6.2931   -0.7701   17.6746 C.ar    1  UNL1        0.1425
     15 N           4.8895   -0.8879   18.1903 N.ar    1  UNL1       -0.3039
     16 C           7.0063    0.5072   17.3430 C.3     1  UNL1        0.0588
     17 C           8.0750    1.0286   18.2573 C.3     1  UNL1        0.0080
     18 C           6.6507    1.2631   16.0971 C.3     1  UNL1        0.0080
     19 C           5.0044   -0.2776   19.4288 C.3     1  UNL1        0.0419
     20 C           4.5819   -0.7604   20.7846 C.3     1  UNL1        0.1014
     21 C           5.4031   -1.7892   21.5039 C.ar    1  UNL1        0.0251
     22 C           4.8723   -2.8934   22.3694 C.ar    1  UNL1        0.0043
     23 C           6.0405   -3.6809   22.8843 C.ar    1  UNL1        0.0072
     24 C           7.2932   -3.0636   22.3370 C.ar    1  UNL1        0.0352
     25 S           6.8993   -1.8944   21.4838 S.2     1  UNL1       -0.0892
     26 N           3.3382   -0.2146   21.4213 N.am    1  UNL1       -0.3017
     27 C           3.4329    0.5884   22.6847 C.2     1  UNL1        0.2222
     28 O           4.7712    0.8456   23.3115 O.2     1  UNL1       -0.2751
     29 H           2.4599   -0.3833   21.0099 H       1  UNL1        0.1497
     30 C           2.1892    1.1343   23.3213 C.3     1  UNL1        0.0765
     31 C           1.2830    2.0400   22.5414 C.3     1  UNL1        0.0091
     32 C           0.0392    2.5859   23.1781 C.3     1  UNL1        0.0005
     33 C          -0.2981    2.2260   24.5946 C.3     1  UNL1        0.0000
     34 C           0.6082    1.3203   25.3746 C.3     1  UNL1        0.0005
     35 C           1.8519    0.7744   24.7379 C.3     1  UNL1        0.0091
@<TRIPOS>BOND
     1    10    11    1
     2    11    12   ar
     3    12    13   ar
     4    13    14   ar
     5    14    16    1
     6    16    17    1
     7    16    18    1
     8    14    15   ar
     9     2    15    1
    10     2     3    1
    11     4     3    1
    12     4     5    1
    13     5     6    1
    14     7     6    1
    15     7     8    1
    16     7     9    1
    17     9     1    1
    18     1    19    1
    19    20    19    1
    20    20    26    1
    21    26    27   am
    22    27    28    2
    23    27    30    1
    24    30    31    1
    25    31    32    1
    26    32    33    1
    27    33    34    1
    28    34    35    1
    29    20    21    1
    30    21    22   ar
    31    22    23   ar
    32    23    24   ar
    33    24    25   ar
    34    15    11   ar
    35     8     2    1
    36    35    30    1
    37    25    21   ar
    38     9     4    1
    39    26    29    1
