@<TRIPOS>MOLECULE
*****
 33 36 0 0 0
SMALL
GASTEIGER

@<TRIPOS>ATOM
      1 C          -5.9048  -20.7768   20.5222 C.2     1  UNL1        0.2015
      2 O          -5.9648  -22.1130   19.8434 O.2     1  UNL1       -0.2864
      3 C          -4.5952  -20.0558   20.6446 C.ar    1  UNL1        0.0611
      4 C          -3.3442  -20.3634   19.8762 C.ar    1  UNL1        0.1037
      5 N          -2.2825  -19.3983   20.3136 N.ar    1  UNL1       -0.2269
      6 C          -2.8773  -18.4942   21.3523 C.ar    1  UNL1        0.1407
      7 N          -2.3020  -17.3535   22.1383 N.ar    1  UNL1       -0.3374
      8 C          -3.1561  -16.6192   23.1288 C.ar    1  UNL1        0.0732
      9 C          -4.5854  -17.0256   23.3334 C.ar    1  UNL1        0.0167
     10 C          -5.1607  -18.1663   22.5474 C.ar    1  UNL1        0.0044
     11 C          -4.3066  -18.9006   21.5569 C.ar    1  UNL1        0.0386
     12 H          -1.3639  -17.0868   22.0040 H       1  UNL1        0.1674
     13 C          -5.4395  -16.2912   24.3241 C.2     1  UNL1        0.0263
     14 C          -6.8559  -15.8469   24.1086 C.2     1  UNL1        0.1195
     15 N          -7.3190  -15.1533   25.3554 N.2     1  UNL1       -0.1510
     16 N          -6.1886  -15.1688   26.3414 N.2     1  UNL1       -0.1695
     17 C          -5.0271  -15.8721   25.7040 C.3     1  UNL1        0.1772
     18 C          -9.2472  -18.6520   20.7751 C.ar    1  UNL1        0.0920
     19 C          -9.6540  -18.9310   22.1917 C.ar    1  UNL1        0.0204
     20 C          -8.8110  -19.8253   23.0518 C.ar    1  UNL1        0.0312
     21 C          -7.5613  -20.4405   22.4953 C.ar    1  UNL1        0.1454
     22 F          -6.7184  -21.3348   23.3554 F       1  UNL1       -0.2040
     23 C          -7.1546  -20.1615   21.0787 C.ar    1  UNL1        0.0951
     24 C          -7.9976  -19.2673   20.2187 C.ar    1  UNL1        0.1598
     25 F          -7.5907  -18.9883   18.8021 F       1  UNL1       -0.2026
     26 N         -10.0902  -17.7577   19.9150 N.pl3   1  UNL1       -0.2166
     27 H          -9.9119  -17.6931   18.9490 H       1  UNL1        0.1734
     28 S         -11.2048  -16.9620   20.5269 S.O2    1  UNL1        0.0540
     29 O         -12.1705  -18.0616   20.1979 O.2     1  UNL1       -0.1545
     30 O         -10.2391  -15.8623   20.8558 O.2     1  UNL1       -0.1545
     31 C         -12.3193  -16.1661   21.1387 C.3     1  UNL1        0.1724
     32 C         -12.9979  -17.4804   23.2748 C.3     1  UNL1        0.0019
     33 C         -12.5452  -16.2085   22.6210 C.3     1  UNL1        0.0273
@<TRIPOS>BOND
     1    32    33    1
     2    33    31    1
     3    31    28    1
     4    28    29    2
     5    28    30    2
     6    28    26    1
     7    26    18    1
     8    18    19   ar
     9    19    20   ar
    10    20    21   ar
    11    21    22    1
    12    21    23   ar
    13    23     1    1
    14     1     2    2
    15     1     3    1
    16     3     4   ar
    17     4     5   ar
    18     5     6   ar
    19     6     7   ar
    20     7     8   ar
    21     8     9   ar
    22     9    13    1
    23    13    14    2
    24    14    15    1
    25    15    16    2
    26    16    17    1
    27     9    10   ar
    28    10    11   ar
    29    23    24   ar
    30    24    25    1
    31    24    18   ar
    32    11     3   ar
    33    11     6    1
    34    17    13    1
    35    26    27    1
    36     7    12    1
@<TRIPOS>MOLECULE
*****
 33 36 0 0 0
SMALL
GASTEIGER

@<TRIPOS>ATOM
      1 C          -4.8994  -15.7735   23.3957 C.2     1  UNL1        0.2015
      2 O          -4.3222  -14.4911   22.8738 O.2     1  UNL1       -0.2864
      3 C          -4.3015  -17.0867   22.9859 C.ar    1  UNL1        0.0611
      4 C          -2.9096  -17.5553   23.2909 C.ar    1  UNL1        0.1037
      5 N          -2.7385  -18.9201   22.6926 N.ar    1  UNL1       -0.2269
      6 C          -4.0246  -19.2950   22.0178 C.ar    1  UNL1        0.1407
      7 N          -4.4409  -20.5218   21.2618 N.ar    1  UNL1       -0.3374
      8 C          -5.8232  -20.6155   20.6870 C.ar    1  UNL1        0.0732
      9 C          -6.7892  -19.4824   20.8682 C.ar    1  UNL1        0.0167
     10 C          -6.3729  -18.2556   21.6243 C.ar    1  UNL1        0.0044
     11 C          -4.9906  -18.1619   22.1991 C.ar    1  UNL1        0.0386
     12 H          -3.8068  -21.2655   21.1428 H       1  UNL1        0.1674
     13 C          -8.1715  -19.5761   20.2934 C.2     1  UNL1        0.0263
     14 C          -9.4488  -19.2562   21.0120 C.2     1  UNL1        0.1195
     15 N         -10.5860  -19.4885   20.0618 N.2     1  UNL1       -0.1510
     16 N         -10.0115  -19.9521   18.7559 N.2     1  UNL1       -0.1695
     17 C          -8.5193  -20.0062   18.8991 C.3     1  UNL1        0.1772
     18 C          -8.6421  -15.6278   24.7077 C.ar    1  UNL1        0.0920
     19 C          -8.4248  -15.6808   26.1909 C.ar    1  UNL1        0.0204
     20 C          -7.0324  -15.7647   26.7424 C.ar    1  UNL1        0.0312
     21 C          -5.8572  -15.7956   25.8107 C.ar    1  UNL1        0.1454
     22 F          -4.4648  -15.8795   26.3622 F       1  UNL1       -0.2040
     23 C          -6.0745  -15.7426   24.3275 C.ar    1  UNL1        0.0951
     24 C          -7.4670  -15.6587   23.7760 C.ar    1  UNL1        0.1598
     25 F          -7.6842  -15.6057   22.2927 F       1  UNL1       -0.2026
     26 N         -10.0345  -15.5439   24.1562 N.pl3   1  UNL1       -0.2166
     27 H         -10.4891  -14.6726   24.0978 H       1  UNL1        0.1734
     28 S         -10.7342  -16.7875   23.6937 S.O2    1  UNL1        0.0540
     29 O         -11.4560  -15.9920   22.6468 O.2     1  UNL1       -0.1545
     30 O         -10.0124  -17.5829   24.7407 O.2     1  UNL1       -0.1545
     31 C         -11.4338  -18.0311   23.2314 C.3     1  UNL1        0.1724
     32 C         -13.8685  -18.0287   24.1384 C.3     1  UNL1        0.0019
     33 C         -12.9129  -18.0110   22.9823 C.3     1  UNL1        0.0273
@<TRIPOS>BOND
     1    32    33    1
     2    33    31    1
     3    31    28    1
     4    28    29    2
     5    28    30    2
     6    28    26    1
     7    26    18    1
     8    18    19   ar
     9    19    20   ar
    10    20    21   ar
    11    21    22    1
    12    21    23   ar
    13    23     1    1
    14     1     2    2
    15     1     3    1
    16     3     4   ar
    17     4     5   ar
    18     5     6   ar
    19     6     7   ar
    20     7     8   ar
    21     8     9   ar
    22     9    13    1
    23    13    14    2
    24    14    15    1
    25    15    16    2
    26    16    17    1
    27     9    10   ar
    28    10    11   ar
    29    23    24   ar
    30    24    25    1
    31    24    18   ar
    32    11     3   ar
    33    11     6    1
    34    17    13    1
    35    26    27    1
    36     7    12    1
@<TRIPOS>MOLECULE
*****
 33 36 0 0 0
SMALL
GASTEIGER

@<TRIPOS>ATOM
      1 C         -10.0289  -18.0660   20.6001 C.2     1  UNL1        0.2015
      2 O         -10.7490  -17.0353   19.7823 O.2     1  UNL1       -0.2864
      3 C          -9.3239  -19.2031   19.9219 C.ar    1  UNL1        0.0611
      4 C          -9.9377  -20.1676   18.9509 C.ar    1  UNL1        0.1037
      5 N          -8.8744  -21.1359   18.5246 N.ar    1  UNL1       -0.2269
      6 C          -7.6034  -20.7699   19.2321 C.ar    1  UNL1        0.1407
      7 N          -6.2290  -21.3699   19.2015 N.ar    1  UNL1       -0.3374
      8 C          -5.1325  -20.7754   20.0345 C.ar    1  UNL1        0.0732
      9 C          -5.4102  -19.5809   20.8982 C.ar    1  UNL1        0.0167
     10 C          -6.7846  -18.9808   20.9287 C.ar    1  UNL1        0.0044
     11 C          -7.8812  -19.5753   20.0957 C.ar    1  UNL1        0.0386
     12 H          -6.0467  -22.1540   18.6346 H       1  UNL1        0.1674
     13 C          -4.3135  -18.9864   21.7312 C.2     1  UNL1        0.0263
     14 C          -4.4957  -18.0682   22.9034 C.2     1  UNL1        0.1195
     15 N          -3.1370  -17.7200   23.4350 N.2     1  UNL1       -0.1510
     16 N          -2.1151  -18.4230   22.5914 N.2     1  UNL1       -0.1695
     17 C          -2.8423  -19.2057   21.5384 C.3     1  UNL1        0.1772
     18 C          -9.4919  -16.6041   24.2504 C.ar    1  UNL1        0.0920
     19 C          -9.9835  -17.7469   25.0886 C.ar    1  UNL1        0.0204
     20 C         -10.4901  -18.9960   24.4306 C.ar    1  UNL1        0.0312
     21 C         -10.5053  -19.1024   22.9345 C.ar    1  UNL1        0.1454
     22 F         -11.0119  -20.3516   22.2765 F       1  UNL1       -0.2040
     23 C         -10.0137  -17.9597   22.0964 C.ar    1  UNL1        0.0951
     24 C          -9.5071  -16.7105   22.7543 C.ar    1  UNL1        0.1598
     25 F          -9.0156  -15.5678   21.9161 F       1  UNL1       -0.2026
     26 N          -8.9853  -15.3549   24.9084 N.pl3   1  UNL1       -0.2166
     27 H          -9.4601  -14.5024   24.7778 H       1  UNL1        0.1734
     28 S          -7.7553  -15.4047   25.7654 S.O2    1  UNL1        0.0540
     29 O          -6.9104  -15.5999   24.5415 O.2     1  UNL1       -0.1545
     30 O          -8.6001  -15.2094   26.9894 O.2     1  UNL1       -0.1545
     31 C          -6.5253  -15.4544   26.6225 C.3     1  UNL1        0.1724
     32 C          -4.3624  -16.8872   26.4828 C.3     1  UNL1        0.0019
     33 C          -5.1886  -15.7318   26.0008 C.3     1  UNL1        0.0273
@<TRIPOS>BOND
     1    32    33    1
     2    33    31    1
     3    31    28    1
     4    28    29    2
     5    28    30    2
     6    28    26    1
     7    26    18    1
     8    18    19   ar
     9    19    20   ar
    10    20    21   ar
    11    21    22    1
    12    21    23   ar
    13    23     1    1
    14     1     2    2
    15     1     3    1
    16     3     4   ar
    17     4     5   ar
    18     5     6   ar
    19     6     7   ar
    20     7     8   ar
    21     8     9   ar
    22     9    13    1
    23    13    14    2
    24    14    15    1
    25    15    16    2
    26    16    17    1
    27     9    10   ar
    28    10    11   ar
    29    23    24   ar
    30    24    25    1
    31    24    18   ar
    32    11     3   ar
    33    11     6    1
    34    17    13    1
    35    26    27    1
    36     7    12    1
@<TRIPOS>MOLECULE
*****
 33 36 0 0 0
SMALL
GASTEIGER

@<TRIPOS>ATOM
      1 C          -8.0245  -16.1559   23.7450 C.2     1  UNL1        0.2015
      2 O          -8.5329  -15.8631   25.1254 O.2     1  UNL1       -0.2864
      3 C          -8.9070  -15.9207   22.5551 C.ar    1  UNL1        0.0611
      4 C          -8.4973  -15.2658   21.2693 C.ar    1  UNL1        0.1037
      5 N          -9.6913  -15.2394   20.3616 N.ar    1  UNL1       -0.2269
      6 C         -10.8388  -15.8780   21.0865 C.ar    1  UNL1        0.1407
      7 N         -12.2625  -16.1304   20.6872 N.ar    1  UNL1       -0.3374
      8 C         -13.2014  -16.8039   21.6436 C.ar    1  UNL1        0.0732
      9 C         -12.7167  -17.2250   22.9993 C.ar    1  UNL1        0.0167
     10 C         -11.2931  -16.9725   23.3985 C.ar    1  UNL1        0.0044
     11 C         -10.3541  -16.2990   22.4421 C.ar    1  UNL1        0.0386
     12 H         -12.5806  -15.8541   19.7975 H       1  UNL1        0.1674
     13 C         -13.6557  -17.8985   23.9557 C.2     1  UNL1        0.0263
     14 C         -13.3297  -18.3297   25.3549 C.2     1  UNL1        0.1195
     15 N         -14.5581  -18.9568   25.9448 N.2     1  UNL1       -0.1510
     16 N         -15.6433  -18.9131   24.9101 N.2     1  UNL1       -0.1695
     17 C         -15.0856  -18.2590   23.6808 C.3     1  UNL1        0.1772
     18 C          -5.0054  -18.3970   22.4751 C.ar    1  UNL1        0.0920
     19 C          -3.8516  -17.7402   23.1732 C.ar    1  UNL1        0.0204
     20 C          -4.0888  -16.5553   24.0619 C.ar    1  UNL1        0.0312
     21 C          -5.4797  -16.0272   24.2526 C.ar    1  UNL1        0.1454
     22 F          -5.7169  -14.8423   25.1413 F       1  UNL1       -0.2040
     23 C          -6.6335  -16.6840   23.5544 C.ar    1  UNL1        0.0951
     24 C          -6.3963  -17.8689   22.6657 C.ar    1  UNL1        0.1598
     25 F          -7.5501  -18.5256   21.9676 F       1  UNL1       -0.2026
     26 N          -4.7682  -19.5819   21.5864 N.pl3   1  UNL1       -0.2166
     27 H          -5.2280  -20.4332   21.7679 H       1  UNL1        0.1734
     28 S          -3.8304  -19.4695   20.4211 S.O2    1  UNL1        0.0540
     29 O          -2.8442  -20.3499   21.1299 O.2     1  UNL1       -0.1545
     30 O          -4.8165  -18.5891   19.7123 O.2     1  UNL1       -0.1545
     31 C          -2.8926  -19.3572   19.2558 C.3     1  UNL1        0.1724
     32 C          -1.3047  -17.4221   19.9517 C.3     1  UNL1        0.0019
     33 C          -2.2301  -18.0466   18.9499 C.3     1  UNL1        0.0273
@<TRIPOS>BOND
     1    32    33    1
     2    33    31    1
     3    31    28    1
     4    28    29    2
     5    28    30    2
     6    28    26    1
     7    26    18    1
     8    18    19   ar
     9    19    20   ar
    10    20    21   ar
    11    21    22    1
    12    21    23   ar
    13    23     1    1
    14     1     2    2
    15     1     3    1
    16     3     4   ar
    17     4     5   ar
    18     5     6   ar
    19     6     7   ar
    20     7     8   ar
    21     8     9   ar
    22     9    13    1
    23    13    14    2
    24    14    15    1
    25    15    16    2
    26    16    17    1
    27     9    10   ar
    28    10    11   ar
    29    23    24   ar
    30    24    25    1
    31    24    18   ar
    32    11     3   ar
    33    11     6    1
    34    17    13    1
    35    26    27    1
    36     7    12    1
@<TRIPOS>MOLECULE
*****
 33 36 0 0 0
SMALL
GASTEIGER

@<TRIPOS>ATOM
      1 C          -8.7320  -16.0481   24.6520 C.2     1  UNL1        0.2015
      2 O          -9.6736  -14.8980   24.8525 O.2     1  UNL1       -0.2864
      3 C          -7.2507  -15.8289   24.7399 C.ar    1  UNL1        0.0611
      4 C          -6.5604  -14.7987   25.5838 C.ar    1  UNL1        0.1037
      5 N          -5.0827  -14.9345   25.3648 N.ar    1  UNL1       -0.2269
      6 C          -4.8597  -16.0486   24.3855 C.ar    1  UNL1        0.1407
      7 N          -3.6097  -16.6312   23.7956 N.ar    1  UNL1       -0.3374
      8 C          -3.6996  -17.7666   22.8195 C.ar    1  UNL1        0.0732
      9 C          -5.0395  -18.3193   22.4333 C.ar    1  UNL1        0.0167
     10 C          -6.2895  -17.7368   23.0232 C.ar    1  UNL1        0.0044
     11 C          -6.1996  -16.6014   23.9993 C.ar    1  UNL1        0.0386
     12 H          -2.7303  -16.2684   24.0491 H       1  UNL1        0.1674
     13 C          -5.1293  -19.4548   21.4571 C.2     1  UNL1        0.0263
     14 C          -6.3480  -20.2838   21.1787 C.2     1  UNL1        0.1195
     15 N          -5.9882  -21.3018   20.1375 N.2     1  UNL1       -0.1510
     16 N          -4.5470  -21.1020   19.7725 N.2     1  UNL1       -0.1695
     17 C          -4.0162  -19.9605   20.5881 C.3     1  UNL1        0.1772
     18 C         -10.0718  -19.2077   22.6590 C.ar    1  UNL1        0.0920
     19 C         -10.3509  -20.1567   23.7866 C.ar    1  UNL1        0.0204
     20 C         -10.0904  -19.7362   25.2027 C.ar    1  UNL1        0.0312
     21 C          -9.5507  -18.3667   25.4912 C.ar    1  UNL1        0.1454
     22 F          -9.2901  -17.9461   26.9073 F       1  UNL1       -0.2040
     23 C          -9.2716  -17.4177   24.3635 C.ar    1  UNL1        0.0951
     24 C          -9.5322  -17.8383   22.9475 C.ar    1  UNL1        0.1598
     25 F          -9.2531  -16.8892   21.8199 F       1  UNL1       -0.2026
     26 N         -10.3324  -19.6283   21.2429 N.pl3   1  UNL1       -0.2166
     27 H         -10.1508  -20.5546   20.9632 H       1  UNL1        0.1734
     28 S         -10.8696  -18.6375   20.2531 S.O2    1  UNL1        0.0540
     29 O          -9.6154  -18.7687   19.4410 O.2     1  UNL1       -0.1545
     30 O         -12.1239  -18.5063   21.0652 O.2     1  UNL1       -0.1545
     31 C         -11.4069  -17.6468   19.2634 C.3     1  UNL1        0.1724
     32 C         -10.9948  -15.1012   18.9460 C.3     1  UNL1        0.0019
     33 C         -11.6565  -16.2282   19.6822 C.3     1  UNL1        0.0273
@<TRIPOS>BOND
     1    32    33    1
     2    33    31    1
     3    31    28    1
     4    28    29    2
     5    28    30    2
     6    28    26    1
     7    26    18    1
     8    18    19   ar
     9    19    20   ar
    10    20    21   ar
    11    21    22    1
    12    21    23   ar
    13    23     1    1
    14     1     2    2
    15     1     3    1
    16     3     4   ar
    17     4     5   ar
    18     5     6   ar
    19     6     7   ar
    20     7     8   ar
    21     8     9   ar
    22     9    13    1
    23    13    14    2
    24    14    15    1
    25    15    16    2
    26    16    17    1
    27     9    10   ar
    28    10    11   ar
    29    23    24   ar
    30    24    25    1
    31    24    18   ar
    32    11     3   ar
    33    11     6    1
    34    17    13    1
    35    26    27    1
    36     7    12    1
@<TRIPOS>MOLECULE
*****
 33 36 0 0 0
SMALL
GASTEIGER

@<TRIPOS>ATOM
      1 C          -9.0577  -15.9424   24.4708 C.2     1  UNL1        0.2015
      2 O          -9.9891  -14.7776   24.6297 O.2     1  UNL1       -0.2864
      3 C          -7.5840  -15.7585   24.6814 C.ar    1  UNL1        0.0611
      4 C          -6.9420  -14.7529   25.5906 C.ar    1  UNL1        0.1037
      5 N          -5.4547  -14.9209   25.4908 N.ar    1  UNL1       -0.2269
      6 C          -5.1776  -16.0303   24.5201 C.ar    1  UNL1        0.1407
      7 N          -3.8970  -16.6360   24.0270 N.ar    1  UNL1       -0.3374
      8 C          -3.9323  -17.7594   23.0337 C.ar    1  UNL1        0.0732
      9 C          -5.2483  -18.2771   22.5334 C.ar    1  UNL1        0.0167
     10 C          -6.5289  -17.6714   23.0265 C.ar    1  UNL1        0.0044
     11 C          -6.4935  -16.5480   24.0198 C.ar    1  UNL1        0.0386
     12 H          -3.0333  -16.2962   24.3554 H       1  UNL1        0.1674
     13 C          -5.2836  -19.4005   21.5401 C.2     1  UNL1        0.0263
     14 C          -4.2062  -19.7385   20.5527 C.2     1  UNL1        0.1195
     15 N          -4.6591  -20.9300   19.7621 N.2     1  UNL1       -0.1510
     16 N          -6.0166  -21.3285   20.2609 N.2     1  UNL1       -0.1695
     17 C          -6.4025  -20.3832   21.3597 C.3     1  UNL1        0.1772
     18 C         -10.6241  -18.8977   22.3347 C.ar    1  UNL1        0.0920
     19 C         -10.6845  -19.9890   23.3622 C.ar    1  UNL1        0.0204
     20 C         -10.2026  -19.7314   24.7591 C.ar    1  UNL1        0.0312
     21 C          -9.6603  -18.3826   25.1287 C.ar    1  UNL1        0.1454
     22 F          -9.1784  -18.1250   26.5256 F       1  UNL1       -0.2040
     23 C          -9.6000  -17.2914   24.1013 C.ar    1  UNL1        0.0951
     24 C         -10.0819  -17.5490   22.7043 C.ar    1  UNL1        0.1598
     25 F         -10.0215  -16.4576   21.6770 F       1  UNL1       -0.2026
     26 N         -11.1060  -19.1554   20.9378 N.pl3   1  UNL1       -0.2166
     27 H         -12.0714  -19.1724   20.7454 H       1  UNL1        0.1734
     28 S         -10.1171  -19.3870   19.8341 S.O2    1  UNL1        0.0540
     29 O          -9.9311  -20.8014   20.2975 O.2     1  UNL1       -0.1545
     30 O         -10.3030  -17.9726   19.3706 O.2     1  UNL1       -0.1545
     31 C          -9.1281  -19.6185   18.7303 C.3     1  UNL1        0.1724
     32 C          -9.2697  -21.3336   16.7838 C.3     1  UNL1        0.0019
     33 C          -8.9056  -21.0044   18.2012 C.3     1  UNL1        0.0273
@<TRIPOS>BOND
     1    32    33    1
     2    33    31    1
     3    31    28    1
     4    28    29    2
     5    28    30    2
     6    28    26    1
     7    26    18    1
     8    18    19   ar
     9    19    20   ar
    10    20    21   ar
    11    21    22    1
    12    21    23   ar
    13    23     1    1
    14     1     2    2
    15     1     3    1
    16     3     4   ar
    17     4     5   ar
    18     5     6   ar
    19     6     7   ar
    20     7     8   ar
    21     8     9   ar
    22     9    13    1
    23    13    14    2
    24    14    15    1
    25    15    16    2
    26    16    17    1
    27     9    10   ar
    28    10    11   ar
    29    23    24   ar
    30    24    25    1
    31    24    18   ar
    32    11     3   ar
    33    11     6    1
    34    17    13    1
    35    26    27    1
    36     7    12    1
@<TRIPOS>MOLECULE
*****
 33 36 0 0 0
SMALL
GASTEIGER

@<TRIPOS>ATOM
      1 C          -7.9164  -16.7479   23.3306 C.2     1  UNL1        0.2015
      2 O          -8.0502  -16.2884   24.7521 O.2     1  UNL1       -0.2864
      3 C          -8.8879  -16.2690   22.2928 C.ar    1  UNL1        0.0611
      4 C          -8.5446  -15.4985   21.0525 C.ar    1  UNL1        0.1037
      5 N          -9.8178  -15.2299   20.3064 N.ar    1  UNL1       -0.2269
      6 C         -10.9481  -15.8344   21.0856 C.ar    1  UNL1        0.1407
      7 N         -12.4263  -15.8831   20.8359 N.ar    1  UNL1       -0.3374
      8 C         -13.3298  -16.5739   21.8138 C.ar    1  UNL1        0.0732
      9 C         -12.7550  -17.2161   23.0415 C.ar    1  UNL1        0.0167
     10 C         -11.2768  -17.1675   23.2912 C.ar    1  UNL1        0.0044
     11 C         -10.3733  -16.4766   22.3133 C.ar    1  UNL1        0.0386
     12 H         -12.8035  -15.4616   20.0301 H       1  UNL1        0.1674
     13 C         -13.6586  -17.9070   24.0194 C.2     1  UNL1        0.0263
     14 C         -15.0880  -18.2930   23.7785 C.2     1  UNL1        0.1195
     15 N         -15.6042  -18.9577   25.0201 N.2     1  UNL1       -0.1510
     16 N         -14.4939  -18.9826   26.0284 N.2     1  UNL1       -0.1695
     17 C         -13.2915  -18.3333   25.4099 C.3     1  UNL1        0.1772
     18 C          -4.2746  -18.2069   22.7315 C.ar    1  UNL1        0.0920
     19 C          -4.5998  -19.5630   22.1789 C.ar    1  UNL1        0.0204
     20 C          -6.0306  -19.9806   22.0102 C.ar    1  UNL1        0.0312
     21 C          -7.1361  -19.0423   22.3941 C.ar    1  UNL1        0.1454
     22 F          -8.5669  -19.4600   22.2254 F       1  UNL1       -0.2040
     23 C          -6.8108  -17.6863   22.9466 C.ar    1  UNL1        0.0951
     24 C          -5.3801  -17.2686   23.1153 C.ar    1  UNL1        0.1598
     25 F          -5.0548  -15.9125   23.6679 F       1  UNL1       -0.2026
     26 N          -2.8438  -17.7893   22.9002 N.pl3   1  UNL1       -0.2166
     27 H          -2.4804  -17.6302   23.8012 H       1  UNL1        0.1734
     28 S          -1.9668  -17.6139   21.6960 S.O2    1  UNL1        0.0540
     29 O          -2.5642  -16.2587   21.4583 O.2     1  UNL1       -0.1545
     30 O          -1.3694  -18.9691   21.9337 O.2     1  UNL1       -0.1545
     31 C          -1.0897  -17.4386   20.4919 C.3     1  UNL1        0.1724
     32 C          -2.8716  -18.6140   19.0109 C.3     1  UNL1        0.0019
     33 C          -1.5792  -17.8636   19.1391 C.3     1  UNL1        0.0273
@<TRIPOS>BOND
     1    32    33    1
     2    33    31    1
     3    31    28    1
     4    28    29    2
     5    28    30    2
     6    28    26    1
     7    26    18    1
     8    18    19   ar
     9    19    20   ar
    10    20    21   ar
    11    21    22    1
    12    21    23   ar
    13    23     1    1
    14     1     2    2
    15     1     3    1
    16     3     4   ar
    17     4     5   ar
    18     5     6   ar
    19     6     7   ar
    20     7     8   ar
    21     8     9   ar
    22     9    13    1
    23    13    14    2
    24    14    15    1
    25    15    16    2
    26    16    17    1
    27     9    10   ar
    28    10    11   ar
    29    23    24   ar
    30    24    25    1
    31    24    18   ar
    32    11     3   ar
    33    11     6    1
    34    17    13    1
    35    26    27    1
    36     7    12    1
@<TRIPOS>MOLECULE
*****
 33 36 0 0 0
SMALL
GASTEIGER

@<TRIPOS>ATOM
      1 C           4.6267   -3.7429   21.0166 C.2     1  UNL1        0.2015
      2 O           3.9312   -5.0447   20.7496 O.2     1  UNL1       -0.2864
      3 C           5.0225   -3.3772   22.4165 C.ar    1  UNL1        0.0611
      4 C           6.1017   -4.0317   23.2270 C.ar    1  UNL1        0.1037
      5 N           6.1547   -3.3518   24.5630 N.ar    1  UNL1       -0.2269
      6 C           5.1083   -2.2772   24.5782 C.ar    1  UNL1        0.1407
      7 N           4.7023   -1.2864   25.6286 N.ar    1  UNL1       -0.3374
      8 C           3.5965   -0.3113   25.3524 C.ar    1  UNL1        0.0732
      9 C           2.8967   -0.3270   24.0257 C.ar    1  UNL1        0.0167
     10 C           3.3028   -1.3178   22.9753 C.ar    1  UNL1        0.0044
     11 C           4.4085   -2.2929   23.2515 C.ar    1  UNL1        0.0386
     12 H           5.1616   -1.2761   26.4994 H       1  UNL1        0.1674
     13 C           1.7909    0.6481   23.7495 C.2     1  UNL1        0.0263
     14 C           1.0253    1.4274   24.7774 C.2     1  UNL1        0.1195
     15 N           0.0178    2.2761   24.0602 N.2     1  UNL1       -0.1510
     16 N           0.1606    2.0213   22.5888 N.2     1  UNL1       -0.1695
     17 C           1.2564    1.0152   22.3968 C.3     1  UNL1        0.1772
     18 C           4.1279   -1.0432   18.1507 C.ar    1  UNL1        0.0920
     19 C           5.5258   -0.9340   17.6177 C.ar    1  UNL1        0.0204
     20 C           6.6239   -1.7610   18.2177 C.ar    1  UNL1        0.0312
     21 C           6.3243   -2.6973   19.3507 C.ar    1  UNL1        0.1454
     22 F           7.4224   -3.5244   19.9507 F       1  UNL1       -0.2040
     23 C           4.9264   -2.8065   19.8836 C.ar    1  UNL1        0.0951
     24 C           3.8282   -1.9795   19.2836 C.ar    1  UNL1        0.1598
     25 F           2.4304   -2.0888   19.8166 F       1  UNL1       -0.2026
     26 N           3.0297   -0.2161   17.5507 N.pl3   1  UNL1       -0.2166
     27 H           2.6730   -0.4422   16.6613 H       1  UNL1        0.1734
     28 S           2.4750    0.9553   18.3057 S.O2    1  UNL1        0.0540
     29 O           1.1040    0.3507   18.2364 O.2     1  UNL1       -0.1545
     30 O           3.8460    1.5598   18.3750 O.2     1  UNL1       -0.1545
     31 C           1.9204    2.1267   19.0607 C.3     1  UNL1        0.1724
     32 C           0.1950    3.7568   18.0042 C.3     1  UNL1        0.0019
     33 C           0.4983    2.5525   18.8454 C.3     1  UNL1        0.0273
@<TRIPOS>BOND
     1    32    33    1
     2    33    31    1
     3    31    28    1
     4    28    29    2
     5    28    30    2
     6    28    26    1
     7    26    18    1
     8    18    19   ar
     9    19    20   ar
    10    20    21   ar
    11    21    22    1
    12    21    23   ar
    13    23     1    1
    14     1     2    2
    15     1     3    1
    16     3     4   ar
    17     4     5   ar
    18     5     6   ar
    19     6     7   ar
    20     7     8   ar
    21     8     9   ar
    22     9    13    1
    23    13    14    2
    24    14    15    1
    25    15    16    2
    26    16    17    1
    27     9    10   ar
    28    10    11   ar
    29    23    24   ar
    30    24    25    1
    31    24    18   ar
    32    11     3   ar
    33    11     6    1
    34    17    13    1
    35    26    27    1
    36     7    12    1
@<TRIPOS>MOLECULE
*****
 33 36 0 0 0
SMALL
GASTEIGER

@<TRIPOS>ATOM
      1 C          -1.8824    4.5153   25.0380 C.2     1  UNL1        0.2015
      2 O          -1.2631    5.8418   25.3645 O.2     1  UNL1       -0.2864
      3 C          -3.3751    4.3676   25.0235 C.ar    1  UNL1        0.0611
      4 C          -4.2737    4.3773   26.2245 C.ar    1  UNL1        0.1037
      5 N          -5.6851    4.2000   25.7487 N.ar    1  UNL1       -0.2269
      6 C          -5.6589    4.0806   24.2537 C.ar    1  UNL1        0.1407
      7 N          -6.7505    3.8910   23.2426 N.ar    1  UNL1       -0.3374
      8 C          -6.4144    3.8050   21.7833 C.ar    1  UNL1        0.0732
      9 C          -4.9867    3.9086   21.3351 C.ar    1  UNL1        0.0167
     10 C          -3.8950    4.0982   22.3462 C.ar    1  UNL1        0.0044
     11 C          -4.2311    4.1842   23.8055 C.ar    1  UNL1        0.0386
     12 H          -7.6875    3.8230   23.5368 H       1  UNL1        0.1674
     13 C          -4.6506    3.8226   19.8757 C.2     1  UNL1        0.0263
     14 C          -5.5926    3.4322   18.7756 C.2     1  UNL1        0.1195
     15 N          -4.8378    3.4801   17.4802 N.2     1  UNL1       -0.1510
     16 N          -3.4293    3.9002   17.7798 N.2     1  UNL1       -0.1695
     17 C          -3.3136    4.1118   19.2603 C.3     1  UNL1        0.1772
     18 C           0.5256    2.0483   23.0717 C.ar    1  UNL1        0.0920
     19 C           0.7377    0.9786   24.1016 C.ar    1  UNL1        0.0204
     20 C           0.0764    1.0877   25.4435 C.ar    1  UNL1        0.0312
     21 C          -0.7969    2.2665   25.7557 C.ar    1  UNL1        0.1454
     22 F          -1.4582    2.3757   27.0976 F       1  UNL1       -0.2040
     23 C          -1.0090    3.3363   24.7258 C.ar    1  UNL1        0.0951
     24 C          -0.3478    3.2272   23.3839 C.ar    1  UNL1        0.1598
     25 F          -0.5599    4.2971   22.3541 F       1  UNL1       -0.2026
     26 N           1.1868    1.9392   21.7298 N.pl3   1  UNL1       -0.2166
     27 H           1.5338    2.7460   21.2849 H       1  UNL1        0.1734
     28 S           1.3195    0.6008   21.0657 S.O2    1  UNL1        0.0540
     29 O           2.7801    0.5766   21.4064 O.2     1  UNL1       -0.1545
     30 O          -0.1411    0.6251   20.7250 O.2     1  UNL1       -0.1545
     31 C           1.4521   -0.7376   20.4016 C.3     1  UNL1        0.1724
     32 C           3.2286   -2.5040   19.7129 C.3     1  UNL1        0.0019
     33 C           2.7173   -1.0943   19.6790 C.3     1  UNL1        0.0273
@<TRIPOS>BOND
     1    32    33    1
     2    33    31    1
     3    31    28    1
     4    28    29    2
     5    28    30    2
     6    28    26    1
     7    26    18    1
     8    18    19   ar
     9    19    20   ar
    10    20    21   ar
    11    21    22    1
    12    21    23   ar
    13    23     1    1
    14     1     2    2
    15     1     3    1
    16     3     4   ar
    17     4     5   ar
    18     5     6   ar
    19     6     7   ar
    20     7     8   ar
    21     8     9   ar
    22     9    13    1
    23    13    14    2
    24    14    15    1
    25    15    16    2
    26    16    17    1
    27     9    10   ar
    28    10    11   ar
    29    23    24   ar
    30    24    25    1
    31    24    18   ar
    32    11     3   ar
    33    11     6    1
    34    17    13    1
    35    26    27    1
    36     7    12    1
