@<TRIPOS>MOLECULE
*****
 17 18 0 0 0
SMALL
GASTEIGER

@<TRIPOS>ATOM
      1 C          -8.1463  -17.5461   22.8232 C.2     1  UNL1        0.0436
      2 C          -8.4332  -16.2247   23.4722 C.2     1  UNL1        0.0056
      3 C          -7.7923  -15.8782   24.7835 C.ar    1  UNL1        0.0276
      4 C          -8.6108  -15.8740   26.0404 C.ar    1  UNL1        0.0022
      5 C          -7.9699  -15.5276   27.3516 C.ar    1  UNL1        0.0001
      6 C          -6.5105  -15.1854   27.4058 C.ar    1  UNL1        0.0023
      7 C          -5.6920  -15.1896   26.1488 C.ar    1  UNL1        0.0296
      8 C          -6.3329  -15.5360   24.8377 C.ar    1  UNL1        0.1401
      9 F          -5.5144  -15.5402   23.5806 F       1  UNL1       -0.2042
     10 O          -7.9955  -18.6039   20.4549 O.2     1  UNL1       -0.2850
     11 C          -8.7873  -17.8926   21.5119 C.2     1  UNL1        0.2111
     12 C         -10.2198  -17.5277   21.2577 C.ar    1  UNL1        0.0961
     13 C         -11.4215  -18.2494   21.7915 C.ar    1  UNL1        0.0218
     14 C         -12.6466  -17.5448   21.2888 C.ar    1  UNL1        0.0200
     15 C         -12.2020  -16.3876   20.4443 C.ar    1  UNL1        0.0725
     16 N         -10.7022  -16.3770   20.4251 N.ar    1  UNL1       -0.3495
     17 H         -10.1341  -15.7287   19.9495 H       1  UNL1        0.1661
@<TRIPOS>BOND
     1    10    11    2
     2    11     1    1
     3     1     2    2
     4     2     3    1
     5     3     4   ar
     6     4     5   ar
     7     5     6   ar
     8     6     7   ar
     9     7     8   ar
    10     8     9    1
    11    11    12    1
    12    12    13   ar
    13    13    14   ar
    14    14    15   ar
    15    15    16   ar
    16     8     3   ar
    17    16    12   ar
    18    16    17    1
@<TRIPOS>MOLECULE
*****
 17 18 0 0 0
SMALL
GASTEIGER

@<TRIPOS>ATOM
      1 C         -10.1824  -17.8428   24.4507 C.2     1  UNL1        0.0436
      2 C          -9.5070  -16.5230   24.2231 C.2     1  UNL1        0.0056
      3 C          -8.3466  -16.1163   25.0823 C.ar    1  UNL1        0.0276
      4 C          -8.4389  -16.2385   26.5744 C.ar    1  UNL1        0.0022
      5 C          -7.2786  -15.8318   27.4335 C.ar    1  UNL1        0.0001
      6 C          -6.0258  -15.3028   26.8004 C.ar    1  UNL1        0.0023
      7 C          -5.9334  -15.1806   25.3083 C.ar    1  UNL1        0.0296
      8 C          -7.0938  -15.5873   24.4492 C.ar    1  UNL1        0.1401
      9 F          -7.0014  -15.4651   22.9570 F       1  UNL1       -0.2042
     10 O         -12.6958  -18.4539   24.2062 O.2     1  UNL1       -0.2850
     11 C         -11.3428  -18.2496   23.5916 C.2     1  UNL1        0.2111
     12 C         -11.1503  -18.4520   22.1179 C.ar    1  UNL1        0.0961
     13 C         -10.7635  -19.7369   21.4475 C.ar    1  UNL1        0.0218
     14 C         -10.6849  -19.4841   19.9711 C.ar    1  UNL1        0.0200
     15 C         -11.0230  -18.0428   19.7289 C.ar    1  UNL1        0.0725
     16 N         -11.3106  -17.4050   21.0557 N.ar    1  UNL1       -0.3495
     17 H         -11.5607  -16.4643   21.2035 H       1  UNL1        0.1661
@<TRIPOS>BOND
     1    10    11    2
     2    11     1    1
     3     1     2    2
     4     2     3    1
     5     3     4   ar
     6     4     5   ar
     7     5     6   ar
     8     6     7   ar
     9     7     8   ar
    10     8     9    1
    11    11    12    1
    12    12    13   ar
    13    13    14   ar
    14    14    15   ar
    15    15    16   ar
    16     8     3   ar
    17    16    12   ar
    18    16    17    1
@<TRIPOS>MOLECULE
*****
 17 18 0 0 0
SMALL
GASTEIGER

@<TRIPOS>ATOM
      1 C          -4.3430  -17.0260   23.5107 C.2     1  UNL1        0.0436
      2 C          -5.0149  -15.7115   23.7767 C.2     1  UNL1        0.0056
      3 C          -6.0545  -15.6048   24.8527 C.ar    1  UNL1        0.0276
      4 C          -5.6382  -15.4927   26.2894 C.ar    1  UNL1        0.0022
      5 C          -6.6778  -15.3859   27.3654 C.ar    1  UNL1        0.0001
      6 C          -8.1338  -15.3913   27.0046 C.ar    1  UNL1        0.0023
      7 C          -8.5501  -15.5033   25.5680 C.ar    1  UNL1        0.0296
      8 C          -7.5105  -15.6101   24.4920 C.ar    1  UNL1        0.1401
      9 F          -7.9268  -15.7222   23.0553 F       1  UNL1       -0.2042
     10 O          -2.1885  -16.1315   22.3670 O.2     1  UNL1       -0.2850
     11 C          -3.3033  -17.1327   22.4347 C.2     1  UNL1        0.2111
     12 C          -3.3785  -18.2407   21.4264 C.ar    1  UNL1        0.0961
     13 C          -3.4647  -19.7067   21.7322 C.ar    1  UNL1        0.0218
     14 C          -3.5202  -20.4493   20.4302 C.ar    1  UNL1        0.0200
     15 C          -3.4684  -19.4423   19.3196 C.ar    1  UNL1        0.0725
     16 N          -3.3808  -18.0774   19.9353 N.ar    1  UNL1       -0.3495
     17 H          -3.3332  -17.2240   19.4467 H       1  UNL1        0.1661
@<TRIPOS>BOND
     1    10    11    2
     2    11     1    1
     3     1     2    2
     4     2     3    1
     5     3     4   ar
     6     4     5   ar
     7     5     6   ar
     8     6     7   ar
     9     7     8   ar
    10     8     9    1
    11    11    12    1
    12    12    13   ar
    13    13    14   ar
    14    14    15   ar
    15    15    16   ar
    16     8     3   ar
    17    16    12   ar
    18    16    17    1
@<TRIPOS>MOLECULE
*****
 17 18 0 0 0
SMALL
GASTEIGER

@<TRIPOS>ATOM
      1 C          -7.8880  -18.6225   22.5131 C.2     1  UNL1        0.0436
      2 C          -7.1799  -19.9040   22.1870 C.2     1  UNL1        0.0056
      3 C          -5.7612  -19.8742   21.7006 C.ar    1  UNL1        0.0276
      4 C          -4.7291  -19.0815   22.4464 C.ar    1  UNL1        0.0022
      5 C          -3.3105  -19.0518   21.9599 C.ar    1  UNL1        0.0001
      6 C          -2.9241  -19.8147   20.7276 C.ar    1  UNL1        0.0023
      7 C          -3.9562  -20.6074   19.9817 C.ar    1  UNL1        0.0296
      8 C          -5.3748  -20.6371   20.4682 C.ar    1  UNL1        0.1401
      9 F          -6.4070  -21.4298   19.7224 F       1  UNL1       -0.2042
     10 O          -9.6253  -19.2279   24.3476 O.2     1  UNL1       -0.2850
     11 C          -9.3066  -18.6522   22.9996 C.2     1  UNL1        0.2111
     12 C         -10.4065  -18.1063   22.1381 C.ar    1  UNL1        0.0961
     13 C         -11.8752  -18.1737   22.4354 C.ar    1  UNL1        0.0218
     14 C         -12.6072  -17.5062   21.3092 C.ar    1  UNL1        0.0200
     15 C         -11.5910  -17.0262   20.3157 C.ar    1  UNL1        0.0725
     16 N         -10.2309  -17.3971   20.8281 N.ar    1  UNL1       -0.3495
     17 H          -9.3734  -17.2083   20.3827 H       1  UNL1        0.1661
@<TRIPOS>BOND
     1    10    11    2
     2    11     1    1
     3     1     2    2
     4     2     3    1
     5     3     4   ar
     6     4     5   ar
     7     5     6   ar
     8     6     7   ar
     9     7     8   ar
    10     8     9    1
    11    11    12    1
    12    12    13   ar
    13    13    14   ar
    14    14    15   ar
    15    15    16   ar
    16     8     3   ar
    17    16    12   ar
    18    16    17    1
@<TRIPOS>MOLECULE
*****
 17 18 0 0 0
SMALL
GASTEIGER

@<TRIPOS>ATOM
      1 C          -9.3075  -18.1009   23.7159 C.2     1  UNL1        0.0436
      2 C          -9.4088  -16.8022   24.4596 C.2     1  UNL1        0.0056
      3 C          -8.1979  -16.2271   25.1329 C.ar    1  UNL1        0.0276
      4 C          -8.1770  -16.0597   26.6233 C.ar    1  UNL1        0.0022
      5 C          -6.9662  -15.4846   27.2965 C.ar    1  UNL1        0.0001
      6 C          -5.7763  -15.0769   26.4792 C.ar    1  UNL1        0.0023
      7 C          -5.7973  -15.2442   24.9887 C.ar    1  UNL1        0.0296
      8 C          -7.0081  -15.8193   24.3156 C.ar    1  UNL1        0.1401
      9 F          -7.0291  -15.9867   22.8250 F       1  UNL1       -0.2042
     10 O         -10.3739  -19.4228   21.7499 O.2     1  UNL1       -0.2850
     11 C         -10.5184  -18.6760   23.0427 C.2     1  UNL1        0.2111
     12 C         -11.8736  -18.5043   23.6623 C.ar    1  UNL1        0.0961
     13 C         -13.0682  -17.8749   23.0093 C.ar    1  UNL1        0.0218
     14 C         -14.2050  -17.9134   23.9871 C.ar    1  UNL1        0.0200
     15 C         -13.7130  -18.5668   25.2445 C.ar    1  UNL1        0.0725
     16 N         -12.2720  -18.9320   25.0437 N.ar    1  UNL1       -0.3495
     17 H         -11.6900  -19.3746   25.7029 H       1  UNL1        0.1661
@<TRIPOS>BOND
     1    10    11    2
     2    11     1    1
     3     1     2    2
     4     2     3    1
     5     3     4   ar
     6     4     5   ar
     7     5     6   ar
     8     6     7   ar
     9     7     8   ar
    10     8     9    1
    11    11    12    1
    12    12    13   ar
    13    13    14   ar
    14    14    15   ar
    15    15    16   ar
    16     8     3   ar
    17    16    12   ar
    18    16    17    1
@<TRIPOS>MOLECULE
*****
 17 18 0 0 0
SMALL
GASTEIGER

@<TRIPOS>ATOM
      1 C          -7.6889  -15.9772   22.7528 C.2     1  UNL1        0.0436
      2 C          -8.0364  -17.4356   22.7987 C.2     1  UNL1        0.0056
      3 C          -9.0147  -18.0049   21.8143 C.ar    1  UNL1        0.0276
      4 C          -8.5425  -18.9476   20.7474 C.ar    1  UNL1        0.0022
      5 C          -9.5207  -19.5169   19.7630 C.ar    1  UNL1        0.0001
      6 C         -10.9711  -19.1434   19.8455 C.ar    1  UNL1        0.0023
      7 C         -11.4433  -18.2006   20.9124 C.ar    1  UNL1        0.0296
      8 C         -10.4651  -17.6314   21.8967 C.ar    1  UNL1        0.1401
      9 F         -10.9373  -16.6886   22.9637 F       1  UNL1       -0.2042
     10 O          -5.3868  -14.8861   23.2628 O.2     1  UNL1       -0.2850
     11 C          -6.7107  -15.4079   23.7373 C.2     1  UNL1        0.2111
     12 C          -7.0564  -15.3605   25.1961 C.ar    1  UNL1        0.0961
     13 C          -8.4143  -15.5950   25.7885 C.ar    1  UNL1        0.0218
     14 C          -8.3020  -15.4496   27.2772 C.ar    1  UNL1        0.0200
     15 C          -6.8746  -15.1252   27.6049 C.ar    1  UNL1        0.0725
     16 N          -6.1048  -15.0701   26.3187 N.ar    1  UNL1       -0.3495
     17 H          -5.1437  -14.8772   26.2274 H       1  UNL1        0.1661
@<TRIPOS>BOND
     1    10    11    2
     2    11     1    1
     3     1     2    2
     4     2     3    1
     5     3     4   ar
     6     4     5   ar
     7     5     6   ar
     8     6     7   ar
     9     7     8   ar
    10     8     9    1
    11    11    12    1
    12    12    13   ar
    13    13    14   ar
    14    14    15   ar
    15    15    16   ar
    16     8     3   ar
    17    16    12   ar
    18    16    17    1
@<TRIPOS>MOLECULE
*****
 17 18 0 0 0
SMALL
GASTEIGER

@<TRIPOS>ATOM
      1 C          -7.2188  -18.4477   21.4145 C.2     1  UNL1        0.0436
      2 C          -6.2449  -19.5288   21.7786 C.2     1  UNL1        0.0056
      3 C          -4.7777  -19.2243   21.8479 C.ar    1  UNL1        0.0276
      4 C          -4.2654  -18.2243   22.8417 C.ar    1  UNL1        0.0022
      5 C          -2.7983  -17.9199   22.9110 C.ar    1  UNL1        0.0001
      6 C          -1.8435  -18.6154   21.9866 C.ar    1  UNL1        0.0023
      7 C          -2.3558  -19.6153   20.9928 C.ar    1  UNL1        0.0296
      8 C          -3.8229  -19.9198   20.9235 C.ar    1  UNL1        0.1401
      9 F          -4.3353  -20.9197   19.9297 F       1  UNL1       -0.2042
     10 O          -9.3887  -18.7591   20.0199 O.2     1  UNL1       -0.2850
     11 C          -8.6860  -18.7521   21.3451 C.2     1  UNL1        0.2111
     12 C          -9.4504  -19.0496   22.6009 C.ar    1  UNL1        0.0961
     13 C          -9.2450  -20.2337   23.4986 C.ar    1  UNL1        0.0218
     14 C         -10.2221  -20.1311   24.6320 C.ar    1  UNL1        0.0200
     15 C         -11.0315  -18.8836   24.4349 C.ar    1  UNL1        0.0725
     16 N         -10.5545  -18.2153   23.1796 N.ar    1  UNL1       -0.3495
     17 H         -10.9047  -17.3763   22.8019 H       1  UNL1        0.1661
@<TRIPOS>BOND
     1    10    11    2
     2    11     1    1
     3     1     2    2
     4     2     3    1
     5     3     4   ar
     6     4     5   ar
     7     5     6   ar
     8     6     7   ar
     9     7     8   ar
    10     8     9    1
    11    11    12    1
    12    12    13   ar
    13    13    14   ar
    14    14    15   ar
    15    15    16   ar
    16     8     3   ar
    17    16    12   ar
    18    16    17    1
@<TRIPOS>MOLECULE
*****
 17 18 0 0 0
SMALL
GASTEIGER

@<TRIPOS>ATOM
      1 C          -5.7066  -19.4045   21.6668 C.2     1  UNL1        0.0436
      2 C          -6.8999  -18.5705   22.0280 C.2     1  UNL1        0.0056
      3 C          -8.2777  -19.0311   21.6543 C.ar    1  UNL1        0.0276
      4 C          -9.3151  -19.2340   22.7186 C.ar    1  UNL1        0.0022
      5 C         -10.6928  -19.6945   22.3448 C.ar    1  UNL1        0.0001
      6 C         -11.0332  -19.9522   20.9069 C.ar    1  UNL1        0.0023
      7 C          -9.9958  -19.7493   19.8426 C.ar    1  UNL1        0.0296
      8 C          -8.6181  -19.2888   20.2163 C.ar    1  UNL1        0.1401
      9 F          -7.5806  -19.0859   19.1521 F       1  UNL1       -0.2042
     10 O          -3.9583  -18.7818   23.4849 O.2     1  UNL1       -0.2850
     11 C          -4.3288  -18.9439   22.0405 C.2     1  UNL1        0.2111
     12 C          -3.3217  -18.6454   20.9698 C.ar    1  UNL1        0.0961
     13 C          -1.8318  -18.7540   21.1058 C.ar    1  UNL1        0.0218
     14 C          -1.2168  -18.3616   19.7951 C.ar    1  UNL1        0.0200
     15 C          -2.3267  -18.0106   18.8490 C.ar    1  UNL1        0.0725
     16 N          -3.6275  -18.1860   19.5750 N.ar    1  UNL1       -0.3495
     17 H          -4.5245  -18.0274   19.2016 H       1  UNL1        0.1661
@<TRIPOS>BOND
     1    10    11    2
     2    11     1    1
     3     1     2    2
     4     2     3    1
     5     3     4   ar
     6     4     5   ar
     7     5     6   ar
     8     6     7   ar
     9     7     8   ar
    10     8     9    1
    11    11    12    1
    12    12    13   ar
    13    13    14   ar
    14    14    15   ar
    15    15    16   ar
    16     8     3   ar
    17    16    12   ar
    18    16    17    1
@<TRIPOS>MOLECULE
*****
 17 18 0 0 0
SMALL
GASTEIGER

@<TRIPOS>ATOM
      1 C          -4.5354  -15.7014   23.4101 C.2     1  UNL1        0.0436
      2 C          -3.9956  -17.0964   23.2981 C.2     1  UNL1        0.0056
      3 C          -2.9435  -17.4138   22.2771 C.ar    1  UNL1        0.0276
      4 C          -2.0994  -16.3146   21.7033 C.ar    1  UNL1        0.0022
      5 C          -1.0474  -16.6320   20.6823 C.ar    1  UNL1        0.0001
      6 C          -0.8394  -18.0486   20.2352 C.ar    1  UNL1        0.0023
      7 C          -1.6834  -19.1478   20.8089 C.ar    1  UNL1        0.0296
      8 C          -2.7355  -18.8304   21.8299 C.ar    1  UNL1        0.1401
      9 F          -3.5796  -19.9296   22.4037 F       1  UNL1       -0.2042
     10 O          -5.2030  -14.7345   25.7274 O.2     1  UNL1       -0.2850
     11 C          -5.5875  -15.3841   24.4311 C.2     1  UNL1        0.2111
     12 C          -7.0241  -15.7163   24.1559 C.ar    1  UNL1        0.0961
     13 C          -8.1569  -15.6081   25.1332 C.ar    1  UNL1        0.0218
     14 C          -9.4130  -16.0400   24.4364 C.ar    1  UNL1        0.0200
     15 C          -9.0566  -16.4151   23.0284 C.ar    1  UNL1        0.0725
     16 N          -7.5801  -16.2151   22.8551 N.ar    1  UNL1       -0.3495
     17 H          -7.0662  -16.3818   22.0321 H       1  UNL1        0.1661
@<TRIPOS>BOND
     1    10    11    2
     2    11     1    1
     3     1     2    2
     4     2     3    1
     5     3     4   ar
     6     4     5   ar
     7     5     6   ar
     8     6     7   ar
     9     7     8   ar
    10     8     9    1
    11    11    12    1
    12    12    13   ar
    13    13    14   ar
    14    14    15   ar
    15    15    16   ar
    16     8     3   ar
    17    16    12   ar
    18    16    17    1
