@<TRIPOS>MOLECULE
*****
 27 30 0 0 0
SMALL
GASTEIGER

@<TRIPOS>ATOM
      1 C          -4.7422  -19.6472   21.2862 C.ar    1  UNL1        0.1422
      2 C          -3.3632  -19.9432   20.7754 C.ar    1  UNL1        0.0371
      3 C          -2.1790  -19.2285   21.3556 C.ar    1  UNL1        0.0062
      4 C          -2.3737  -18.2177   22.4467 C.ar    1  UNL1        0.0371
      5 C          -3.7525  -17.9217   22.9575 C.ar    1  UNL1        0.1416
      6 C          -4.9368  -18.6365   22.3773 C.ar    1  UNL1        0.0738
      7 O          -5.9264  -20.3620   20.7060 O.3     1  UNL1       -0.4689
      8 C          -7.0941  -19.5780   20.1847 C.3     1  UNL1        0.2509
      9 O          -9.4989  -20.1179   24.7592 O.2     1  UNL1       -0.2865
     10 C          -9.4859  -19.5996   23.3516 C.2     1  UNL1        0.1981
     11 C          -8.2966  -19.8479   22.4720 C.2     1  UNL1        0.0604
     12 C          -8.2835  -19.3296   21.0644 C.2     1  UNL1        0.1054
     13 N          -9.4597  -18.5630   20.5365 N.2     1  UNL1       -0.2498
     14 C         -10.6491  -18.3147   21.4162 C.2     1  UNL1        0.0661
     15 C         -11.8254  -17.5480   20.8883 C.3     1  UNL1        0.0718
     16 C         -13.0147  -17.2997   21.7680 C.2     1  UNL1       -0.0198
     17 C         -13.0277  -17.8180   23.1755 C.2     1  UNL1       -0.0040
     18 C         -11.8515  -18.5847   23.7034 C.2     1  UNL1        0.0041
     19 C         -10.6622  -18.8330   22.8238 C.2     1  UNL1        0.0528
     20 O          -3.9472  -16.9109   24.0486 O.3     1  UNL1       -0.4754
     21 C          -4.9343  -15.7957   23.8704 C.3     1  UNL1        0.2054
     22 C          -6.0733  -15.6411   24.8342 C.3     1  UNL1        0.0487
     23 C          -7.4852  -15.6151   24.3287 C.3     1  UNL1        0.0359
     24 C          -8.6242  -15.4605   25.2925 C.3     1  UNL1        0.1423
     25 O          -8.3512  -15.3318   26.7617 O.3     1  UNL1       -0.3538
     26 C          -6.9392  -15.3578   27.2673 C.3     1  UNL1        0.1423
     27 C          -5.8002  -15.5124   26.3035 C.3     1  UNL1        0.0359
@<TRIPOS>BOND
     1     9    10    2
     2    10    11    1
     3    11    12    2
     4    12     8    1
     5     8     7    1
     6     7     1    1
     7     1     2   ar
     8     2     3   ar
     9     3     4   ar
    10     4     5   ar
    11     5    20    1
    12    20    21    1
    13    21    22    1
    14    22    23    1
    15    23    24    1
    16    24    25    1
    17    25    26    1
    18    26    27    1
    19     5     6   ar
    20    12    13    1
    21    13    14    2
    22    14    15    1
    23    15    16    1
    24    16    17    2
    25    17    18    1
    26    18    19    2
    27    19    10    1
    28     6     1   ar
    29    19    14    1
    30    27    22    1
@<TRIPOS>MOLECULE
*****
 27 30 0 0 0
SMALL
GASTEIGER

@<TRIPOS>ATOM
      1 C         -10.1945  -19.3871   21.3676 C.ar    1  UNL1        0.1422
      2 C         -10.4581  -19.3524   19.8913 C.ar    1  UNL1        0.0371
      3 C          -9.3371  -19.5908   18.9235 C.ar    1  UNL1        0.0062
      4 C          -7.9526  -19.8640   19.4320 C.ar    1  UNL1        0.0371
      5 C          -7.6891  -19.8988   20.9082 C.ar    1  UNL1        0.1416
      6 C          -8.8101  -19.6604   21.8761 C.ar    1  UNL1        0.0738
      7 O         -11.3155  -19.1487   22.3353 O.3     1  UNL1       -0.4689
      8 C         -11.4255  -17.8323   23.0460 C.3     1  UNL1        0.2509
      9 O          -7.2087  -14.9277   22.1618 O.2     1  UNL1       -0.2865
     10 C          -8.0820  -15.6952   23.1096 C.2     1  UNL1        0.1981
     11 C          -9.3170  -16.3800   22.6039 C.2     1  UNL1        0.0604
     12 C         -10.1904  -17.1475   23.5517 C.2     1  UNL1        0.1054
     13 N          -9.8287  -17.2301   25.0051 N.2     1  UNL1       -0.2498
     14 C          -8.5937  -16.5453   25.5108 C.2     1  UNL1        0.0661
     15 C          -8.2320  -16.6279   26.9641 C.3     1  UNL1        0.0718
     16 C          -6.9970  -15.9431   27.4697 C.2     1  UNL1       -0.0198
     17 C          -6.1236  -15.1756   26.5220 C.2     1  UNL1       -0.0040
     18 C          -6.4853  -15.0930   25.0686 C.2     1  UNL1        0.0041
     19 C          -7.7203  -15.7778   24.5630 C.2     1  UNL1        0.0528
     20 O          -6.3046  -20.1720   21.4167 O.3     1  UNL1       -0.4754
     21 C          -5.1882  -20.4328   20.4494 C.3     1  UNL1        0.2054
     22 C          -3.9080  -19.6583   20.5551 C.3     1  UNL1        0.0487
     23 C          -3.2713  -19.0899   19.3217 C.3     1  UNL1        0.0359
     24 C          -1.9910  -18.3154   19.4274 C.3     1  UNL1        0.1423
     25 O          -1.3475  -18.1094   20.7666 O.3     1  UNL1       -0.3538
     26 C          -1.9842  -18.6779   22.0000 C.3     1  UNL1        0.1423
     27 C          -3.2644  -19.4524   21.8943 C.3     1  UNL1        0.0359
@<TRIPOS>BOND
     1     9    10    2
     2    10    11    1
     3    11    12    2
     4    12     8    1
     5     8     7    1
     6     7     1    1
     7     1     2   ar
     8     2     3   ar
     9     3     4   ar
    10     4     5   ar
    11     5    20    1
    12    20    21    1
    13    21    22    1
    14    22    23    1
    15    23    24    1
    16    24    25    1
    17    25    26    1
    18    26    27    1
    19     5     6   ar
    20    12    13    1
    21    13    14    2
    22    14    15    1
    23    15    16    1
    24    16    17    2
    25    17    18    1
    26    18    19    2
    27    19    10    1
    28     6     1   ar
    29    19    14    1
    30    27    22    1
@<TRIPOS>MOLECULE
*****
 27 30 0 0 0
SMALL
GASTEIGER

@<TRIPOS>ATOM
      1 C          -9.4156  -19.0959   21.2887 C.ar    1  UNL1        0.1422
      2 C         -10.7352  -19.1839   20.5809 C.ar    1  UNL1        0.0371
      3 C         -11.8572  -18.2671   20.9691 C.ar    1  UNL1        0.0062
      4 C         -11.6596  -17.2624   22.0652 C.ar    1  UNL1        0.0371
      5 C         -10.3400  -17.1744   22.7730 C.ar    1  UNL1        0.1416
      6 C          -9.2180  -18.0912   22.3848 C.ar    1  UNL1        0.0738
      7 O          -8.2937  -20.0127   20.9005 O.3     1  UNL1       -0.4689
      8 C          -7.2678  -19.5619   19.9033 C.3     1  UNL1        0.2509
      9 O          -3.9406  -18.5141   23.7545 O.2     1  UNL1       -0.2865
     10 C          -4.2295  -18.6529   22.2892 C.2     1  UNL1        0.1981
     11 C          -5.6042  -19.0380   21.8289 C.2     1  UNL1        0.0604
     12 C          -5.8930  -19.1768   20.3635 C.2     1  UNL1        0.1054
     13 N          -4.8072  -18.9305   19.3584 N.2     1  UNL1       -0.2498
     14 C          -3.4324  -18.5453   19.8187 C.2     1  UNL1        0.0661
     15 C          -2.3466  -18.2990   18.8136 C.3     1  UNL1        0.0718
     16 C          -0.9719  -17.9139   19.2738 C.2     1  UNL1       -0.0198
     17 C          -0.6831  -17.7751   20.7392 C.2     1  UNL1       -0.0040
     18 C          -1.7689  -18.0214   21.7443 C.2     1  UNL1        0.0041
     19 C          -3.1436  -18.4066   21.2840 C.2     1  UNL1        0.0528
     20 O         -10.1425  -16.1696   23.8691 O.3     1  UNL1       -0.4754
     21 C          -9.2678  -16.5011   25.0417 C.3     1  UNL1        0.2054
     22 C          -7.8682  -15.9656   25.1085 C.3     1  UNL1        0.0487
     23 C          -7.0711  -15.7911   23.8498 C.3     1  UNL1        0.0359
     24 C          -5.6715  -15.2556   23.9166 C.3     1  UNL1        0.1423
     25 O          -5.0690  -14.8947   25.2420 O.3     1  UNL1       -0.3538
     26 C          -5.8661  -15.0692   26.5006 C.3     1  UNL1        0.1423
     27 C          -7.2657  -15.6047   26.4338 C.3     1  UNL1        0.0359
@<TRIPOS>BOND
     1     9    10    2
     2    10    11    1
     3    11    12    2
     4    12     8    1
     5     8     7    1
     6     7     1    1
     7     1     2   ar
     8     2     3   ar
     9     3     4   ar
    10     4     5   ar
    11     5    20    1
    12    20    21    1
    13    21    22    1
    14    22    23    1
    15    23    24    1
    16    24    25    1
    17    25    26    1
    18    26    27    1
    19     5     6   ar
    20    12    13    1
    21    13    14    2
    22    14    15    1
    23    15    16    1
    24    16    17    2
    25    17    18    1
    26    18    19    2
    27    19    10    1
    28     6     1   ar
    29    19    14    1
    30    27    22    1
@<TRIPOS>MOLECULE
*****
 27 30 0 0 0
SMALL
GASTEIGER

@<TRIPOS>ATOM
      1 C          -7.9597  -19.0273   22.9869 C.ar    1  UNL1        0.1422
      2 C          -7.3446  -17.6770   23.2070 C.ar    1  UNL1        0.0371
      3 C          -8.1556  -16.5744   23.8207 C.ar    1  UNL1        0.0062
      4 C          -9.5817  -16.8221   24.2142 C.ar    1  UNL1        0.0371
      5 C         -10.1968  -18.1723   23.9942 C.ar    1  UNL1        0.1416
      6 C          -9.3858  -19.2749   23.3805 C.ar    1  UNL1        0.0738
      7 O          -7.1487  -20.1298   22.3733 O.3     1  UNL1       -0.4689
      8 C          -6.4299  -19.8999   21.0770 C.3     1  UNL1        0.2509
      9 O          -2.3177  -18.0799   23.6805 O.2     1  UNL1       -0.2865
     10 C          -2.9855  -18.4217   22.3816 C.2     1  UNL1        0.1981
     11 C          -4.3737  -18.9899   22.3787 C.2     1  UNL1        0.0604
     12 C          -5.0416  -19.3317   21.0798 C.2     1  UNL1        0.1054
     13 N          -4.3212  -19.1054   19.7838 N.2     1  UNL1       -0.2498
     14 C          -2.9329  -18.5372   19.7866 C.2     1  UNL1        0.0661
     15 C          -2.2125  -18.3110   18.4905 C.3     1  UNL1        0.0718
     16 C          -0.8243  -17.7428   18.4933 C.2     1  UNL1       -0.0198
     17 C          -0.1565  -17.4010   19.7922 C.2     1  UNL1       -0.0040
     18 C          -0.8769  -17.6273   21.0883 C.2     1  UNL1        0.0041
     19 C          -2.2651  -18.1954   21.0855 C.2     1  UNL1        0.0528
     20 O         -11.6229  -18.4200   24.3878 O.3     1  UNL1       -0.4754
     21 C         -12.7271  -18.1660   23.4049 C.3     1  UNL1        0.2054
     22 C         -12.4009  -17.7450   22.0026 C.3     1  UNL1        0.0487
     23 C         -11.7552  -18.7159   21.0591 C.3     1  UNL1        0.0359
     24 C         -11.4290  -18.2950   19.6568 C.3     1  UNL1        0.1423
     25 O         -11.7486  -16.9031   19.1981 O.3     1  UNL1       -0.3538
     26 C         -12.3944  -15.9322   20.1416 C.3     1  UNL1        0.1423
     27 C         -12.7206  -16.3532   21.5438 C.3     1  UNL1        0.0359
@<TRIPOS>BOND
     1     9    10    2
     2    10    11    1
     3    11    12    2
     4    12     8    1
     5     8     7    1
     6     7     1    1
     7     1     2   ar
     8     2     3   ar
     9     3     4   ar
    10     4     5   ar
    11     5    20    1
    12    20    21    1
    13    21    22    1
    14    22    23    1
    15    23    24    1
    16    24    25    1
    17    25    26    1
    18    26    27    1
    19     5     6   ar
    20    12    13    1
    21    13    14    2
    22    14    15    1
    23    15    16    1
    24    16    17    2
    25    17    18    1
    26    18    19    2
    27    19    10    1
    28     6     1   ar
    29    19    14    1
    30    27    22    1
@<TRIPOS>MOLECULE
*****
 27 30 0 0 0
SMALL
GASTEIGER

@<TRIPOS>ATOM
      1 C         -11.2064   -7.2096   17.3332 C.ar    1  UNL1        0.1422
      2 C         -10.2113   -8.1435   17.9560 C.ar    1  UNL1        0.0371
      3 C          -9.2134   -7.6235   18.9479 C.ar    1  UNL1        0.0062
      4 C          -9.2105   -6.1697   19.3170 C.ar    1  UNL1        0.0371
      5 C         -10.2055   -5.2358   18.6943 C.ar    1  UNL1        0.1416
      6 C         -11.2035   -5.7557   17.7024 C.ar    1  UNL1        0.0738
      7 O         -12.2043   -7.7296   16.3414 O.3     1  UNL1       -0.4689
      8 C         -13.5693   -7.1135   16.2576 C.3     1  UNL1        0.2509
      9 O         -15.9668  -11.0784   18.6097 O.2     1  UNL1       -0.2865
     10 C         -15.8789   -9.6136   18.2985 C.2     1  UNL1        0.1981
     11 C         -14.7681   -9.0959   17.4337 C.2     1  UNL1        0.0604
     12 C         -14.6802   -7.6312   17.1225 C.2     1  UNL1        0.1054
     13 N         -15.7032   -6.6841   17.6762 N.2     1  UNL1       -0.2498
     14 C         -16.8141   -7.2018   18.5411 C.2     1  UNL1        0.0661
     15 C         -17.8370   -6.2548   19.0948 C.3     1  UNL1        0.0718
     16 C         -18.9478   -6.7725   19.9597 C.2     1  UNL1       -0.0198
     17 C         -19.0357   -8.2372   20.2708 C.2     1  UNL1       -0.0040
     18 C         -18.0128   -9.1843   19.7171 C.2     1  UNL1        0.0041
     19 C         -16.9020   -8.6666   18.8523 C.2     1  UNL1        0.0528
     20 O         -10.2026   -3.7819   19.0634 O.3     1  UNL1       -0.4754
     21 C         -11.0977   -2.8220   18.3373 C.3     1  UNL1        0.2054
     22 C         -12.5154   -2.6307   18.7886 C.3     1  UNL1        0.0487
     23 C         -13.4866   -1.8911   17.9170 C.3     1  UNL1        0.0359
     24 C         -14.9042   -1.6997   18.3682 C.3     1  UNL1        0.1423
     25 O         -15.3507   -2.2481   19.6910 O.3     1  UNL1       -0.3538
     26 C         -14.3796   -2.9877   20.5626 C.3     1  UNL1        0.1423
     27 C         -12.9619   -3.1790   20.1114 C.3     1  UNL1        0.0359
@<TRIPOS>BOND
     1     9    10    2
     2    10    11    1
     3    11    12    2
     4    12     8    1
     5     8     7    1
     6     7     1    1
     7     1     2   ar
     8     2     3   ar
     9     3     4   ar
    10     4     5   ar
    11     5    20    1
    12    20    21    1
    13    21    22    1
    14    22    23    1
    15    23    24    1
    16    24    25    1
    17    25    26    1
    18    26    27    1
    19     5     6   ar
    20    12    13    1
    21    13    14    2
    22    14    15    1
    23    15    16    1
    24    16    17    2
    25    17    18    1
    26    18    19    2
    27    19    10    1
    28     6     1   ar
    29    19    14    1
    30    27    22    1
