@<TRIPOS>MOLECULE
*****
 30 33 0 0 0
SMALL
GASTEIGER

@<TRIPOS>ATOM
      1 O          -9.3606  -18.5782   21.4931 O.2     1  UNL1       -0.2734
      2 C          -7.8980  -18.2699   21.6189 C.2     1  UNL1        0.2420
      3 N          -7.3927  -17.5019   22.8042 N.am    1  UNL1       -0.2760
      4 C          -5.9301  -17.1936   22.9299 C.3     1  UNL1        0.0983
      5 C          -5.4247  -16.4256   24.1152 C.3     1  UNL1        0.0476
      6 C          -6.3819  -15.9660   25.1747 C.ar    1  UNL1       -0.0229
      7 C          -5.8765  -15.1980   26.3599 C.ar    1  UNL1       -0.0045
      8 C          -6.8337  -14.7384   27.4194 C.ar    1  UNL1       -0.0003
      9 C          -8.2963  -15.0468   27.2936 C.ar    1  UNL1       -0.0003
     10 C          -8.8017  -15.8147   26.1084 C.ar    1  UNL1       -0.0030
     11 C          -7.8445  -16.2743   25.0489 C.ar    1  UNL1       -0.0082
     12 C          -8.3499  -17.0423   23.8636 C.3     1  UNL1        0.0975
     13 C          -9.8124  -17.3506   23.7379 C.3     1  UNL1        0.0224
     14 C         -10.7047  -16.4429   22.9441 C.3     1  UNL1        0.0020
     15 C         -12.1673  -16.7512   22.8183 C.3     1  UNL1        0.0001
     16 C         -12.7376  -17.9673   23.4863 C.3     1  UNL1        0.0000
     17 C         -11.8453  -18.8749   24.2801 C.3     1  UNL1        0.0001
     18 C         -10.3827  -18.5666   24.4058 C.3     1  UNL1        0.0020
     19 C          -6.9409  -18.7295   20.5594 C.3     1  UNL1        0.1552
     20 N          -6.1598  -19.9954   20.7525 N.3     1  UNL1       -0.2879
     21 H          -6.7038  -20.7451   20.3252 H       1  UNL1        0.1238
     22 C          -4.7664  -20.1074   20.2085 C.3     1  UNL1        0.0961
     23 C          -3.6553  -19.3081   20.8221 C.3     1  UNL1        0.1027
     24 O          -4.2184  -19.9577   22.0513 O.3     1  UNL1       -0.3854
     25 C          -3.4781  -18.9361   19.3799 C.3     1  UNL1        0.0283
     26 C          -2.3853  -17.9904   18.9780 C.3     1  UNL1        0.0024
     27 C          -1.4697  -17.4166   20.0186 C.3     1  UNL1        0.0002
     28 C          -1.6469  -17.7886   21.4608 C.3     1  UNL1        0.0024
     29 C          -2.7397  -18.7343   21.8626 C.3     1  UNL1        0.0283
     30 H          -4.9671  -20.5227   21.8043 H       1  UNL1        0.2103
@<TRIPOS>BOND
     1     1     2    2
     2     2    19    1
     3    19    20    1
     4    20    22    1
     5    22    23    1
     6    23    24    1
     7    23    25    1
     8    25    26    1
     9    26    27    1
    10    27    28    1
    11    28    29    1
    12     2     3   am
    13     3     4    1
    14     4     5    1
    15     5     6    1
    16     6     7   ar
    17     7     8   ar
    18     8     9   ar
    19     9    10   ar
    20    10    11   ar
    21    11    12    1
    22    12    13    1
    23    13    14    1
    24    14    15    1
    25    15    16    1
    26    16    17    1
    27    17    18    1
    28    29    23    1
    29    12     3    1
    30    18    13    1
    31    11     6   ar
    32    20    21    1
    33    24    30    1
@<TRIPOS>MOLECULE
*****
 30 33 0 0 0
SMALL
GASTEIGER

@<TRIPOS>ATOM
      1 O          -5.8674  -17.7895   23.3753 O.2     1  UNL1       -0.2734
      2 C          -6.3964  -18.5189   22.1761 C.2     1  UNL1        0.2420
      3 N          -7.8254  -18.3372   21.7578 N.am    1  UNL1       -0.2760
      4 C          -8.3544  -19.0667   20.5586 C.3     1  UNL1        0.0983
      5 C          -9.7834  -18.8851   20.1403 C.3     1  UNL1        0.0476
      6 C         -10.6835  -17.9739   20.9212 C.ar    1  UNL1       -0.0229
      7 C         -12.1124  -17.7923   20.5030 C.ar    1  UNL1       -0.0045
      8 C         -13.0124  -16.8812   21.2839 C.ar    1  UNL1       -0.0003
      9 C         -12.4834  -16.1517   22.4830 C.ar    1  UNL1       -0.0003
     10 C         -11.0545  -16.3333   22.9013 C.ar    1  UNL1       -0.0030
     11 C         -10.1545  -17.2445   22.1204 C.ar    1  UNL1       -0.0082
     12 C          -8.7254  -17.4261   22.5387 C.3     1  UNL1        0.0975
     13 C          -8.1964  -16.6967   23.7379 C.3     1  UNL1        0.0224
     14 C          -7.2497  -15.5470   23.5590 C.3     1  UNL1        0.0020
     15 C          -6.7207  -14.8175   24.7582 C.3     1  UNL1        0.0001
     16 C          -7.1385  -15.2377   26.1363 C.3     1  UNL1        0.0000
     17 C          -8.0852  -16.3873   26.3151 C.3     1  UNL1        0.0001
     18 C          -8.6142  -17.1168   25.1159 C.3     1  UNL1        0.0020
     19 C          -5.4964  -19.4300   21.3952 C.3     1  UNL1        0.1552
     20 N          -4.3444  -20.1091   22.0746 N.3     1  UNL1       -0.2879
     21 H          -4.0037  -20.8244   21.4322 H       1  UNL1        0.1238
     22 C          -3.1504  -19.3095   22.5050 C.3     1  UNL1        0.0961
     23 C          -2.1380  -18.8679   21.4901 C.3     1  UNL1        0.1027
     24 O          -2.1082  -20.3499   21.2600 O.3     1  UNL1       -0.3854
     25 C          -2.5194  -17.5394   22.0727 C.3     1  UNL1        0.0283
     26 C          -1.8780  -16.2839   21.5604 C.3     1  UNL1        0.0024
     27 C          -0.8553  -16.3570   20.4656 C.3     1  UNL1        0.0002
     28 C          -0.4739  -17.6855   19.8830 C.3     1  UNL1        0.0024
     29 C          -1.1152  -18.9410   20.3953 C.3     1  UNL1        0.0283
     30 H          -2.7317  -20.7834   21.8635 H       1  UNL1        0.2103
@<TRIPOS>BOND
     1     1     2    2
     2     2    19    1
     3    19    20    1
     4    20    22    1
     5    22    23    1
     6    23    24    1
     7    23    25    1
     8    25    26    1
     9    26    27    1
    10    27    28    1
    11    28    29    1
    12     2     3   am
    13     3     4    1
    14     4     5    1
    15     5     6    1
    16     6     7   ar
    17     7     8   ar
    18     8     9   ar
    19     9    10   ar
    20    10    11   ar
    21    11    12    1
    22    12    13    1
    23    13    14    1
    24    14    15    1
    25    15    16    1
    26    16    17    1
    27    17    18    1
    28    29    23    1
    29    12     3    1
    30    18    13    1
    31    11     6   ar
    32    20    21    1
    33    24    30    1
@<TRIPOS>MOLECULE
*****
 30 33 0 0 0
SMALL
GASTEIGER

@<TRIPOS>ATOM
      1 O          -9.0910  -16.4820   23.9623 O.2     1  UNL1       -0.2734
      2 C          -7.7767  -16.9881   23.4462 C.2     1  UNL1        0.2420
      3 N          -7.7386  -17.8917   22.2494 N.am    1  UNL1       -0.2760
      4 C          -6.4243  -18.3977   21.7332 C.3     1  UNL1        0.0983
      5 C          -6.3862  -19.3013   20.5366 C.3     1  UNL1        0.0476
      6 C          -7.6625  -19.6988   19.8560 C.ar    1  UNL1       -0.0229
      7 C          -7.6244  -20.6024   18.6593 C.ar    1  UNL1       -0.0045
      8 C          -8.9006  -20.9999   17.9788 C.ar    1  UNL1       -0.0003
      9 C         -10.2149  -20.4938   18.4949 C.ar    1  UNL1       -0.0003
     10 C         -10.2530  -19.5903   19.6916 C.ar    1  UNL1       -0.0030
     11 C          -8.9768  -19.1928   20.3721 C.ar    1  UNL1       -0.0082
     12 C          -9.0148  -18.2892   21.5689 C.3     1  UNL1        0.0975
     13 C         -10.3292  -17.7831   22.0851 C.3     1  UNL1        0.0224
     14 C         -10.8616  -16.4622   21.6140 C.3     1  UNL1        0.0020
     15 C         -12.1759  -15.9562   22.1301 C.3     1  UNL1        0.0001
     16 C         -12.9579  -16.7710   23.1174 C.3     1  UNL1        0.0000
     17 C         -12.4255  -18.0919   23.5884 C.3     1  UNL1        0.0001
     18 C         -11.1111  -18.5979   23.0723 C.3     1  UNL1        0.0020
     19 C          -6.5004  -16.5906   24.1267 C.3     1  UNL1        0.1552
     20 N          -5.3285  -16.1290   23.3122 N.3     1  UNL1       -0.2879
     21 H          -5.2029  -15.1368   23.5130 H       1  UNL1        0.1238
     22 C          -3.9887  -16.7797   23.4899 C.3     1  UNL1        0.0961
     23 C          -3.0478  -16.8890   22.3268 C.3     1  UNL1        0.1027
     24 O          -3.2170  -15.3997   22.3859 O.3     1  UNL1       -0.3854
     25 C          -3.2054  -18.3403   22.6716 C.3     1  UNL1        0.0283
     26 C          -2.4809  -19.3837   21.8739 C.3     1  UNL1        0.0024
     27 C          -1.5987  -18.9758   20.7313 C.3     1  UNL1        0.0002
     28 C          -1.4411  -17.5245   20.3865 C.3     1  UNL1        0.0024
     29 C          -2.1657  -16.4811   21.1842 C.3     1  UNL1        0.0283
     30 H          -3.8177  -15.1711   23.1123 H       1  UNL1        0.2103
@<TRIPOS>BOND
     1     1     2    2
     2     2    19    1
     3    19    20    1
     4    20    22    1
     5    22    23    1
     6    23    24    1
     7    23    25    1
     8    25    26    1
     9    26    27    1
    10    27    28    1
    11    28    29    1
    12     2     3   am
    13     3     4    1
    14     4     5    1
    15     5     6    1
    16     6     7   ar
    17     7     8   ar
    18     8     9   ar
    19     9    10   ar
    20    10    11   ar
    21    11    12    1
    22    12    13    1
    23    13    14    1
    24    14    15    1
    25    15    16    1
    26    16    17    1
    27    17    18    1
    28    29    23    1
    29    12     3    1
    30    18    13    1
    31    11     6   ar
    32    20    21    1
    33    24    30    1
@<TRIPOS>MOLECULE
*****
 30 33 0 0 0
SMALL
GASTEIGER

@<TRIPOS>ATOM
      1 O          -5.9141  -17.5756   23.8948 O.2     1  UNL1       -0.2734
      2 C          -6.2883  -18.3275   22.6520 C.2     1  UNL1        0.2420
      3 N          -7.6891  -18.2490   22.1211 N.am    1  UNL1       -0.2760
      4 C          -8.0633  -19.0008   20.8783 C.3     1  UNL1        0.0983
      5 C          -9.4640  -18.9224   20.3474 C.3     1  UNL1        0.0476
      6 C         -10.4906  -18.0920   21.0594 C.ar    1  UNL1       -0.0229
      7 C         -11.8912  -18.0136   20.5285 C.ar    1  UNL1       -0.0045
      8 C         -12.9177  -17.1833   21.2405 C.ar    1  UNL1       -0.0003
      9 C         -12.5434  -16.4314   22.4833 C.ar    1  UNL1       -0.0003
     10 C         -11.1427  -16.5099   23.0142 C.ar    1  UNL1       -0.0030
     11 C         -10.1163  -17.3402   22.3022 C.ar    1  UNL1       -0.0082
     12 C          -8.7155  -17.4187   22.8331 C.3     1  UNL1        0.0975
     13 C          -8.3413  -16.6668   24.0759 C.3     1  UNL1        0.0224
     14 C          -8.7566  -17.1863   25.4204 C.3     1  UNL1        0.0020
     15 C          -8.3823  -16.4345   26.6633 C.3     1  UNL1        0.0001
     16 C          -7.5928  -15.1631   26.5616 C.3     1  UNL1        0.0000
     17 C          -7.1775  -14.6436   25.2171 C.3     1  UNL1        0.0001
     18 C          -7.5518  -15.3955   23.9743 C.3     1  UNL1        0.0020
     19 C          -5.2619  -19.1578   21.9400 C.3     1  UNL1        0.1552
     20 N          -3.9018  -19.3483   22.5431 N.3     1  UNL1       -0.2879
     21 H          -4.0100  -20.0125   23.3097 H       1  UNL1        0.1238
     22 C          -2.7686  -19.8462   21.6956 C.3     1  UNL1        0.0961
     23 C          -1.8998  -18.8715   20.9573 C.3     1  UNL1        0.1027
     24 O          -1.2248  -18.8593   22.2969 O.3     1  UNL1       -0.3854
     25 C          -2.8764  -19.2222   19.8743 C.3     1  UNL1        0.0283
     26 C          -2.7499  -18.5940   18.5181 C.3     1  UNL1        0.0024
     27 C          -1.6466  -17.6150   18.2449 C.3     1  UNL1        0.0002
     28 C          -0.6700  -17.2644   19.3280 C.3     1  UNL1        0.0024
     29 C          -0.7965  -17.8926   20.6842 C.3     1  UNL1        0.0283
     30 H          -1.6897  -19.4614   22.8987 H       1  UNL1        0.2103
@<TRIPOS>BOND
     1     1     2    2
     2     2    19    1
     3    19    20    1
     4    20    22    1
     5    22    23    1
     6    23    24    1
     7    23    25    1
     8    25    26    1
     9    26    27    1
    10    27    28    1
    11    28    29    1
    12     2     3   am
    13     3     4    1
    14     4     5    1
    15     5     6    1
    16     6     7   ar
    17     7     8   ar
    18     8     9   ar
    19     9    10   ar
    20    10    11   ar
    21    11    12    1
    22    12    13    1
    23    13    14    1
    24    14    15    1
    25    15    16    1
    26    16    17    1
    27    17    18    1
    28    29    23    1
    29    12     3    1
    30    18    13    1
    31    11     6   ar
    32    20    21    1
    33    24    30    1
@<TRIPOS>MOLECULE
*****
 30 33 0 0 0
SMALL
GASTEIGER

@<TRIPOS>ATOM
      1 O         -12.2666   -7.5289   17.3478 O.2     1  UNL1       -0.2734
      2 C         -13.7415   -7.5383   17.6205 C.2     1  UNL1        0.2420
      3 N         -14.4277   -6.2852   18.0778 N.am    1  UNL1       -0.2760
      4 C         -15.9027   -6.2947   18.3506 C.3     1  UNL1        0.0983
      5 C         -16.5888   -5.0417   18.8078 C.3     1  UNL1        0.0476
      6 C         -15.8000   -3.7792   18.9924 C.ar    1  UNL1       -0.0229
      7 C         -16.4862   -2.5262   19.4497 C.ar    1  UNL1       -0.0045
      8 C         -15.6974   -1.2638   19.6343 C.ar    1  UNL1       -0.0003
      9 C         -14.2224   -1.2544   19.3616 C.ar    1  UNL1       -0.0003
     10 C         -13.5363   -2.5074   18.9043 C.ar    1  UNL1       -0.0030
     11 C         -14.3251   -3.7698   18.7197 C.ar    1  UNL1       -0.0082
     12 C         -13.6389   -5.0229   18.2624 C.3     1  UNL1        0.0975
     13 C         -12.1639   -5.0135   17.9897 C.3     1  UNL1        0.0224
     14 C         -11.1958   -5.3362   19.0891 C.3     1  UNL1        0.0020
     15 C          -9.7209   -5.3268   18.8164 C.3     1  UNL1        0.0001
     16 C          -9.2140   -4.9946   17.4442 C.3     1  UNL1        0.0000
     17 C         -10.1821   -4.6719   16.3448 C.3     1  UNL1        0.0001
     18 C         -11.6570   -4.6813   16.6176 C.3     1  UNL1        0.0020
     19 C         -14.5304   -8.8007   17.4359 C.3     1  UNL1        0.1552
     20 N         -14.7678   -9.7139   18.6019 N.3     1  UNL1       -0.2879
     21 H         -14.5016   -9.1968   19.4399 H       1  UNL1        0.1238
     22 C         -16.1386  -10.2690   18.8529 C.3     1  UNL1        0.0961
     23 C         -17.1850   -9.4161   19.5066 C.3     1  UNL1        0.1027
     24 O         -16.0294   -9.1633   20.4290 O.3     1  UNL1       -0.3854
     25 C         -17.9771   -9.9651   18.3573 C.3     1  UNL1        0.0283
     26 C         -19.4144   -9.5734   18.1820 C.3     1  UNL1        0.0024
     27 C         -20.0596   -8.6326   19.1561 C.3     1  UNL1        0.0002
     28 C         -19.2675   -8.0836   20.3054 C.3     1  UNL1        0.0024
     29 C         -17.8302   -8.4753   20.4807 C.3     1  UNL1        0.0283
     30 H         -15.2567   -9.6640   20.1239 H       1  UNL1        0.2103
@<TRIPOS>BOND
     1     1     2    2
     2     2    19    1
     3    19    20    1
     4    20    22    1
     5    22    23    1
     6    23    24    1
     7    23    25    1
     8    25    26    1
     9    26    27    1
    10    27    28    1
    11    28    29    1
    12     2     3   am
    13     3     4    1
    14     4     5    1
    15     5     6    1
    16     6     7   ar
    17     7     8   ar
    18     8     9   ar
    19     9    10   ar
    20    10    11   ar
    21    11    12    1
    22    12    13    1
    23    13    14    1
    24    14    15    1
    25    15    16    1
    26    16    17    1
    27    17    18    1
    28    29    23    1
    29    12     3    1
    30    18    13    1
    31    11     6   ar
    32    20    21    1
    33    24    30    1
@<TRIPOS>MOLECULE
*****
 30 33 0 0 0
SMALL
GASTEIGER

@<TRIPOS>ATOM
      1 O         -13.0765   -6.4610   18.3243 O.2     1  UNL1       -0.2734
      2 C         -14.4150   -5.8935   18.6933 C.2     1  UNL1        0.2420
      3 N         -14.6101   -4.4072   18.7486 N.am    1  UNL1       -0.2760
      4 C         -15.9487   -3.8397   19.1176 C.3     1  UNL1        0.0983
      5 C         -16.1438   -2.3536   19.1730 C.3     1  UNL1        0.0476
      6 C         -15.0003   -1.4348   18.8594 C.ar    1  UNL1       -0.0229
      7 C         -15.1954    0.0514   18.9148 C.ar    1  UNL1       -0.0045
      8 C         -14.0519    0.9701   18.6011 C.ar    1  UNL1       -0.0003
      9 C         -12.7133    0.4026   18.2321 C.ar    1  UNL1       -0.0003
     10 C         -12.5182   -1.0835   18.1768 C.ar    1  UNL1       -0.0030
     11 C         -13.6617   -2.0023   18.4904 C.ar    1  UNL1       -0.0082
     12 C         -13.4666   -3.4885   18.4350 C.3     1  UNL1        0.0975
     13 C         -12.1280   -4.0560   18.0660 C.3     1  UNL1        0.0224
     14 C         -11.7947   -4.3164   16.6268 C.3     1  UNL1        0.0020
     15 C         -10.4562   -4.8839   16.2578 C.3     1  UNL1        0.0001
     16 C          -9.4509   -5.1910   17.3280 C.3     1  UNL1        0.0000
     17 C          -9.7842   -4.9306   18.7671 C.3     1  UNL1        0.0001
     18 C         -11.1228   -4.3631   19.1361 C.3     1  UNL1        0.0020
     19 C         -15.5585   -6.8122   19.0069 C.3     1  UNL1        0.1552
     20 N         -15.2910   -8.1822   19.5561 N.3     1  UNL1       -0.2879
     21 H         -14.5986   -8.0723   20.2969 H       1  UNL1        0.1238
     22 C         -16.4150   -8.9926   20.1305 C.3     1  UNL1        0.0961
     23 C         -17.4205   -9.6320   19.2195 C.3     1  UNL1        0.1027
     24 O         -16.1615  -10.2601   18.6995 O.3     1  UNL1       -0.3854
     25 C         -18.3303   -8.7818   20.0559 C.3     1  UNL1        0.0283
     26 C         -19.8084   -8.7892   19.8006 C.3     1  UNL1        0.0024
     27 C         -20.3767   -9.6467   18.7090 C.3     1  UNL1        0.0002
     28 C         -19.4669  -10.4969   17.8726 C.3     1  UNL1        0.0024
     29 C         -17.9888  -10.4895   18.1278 C.3     1  UNL1        0.0283
     30 H         -15.4029   -9.9321   19.2073 H       1  UNL1        0.2103
@<TRIPOS>BOND
     1     1     2    2
     2     2    19    1
     3    19    20    1
     4    20    22    1
     5    22    23    1
     6    23    24    1
     7    23    25    1
     8    25    26    1
     9    26    27    1
    10    27    28    1
    11    28    29    1
    12     2     3   am
    13     3     4    1
    14     4     5    1
    15     5     6    1
    16     6     7   ar
    17     7     8   ar
    18     8     9   ar
    19     9    10   ar
    20    10    11   ar
    21    11    12    1
    22    12    13    1
    23    13    14    1
    24    14    15    1
    25    15    16    1
    26    16    17    1
    27    17    18    1
    28    29    23    1
    29    12     3    1
    30    18    13    1
    31    11     6   ar
    32    20    21    1
    33    24    30    1
@<TRIPOS>MOLECULE
*****
 30 33 0 0 0
SMALL
GASTEIGER

@<TRIPOS>ATOM
      1 O         -13.3537   -6.0316   19.4971 O.2     1  UNL1       -0.2734
      2 C         -14.2924   -4.8778   19.6909 C.2     1  UNL1        0.2420
      3 N         -13.9199   -3.5150   19.1865 N.am    1  UNL1       -0.2760
      4 C         -14.8586   -2.3612   19.3802 C.3     1  UNL1        0.0983
      5 C         -14.4862   -0.9985   18.8759 C.3     1  UNL1        0.0476
      6 C         -13.1751   -0.7897   18.1777 C.ar    1  UNL1       -0.0229
      7 C         -12.8027    0.5730   17.6733 C.ar    1  UNL1       -0.0045
      8 C         -11.4916    0.7818   16.9752 C.ar    1  UNL1       -0.0003
      9 C         -10.5529   -0.3720   16.7814 C.ar    1  UNL1       -0.0003
     10 C         -10.9253   -1.7347   17.2858 C.ar    1  UNL1       -0.0030
     11 C         -12.2364   -1.9435   17.9839 C.ar    1  UNL1       -0.0082
     12 C         -12.6088   -3.3062   18.4883 C.3     1  UNL1        0.0975
     13 C         -11.6702   -4.4600   18.2946 C.3     1  UNL1        0.0224
     14 C         -11.8494   -5.3848   17.1272 C.3     1  UNL1        0.0020
     15 C         -10.9107   -6.5387   16.9334 C.3     1  UNL1        0.0001
     16 C          -9.7928   -6.7677   17.9071 C.3     1  UNL1        0.0000
     17 C          -9.6136   -5.8430   19.0744 C.3     1  UNL1        0.0001
     18 C         -10.5523   -4.6891   19.2681 C.3     1  UNL1        0.0020
     19 C         -15.6034   -5.0866   20.3890 C.3     1  UNL1        0.1552
     20 N         -16.7258   -5.7877   19.6829 N.3     1  UNL1       -0.2879
     21 H         -17.4912   -5.1176   19.6086 H       1  UNL1        0.1238
     22 C         -16.5111   -6.3537   18.3104 C.3     1  UNL1        0.0961
     23 C         -16.1523   -7.8005   18.1435 C.3     1  UNL1        0.1027
     24 O         -15.0558   -7.1660   17.3402 O.3     1  UNL1       -0.3854
     25 C         -17.3733   -7.9326   19.0047 C.3     1  UNL1        0.0283
     26 C         -17.8548   -9.2911   19.4200 C.3     1  UNL1        0.0024
     27 C         -17.1152  -10.5176   18.9741 C.3     1  UNL1        0.0002
     28 C         -15.8942  -10.3856   18.1130 C.3     1  UNL1        0.0024
     29 C         -15.4127   -9.0271   17.6976 C.3     1  UNL1        0.0283
     30 H         -15.1595   -6.2017   17.3568 H       1  UNL1        0.2103
@<TRIPOS>BOND
     1     1     2    2
     2     2    19    1
     3    19    20    1
     4    20    22    1
     5    22    23    1
     6    23    24    1
     7    23    25    1
     8    25    26    1
     9    26    27    1
    10    27    28    1
    11    28    29    1
    12     2     3   am
    13     3     4    1
    14     4     5    1
    15     5     6    1
    16     6     7   ar
    17     7     8   ar
    18     8     9   ar
    19     9    10   ar
    20    10    11   ar
    21    11    12    1
    22    12    13    1
    23    13    14    1
    24    14    15    1
    25    15    16    1
    26    16    17    1
    27    17    18    1
    28    29    23    1
    29    12     3    1
    30    18    13    1
    31    11     6   ar
    32    20    21    1
    33    24    30    1
@<TRIPOS>MOLECULE
*****
 30 33 0 0 0
SMALL
GASTEIGER

@<TRIPOS>ATOM
      1 O           6.3074   -4.3869   22.1597 O.2     1  UNL1       -0.2734
      2 C           6.0797   -3.6787   23.4623 C.2     1  UNL1        0.2420
      3 N           5.0425   -2.5993   23.5579 N.am    1  UNL1       -0.2760
      4 C           4.8149   -1.8911   24.8605 C.3     1  UNL1        0.0983
      5 C           3.7778   -0.8117   24.9561 C.3     1  UNL1        0.0476
      6 C           2.9683   -0.4403   23.7490 C.ar    1  UNL1       -0.0229
      7 C           1.9312    0.6391   23.8447 C.ar    1  UNL1       -0.0045
      8 C           1.1217    1.0104   22.6377 C.ar    1  UNL1       -0.0003
      9 C           1.3494    0.3023   21.3351 C.ar    1  UNL1       -0.0003
     10 C           2.3865   -0.7771   21.2395 C.ar    1  UNL1       -0.0030
     11 C           3.1959   -1.1484   22.4464 C.ar    1  UNL1       -0.0082
     12 C           4.2331   -2.2279   22.3509 C.3     1  UNL1        0.0975
     13 C           4.4607   -2.9360   21.0483 C.3     1  UNL1        0.0224
     14 C           3.7244   -4.2078   20.7472 C.3     1  UNL1        0.0020
     15 C           3.9520   -4.9159   19.4446 C.3     1  UNL1        0.0001
     16 C           4.9160   -4.3523   18.4431 C.3     1  UNL1        0.0000
     17 C           5.6524   -3.0806   18.7441 C.3     1  UNL1        0.0001
     18 C           5.4247   -2.3725   20.0467 C.3     1  UNL1        0.0020
     19 C           6.8892   -4.0501   24.6693 C.3     1  UNL1        0.1552
     20 N           6.2235   -4.6922   25.8501 N.3     1  UNL1       -0.2879
     21 H           5.3749   -5.1390   25.5028 H       1  UNL1        0.1238
     22 C           6.9571   -5.7232   26.6557 C.3     1  UNL1        0.0961
     23 C           7.0548   -5.5807   28.1457 C.3     1  UNL1        0.1027
     24 O           5.5720   -5.7519   27.9971 O.3     1  UNL1       -0.3854
     25 C           8.5036   -5.4590   27.7769 C.3     1  UNL1        0.0283
     26 C           9.5352   -5.2542   28.8464 C.3     1  UNL1        0.0024
     27 C           9.1179   -5.1711   30.2848 C.3     1  UNL1        0.0002
     28 C           7.6691   -5.2928   30.6537 C.3     1  UNL1        0.0024
     29 C           6.6375   -5.4976   29.5842 C.3     1  UNL1        0.0283
     30 H           5.3513   -5.8586   27.0586 H       1  UNL1        0.2103
@<TRIPOS>BOND
     1     1     2    2
     2     2    19    1
     3    19    20    1
     4    20    22    1
     5    22    23    1
     6    23    24    1
     7    23    25    1
     8    25    26    1
     9    26    27    1
    10    27    28    1
    11    28    29    1
    12     2     3   am
    13     3     4    1
    14     4     5    1
    15     5     6    1
    16     6     7   ar
    17     7     8   ar
    18     8     9   ar
    19     9    10   ar
    20    10    11   ar
    21    11    12    1
    22    12    13    1
    23    13    14    1
    24    14    15    1
    25    15    16    1
    26    16    17    1
    27    17    18    1
    28    29    23    1
    29    12     3    1
    30    18    13    1
    31    11     6   ar
    32    20    21    1
    33    24    30    1
@<TRIPOS>MOLECULE
*****
 30 33 0 0 0
SMALL
GASTEIGER

@<TRIPOS>ATOM
      1 O         -12.3113   -3.5214   19.1128 O.2     1  UNL1       -0.2734
      2 C         -13.7469   -3.5200   19.5476 C.2     1  UNL1        0.2420
      3 N         -14.5807   -4.7565   19.3861 N.am    1  UNL1       -0.2760
      4 C         -16.0163   -4.7552   19.8209 C.3     1  UNL1        0.0983
      5 C         -16.8500   -5.9916   19.6594 C.3     1  UNL1        0.0476
      6 C         -16.2481   -7.2295   19.0632 C.ar    1  UNL1       -0.0229
      7 C         -17.0818   -8.4659   18.9017 C.ar    1  UNL1       -0.0045
      8 C         -16.4799   -9.7037   18.3055 C.ar    1  UNL1       -0.0003
      9 C         -15.0443   -9.7051   17.8707 C.ar    1  UNL1       -0.0003
     10 C         -14.2106   -8.4686   18.0322 C.ar    1  UNL1       -0.0030
     11 C         -14.8125   -7.2308   18.6284 C.ar    1  UNL1       -0.0082
     12 C         -13.9788   -5.9943   18.7899 C.3     1  UNL1        0.0975
     13 C         -12.5432   -5.9957   18.3551 C.3     1  UNL1        0.0224
     14 C         -12.1768   -5.5335   16.9758 C.3     1  UNL1        0.0020
     15 C         -10.7412   -5.5349   16.5411 C.3     1  UNL1        0.0001
     16 C          -9.6720   -5.9984   17.4855 C.3     1  UNL1        0.0000
     17 C         -10.0384   -6.4606   18.8647 C.3     1  UNL1        0.0001
     18 C         -11.4740   -6.4592   19.2995 C.3     1  UNL1        0.0020
     19 C         -14.3488   -2.2822   20.1438 C.3     1  UNL1        0.1552
     20 N         -14.8529   -1.1880   19.2501 N.3     1  UNL1       -0.2879
     21 H         -14.6857   -1.4911   18.2906 H       1  UNL1        0.1238
     22 C         -16.2886   -0.7600   19.3251 C.3     1  UNL1        0.0961
     23 C         -16.6787    0.4105   20.1781 C.3     1  UNL1        0.1027
     24 O         -17.5620   -0.6481   20.7689 O.3     1  UNL1       -0.3854
     25 C         -15.6600    1.0626   19.2910 C.3     1  UNL1        0.0283
     26 C         -15.3381    2.5176   19.4620 C.3     1  UNL1        0.0024
     27 C         -16.0349    3.3206   20.5202 C.3     1  UNL1        0.0002
     28 C         -17.0536    2.6685   21.4073 C.3     1  UNL1        0.0024
     29 C         -17.3755    1.2135   21.2363 C.3     1  UNL1        0.0283
     30 H         -17.4159   -1.4872   20.3047 H       1  UNL1        0.2103
@<TRIPOS>BOND
     1     1     2    2
     2     2    19    1
     3    19    20    1
     4    20    22    1
     5    22    23    1
     6    23    24    1
     7    23    25    1
     8    25    26    1
     9    26    27    1
    10    27    28    1
    11    28    29    1
    12     2     3   am
    13     3     4    1
    14     4     5    1
    15     5     6    1
    16     6     7   ar
    17     7     8   ar
    18     8     9   ar
    19     9    10   ar
    20    10    11   ar
    21    11    12    1
    22    12    13    1
    23    13    14    1
    24    14    15    1
    25    15    16    1
    26    16    17    1
    27    17    18    1
    28    29    23    1
    29    12     3    1
    30    18    13    1
    31    11     6   ar
    32    20    21    1
    33    24    30    1
