@<TRIPOS>MOLECULE
*****
 27 29 0 0 0
SMALL
GASTEIGER

@<TRIPOS>ATOM
      1 N          -8.2637  -17.1909   22.6930 N.pl3   1  UNL1       -0.3034
      2 C          -4.2973  -20.1087   20.7867 C.2     1  UNL1        0.2257
      3 O          -4.0887  -21.1508   19.7282 O.2     1  UNL1       -0.2749
      4 N          -5.6592  -19.5172   20.9987 N.am    1  UNL1       -0.2778
      5 C          -6.9012  -19.8666   20.2335 C.3     1  UNL1        0.0952
      6 C          -8.0280  -19.0377   20.7750 C.3     1  UNL1        0.0430
      7 C          -7.4824  -18.1760   21.8750 C.3     1  UNL1        0.0946
      8 C          -6.0185  -18.4723   22.0132 C.3     1  UNL1        0.1131
      9 C          -2.1030  -18.7443   21.0578 C.3     1  UNL1        0.0101
     10 C          -3.1438  -19.6583   21.6333 C.3     1  UNL1        0.0853
     11 C          -9.6816  -17.4931   23.0780 C.ar    1  UNL1        0.0490
     12 C          -9.9756  -18.5943   24.0532 C.ar    1  UNL1        0.0153
     13 C         -11.3935  -18.8965   24.4381 C.ar    1  UNL1        0.0124
     14 C         -12.5175  -18.0976   23.8479 C.ar    1  UNL1        0.0791
     15 C         -12.2235  -16.9964   22.8726 C.ar    1  UNL1        0.0685
     16 CL        -13.3475  -16.1975   22.2824 Cl      1  UNL1       -0.0815
     17 C         -10.8056  -16.6941   22.4877 C.ar    1  UNL1        0.0266
     18 C         -13.9354  -18.3998   24.2328 C.1     1  UNL1        0.1013
     19 N         -15.3533  -18.7021   24.6178 N.1     1  UNL1       -0.1908
     20 C          -7.6271  -15.9036   23.1261 C.3     1  UNL1        0.1182
     21 C          -7.3355  -15.6622   24.5775 C.ar    1  UNL1        0.0038
     22 C          -8.4634  -15.5322   25.5577 C.ar    1  UNL1       -0.0021
     23 C          -8.1717  -15.2908   27.0091 C.ar    1  UNL1       -0.0002
     24 C          -6.7521  -15.1794   27.4804 C.ar    1  UNL1        0.0005
     25 C          -5.6240  -15.3094   26.5002 C.ar    1  UNL1        0.0064
     26 C          -5.9157  -15.5508   25.0488 C.ar    1  UNL1        0.0322
     27 BR         -4.7877  -15.6808   24.0687 Br      1  UNL1       -0.0493
@<TRIPOS>BOND
     1     9    10    1
     2    10     2    1
     3     2     3    2
     4     2     4   am
     5     4     5    1
     6     5     6    1
     7     6     7    1
     8     7     1    1
     9     1    20    1
    10    20    21    1
    11    21    22   ar
    12    22    23   ar
    13    23    24   ar
    14    24    25   ar
    15    25    26   ar
    16    26    27    1
    17     1    11    1
    18    11    12   ar
    19    12    13   ar
    20    13    14   ar
    21    14    18    1
    22    18    19    3
    23    14    15   ar
    24    15    16    1
    25    15    17   ar
    26     7     8    1
    27     8     4    1
    28    26    21   ar
    29    17    11   ar
@<TRIPOS>MOLECULE
*****
 27 29 0 0 0
SMALL
GASTEIGER

@<TRIPOS>ATOM
      1 N          -7.8517  -18.4553   21.5304 N.pl3   1  UNL1       -0.3034
      2 C          -2.6666  -19.4519   21.4861 C.2     1  UNL1        0.2257
      3 O          -1.7263  -20.4377   20.8585 O.2     1  UNL1       -0.2749
      4 N          -4.1387  -19.5407   21.2125 N.am    1  UNL1       -0.2778
      5 C          -4.8132  -20.5555   20.3376 C.3     1  UNL1        0.0952
      6 C          -6.2863  -20.2723   20.3502 C.3     1  UNL1        0.0430
      7 C          -6.5220  -19.0827   21.2329 C.3     1  UNL1        0.0946
      8 C          -5.1948  -18.6306   21.7658 C.3     1  UNL1        0.1131
      9 C          -2.0983  -16.9535   21.9166 C.3     1  UNL1        0.0101
     10 C          -2.1347  -18.3772   22.3874 C.3     1  UNL1        0.0853
     11 C          -8.0447  -17.6701   22.7937 C.ar    1  UNL1        0.0490
     12 C          -7.5090  -16.2729   22.8975 C.ar    1  UNL1        0.0153
     13 C          -7.7019  -15.4876   24.1609 C.ar    1  UNL1        0.0124
     14 C          -8.4305  -16.0995   25.3205 C.ar    1  UNL1        0.0791
     15 C          -8.9662  -17.4968   25.2167 C.ar    1  UNL1        0.0685
     16 CL         -9.6948  -18.1087   26.3763 Cl      1  UNL1       -0.0815
     17 C          -8.7733  -18.2821   23.9533 C.ar    1  UNL1        0.0266
     18 C          -8.6234  -15.3142   26.5839 C.1     1  UNL1        0.1013
     19 N          -8.8163  -14.5290   27.8472 N.1     1  UNL1       -0.1908
     20 C          -8.9884  -18.6133   20.5645 C.3     1  UNL1        0.1182
     21 C         -10.3236  -18.0023   20.8711 C.ar    1  UNL1        0.0038
     22 C         -10.6056  -16.5816   20.4811 C.ar    1  UNL1       -0.0021
     23 C         -11.9408  -15.9707   20.7878 C.ar    1  UNL1       -0.0002
     24 C         -12.9939  -16.7803   21.4844 C.ar    1  UNL1        0.0005
     25 C         -12.7119  -18.2011   21.8744 C.ar    1  UNL1        0.0064
     26 C         -11.3767  -18.8121   21.5678 C.ar    1  UNL1        0.0322
     27 BR        -11.0947  -20.2327   21.9577 Br      1  UNL1       -0.0493
@<TRIPOS>BOND
     1     9    10    1
     2    10     2    1
     3     2     3    2
     4     2     4   am
     5     4     5    1
     6     5     6    1
     7     6     7    1
     8     7     1    1
     9     1    20    1
    10    20    21    1
    11    21    22   ar
    12    22    23   ar
    13    23    24   ar
    14    24    25   ar
    15    25    26   ar
    16    26    27    1
    17     1    11    1
    18    11    12   ar
    19    12    13   ar
    20    13    14   ar
    21    14    18    1
    22    18    19    3
    23    14    15   ar
    24    15    16    1
    25    15    17   ar
    26     7     8    1
    27     8     4    1
    28    26    21   ar
    29    17    11   ar
@<TRIPOS>MOLECULE
*****
 27 29 0 0 0
SMALL
GASTEIGER

@<TRIPOS>ATOM
      1 N          -8.5640  -16.7372   22.5074 N.pl3   1  UNL1       -0.3034
      2 C         -13.4739  -18.2048   23.7797 C.2     1  UNL1        0.2257
      3 O         -14.8135  -18.3114   23.1133 O.2     1  UNL1       -0.2749
      4 N         -12.2874  -17.7144   23.0042 N.am    1  UNL1       -0.2778
      5 C         -12.2871  -17.2967   21.5635 C.3     1  UNL1        0.0952
      6 C         -10.8922  -16.8798   21.2020 C.3     1  UNL1        0.0430
      7 C         -10.0305  -17.0399   22.4194 C.3     1  UNL1        0.0946
      8 C         -10.8928  -17.5557   23.5331 C.3     1  UNL1        0.1131
      9 C         -14.4914  -18.4838   26.1539 C.3     1  UNL1        0.0101
     10 C         -13.3211  -18.5886   25.2217 C.3     1  UNL1        0.0853
     11 C          -7.5642  -17.6986   21.9363 C.ar    1  UNL1        0.0490
     12 C          -7.8640  -18.4199   20.6558 C.ar    1  UNL1        0.0153
     13 C          -6.8642  -19.3812   20.0846 C.ar    1  UNL1        0.0124
     14 C          -5.5646  -19.6214   20.7941 C.ar    1  UNL1        0.0791
     15 C          -5.2647  -18.9001   22.0747 C.ar    1  UNL1        0.0685
     16 CL         -3.9651  -19.1402   22.7841 Cl      1  UNL1       -0.0815
     17 C          -6.2645  -17.9387   22.6458 C.ar    1  UNL1        0.0266
     18 C          -4.5648  -20.5827   20.2229 C.1     1  UNL1        0.1013
     19 N          -3.5650  -21.5441   19.6518 N.1     1  UNL1       -0.1908
     20 C          -8.0972  -15.4733   23.1666 C.3     1  UNL1        0.1182
     21 C          -7.6931  -15.4857   24.6111 C.ar    1  UNL1        0.0038
     22 C          -8.7341  -15.6409   25.6798 C.ar    1  UNL1       -0.0021
     23 C          -8.3299  -15.6534   27.1243 C.ar    1  UNL1       -0.0002
     24 C          -6.8848  -15.5106   27.5000 C.ar    1  UNL1        0.0005
     25 C          -5.8437  -15.3554   26.4313 C.ar    1  UNL1        0.0064
     26 C          -6.2479  -15.3430   24.9868 C.ar    1  UNL1        0.0322
     27 BR         -5.2069  -15.1878   23.9180 Br      1  UNL1       -0.0493
@<TRIPOS>BOND
     1     9    10    1
     2    10     2    1
     3     2     3    2
     4     2     4   am
     5     4     5    1
     6     5     6    1
     7     6     7    1
     8     7     1    1
     9     1    20    1
    10    20    21    1
    11    21    22   ar
    12    22    23   ar
    13    23    24   ar
    14    24    25   ar
    15    25    26   ar
    16    26    27    1
    17     1    11    1
    18    11    12   ar
    19    12    13   ar
    20    13    14   ar
    21    14    18    1
    22    18    19    3
    23    14    15   ar
    24    15    16    1
    25    15    17   ar
    26     7     8    1
    27     8     4    1
    28    26    21   ar
    29    17    11   ar
@<TRIPOS>MOLECULE
*****
 27 29 0 0 0
SMALL
GASTEIGER

@<TRIPOS>ATOM
      1 N          -7.7350  -18.4001   21.8661 N.pl3   1  UNL1       -0.3034
      2 C          -7.6927  -15.5307   26.2983 C.2     1  UNL1        0.2257
      3 O          -8.5217  -15.3850   27.5399 O.2     1  UNL1       -0.2749
      4 N          -8.0911  -16.5184   25.2422 N.am    1  UNL1       -0.2778
      5 C          -9.2859  -17.4243   25.2878 C.3     1  UNL1        0.0952
      6 C          -9.2978  -18.2395   24.0287 C.3     1  UNL1        0.0430
      7 C          -8.1105  -17.8373   23.2049 C.3     1  UNL1        0.0946
      8 C          -7.3648  -16.7737   23.9548 C.3     1  UNL1        0.1131
      9 C          -5.1185  -15.3396   26.0033 C.3     1  UNL1        0.0101
     10 C          -6.4653  -14.6886   26.1131 C.3     1  UNL1        0.0853
     11 C          -6.2897  -18.5359   21.4883 C.ar    1  UNL1        0.0490
     12 C          -5.9146  -18.9943   20.1102 C.ar    1  UNL1        0.0153
     13 C          -4.4693  -19.1301   19.7324 C.ar    1  UNL1        0.0124
     14 C          -3.3992  -18.8076   20.7327 C.ar    1  UNL1        0.0791
     15 C          -3.7742  -18.3492   22.1109 C.ar    1  UNL1        0.0685
     16 CL         -2.7040  -18.0266   23.1111 Cl      1  UNL1       -0.0815
     17 C          -5.2195  -18.2133   22.4887 C.ar    1  UNL1        0.0266
     18 C          -1.9539  -18.9434   20.3549 C.1     1  UNL1        0.1013
     19 N          -0.5086  -19.0792   19.9771 N.1     1  UNL1       -0.1908
     20 C          -8.8047  -18.8271   20.9052 C.3     1  UNL1        0.1182
     21 C         -10.1211  -18.1085   20.8806 C.ar    1  UNL1        0.0038
     22 C         -10.1976  -16.7004   20.3694 C.ar    1  UNL1       -0.0021
     23 C         -11.5141  -15.9819   20.3448 C.ar    1  UNL1       -0.0002
     24 C         -12.7541  -16.6714   20.8316 C.ar    1  UNL1        0.0005
     25 C         -12.6776  -18.0795   21.3429 C.ar    1  UNL1        0.0064
     26 C         -11.3612  -18.7981   21.3674 C.ar    1  UNL1        0.0322
     27 BR        -11.2847  -20.2061   21.8787 Br      1  UNL1       -0.0493
@<TRIPOS>BOND
     1     9    10    1
     2    10     2    1
     3     2     3    2
     4     2     4   am
     5     4     5    1
     6     5     6    1
     7     6     7    1
     8     7     1    1
     9     1    20    1
    10    20    21    1
    11    21    22   ar
    12    22    23   ar
    13    23    24   ar
    14    24    25   ar
    15    25    26   ar
    16    26    27    1
    17     1    11    1
    18    11    12   ar
    19    12    13   ar
    20    13    14   ar
    21    14    18    1
    22    18    19    3
    23    14    15   ar
    24    15    16    1
    25    15    17   ar
    26     7     8    1
    27     8     4    1
    28    26    21   ar
    29    17    11   ar
@<TRIPOS>MOLECULE
*****
 27 29 0 0 0
SMALL
GASTEIGER

@<TRIPOS>ATOM
      1 N          -8.1059  -17.9263   22.0562 N.pl3   1  UNL1       -0.3034
      2 C          -3.7624  -19.9962   19.8814 C.2     1  UNL1        0.2257
      3 O          -3.1183  -21.3439   19.7441 O.2     1  UNL1       -0.2749
      4 N          -5.0619  -19.8576   20.6176 N.am    1  UNL1       -0.2778
      5 C          -5.8310  -20.9703   21.2659 C.3     1  UNL1        0.0952
      6 C          -7.0650  -20.3823   21.8837 C.3     1  UNL1        0.0430
      7 C          -7.0584  -18.9061   21.6172 C.3     1  UNL1        0.0946
      8 C          -5.8204  -18.5819   20.8347 C.3     1  UNL1        0.1131
      9 C          -1.6939  -18.4416   19.6483 C.3     1  UNL1        0.0101
     10 C          -3.1069  -18.7872   19.2825 C.3     1  UNL1        0.0853
     11 C          -7.9263  -17.1576   23.3317 C.ar    1  UNL1        0.0490
     12 C          -9.0110  -17.1597   24.3677 C.ar    1  UNL1        0.0153
     13 C          -8.8314  -16.3910   25.6432 C.ar    1  UNL1        0.0124
     14 C          -7.5671  -15.6202   25.8827 C.ar    1  UNL1        0.0791
     15 C          -6.4823  -15.6181   24.8466 C.ar    1  UNL1        0.0685
     16 CL         -5.2181  -14.8473   25.0861 Cl      1  UNL1       -0.0815
     17 C          -6.6619  -16.3868   23.5711 C.ar    1  UNL1        0.0266
     18 C          -7.3875  -14.8515   27.1581 C.1     1  UNL1        0.1013
     19 N          -7.2079  -14.0828   28.4336 N.1     1  UNL1       -0.1908
     20 C          -9.3330  -17.7152   21.2197 C.3     1  UNL1        0.1182
     21 C         -10.6611  -17.4905   21.8798 C.ar    1  UNL1        0.0038
     22 C         -11.2497  -16.1118   21.9305 C.ar    1  UNL1       -0.0021
     23 C         -12.5778  -15.8871   22.5906 C.ar    1  UNL1       -0.0002
     24 C         -13.3173  -17.0412   23.1998 C.ar    1  UNL1        0.0005
     25 C         -12.7287  -18.4200   23.1491 C.ar    1  UNL1        0.0064
     26 C         -11.4006  -18.6447   22.4891 C.ar    1  UNL1        0.0322
     27 BR        -10.8120  -20.0234   22.4383 Br      1  UNL1       -0.0493
@<TRIPOS>BOND
     1     9    10    1
     2    10     2    1
     3     2     3    2
     4     2     4   am
     5     4     5    1
     6     5     6    1
     7     6     7    1
     8     7     1    1
     9     1    20    1
    10    20    21    1
    11    21    22   ar
    12    22    23   ar
    13    23    24   ar
    14    24    25   ar
    15    25    26   ar
    16    26    27    1
    17     1    11    1
    18    11    12   ar
    19    12    13   ar
    20    13    14   ar
    21    14    18    1
    22    18    19    3
    23    14    15   ar
    24    15    16    1
    25    15    17   ar
    26     7     8    1
    27     8     4    1
    28    26    21   ar
    29    17    11   ar
@<TRIPOS>MOLECULE
*****
 27 29 0 0 0
SMALL
GASTEIGER

@<TRIPOS>ATOM
      1 N          -7.2603  -16.8593   23.0151 N.pl3   1  UNL1       -0.3034
      2 C         -12.2896  -17.2949   21.4669 C.2     1  UNL1        0.2257
      3 O         -13.4263  -18.2601   21.6291 O.2     1  UNL1       -0.2749
      4 N         -10.9655  -17.5805   22.1110 N.am    1  UNL1       -0.2778
      5 C         -10.6305  -18.7834   22.9422 C.3     1  UNL1        0.0952
      6 C          -9.2017  -18.6597   23.3820 C.3     1  UNL1        0.0430
      7 C          -8.6538  -17.3802   22.8227 C.3     1  UNL1        0.0946
      8 C          -9.7438  -16.7133   22.0372 C.3     1  UNL1        0.1131
      9 C         -11.7747  -15.8878   19.3444 C.3     1  UNL1        0.0101
     10 C         -12.4772  -16.0441   20.6604 C.3     1  UNL1        0.0853
     11 C          -6.0872  -17.6588   22.5308 C.ar    1  UNL1        0.0490
     12 C          -4.7045  -17.3257   23.0073 C.ar    1  UNL1        0.0153
     13 C          -3.5313  -18.1251   22.5230 C.ar    1  UNL1        0.0124
     14 C          -3.7409  -19.2577   21.5621 C.ar    1  UNL1        0.0791
     15 C          -5.1237  -19.5909   21.0856 C.ar    1  UNL1        0.0685
     16 CL         -5.3333  -20.7235   20.1248 Cl      1  UNL1       -0.0815
     17 C          -6.2968  -18.7914   21.5699 C.ar    1  UNL1        0.0266
     18 C          -2.5678  -20.0572   21.0778 C.1     1  UNL1        0.1013
     19 N          -1.3946  -20.8567   20.5935 N.1     1  UNL1       -0.1908
     20 C          -7.0400  -15.5389   23.6919 C.3     1  UNL1        0.1182
     21 C          -7.3551  -15.3816   25.1500 C.ar    1  UNL1        0.0038
     22 C          -8.7812  -15.2705   25.6014 C.ar    1  UNL1       -0.0021
     23 C          -9.0962  -15.1133   27.0595 C.ar    1  UNL1       -0.0002
     24 C          -7.9851  -15.0671   28.0661 C.ar    1  UNL1        0.0005
     25 C          -6.5589  -15.1782   27.6147 C.ar    1  UNL1        0.0064
     26 C          -6.2439  -15.3355   26.1566 C.ar    1  UNL1        0.0322
     27 BR         -4.8178  -15.4466   25.7052 Br      1  UNL1       -0.0493
@<TRIPOS>BOND
     1     9    10    1
     2    10     2    1
     3     2     3    2
     4     2     4   am
     5     4     5    1
     6     5     6    1
     7     6     7    1
     8     7     1    1
     9     1    20    1
    10    20    21    1
    11    21    22   ar
    12    22    23   ar
    13    23    24   ar
    14    24    25   ar
    15    25    26   ar
    16    26    27    1
    17     1    11    1
    18    11    12   ar
    19    12    13   ar
    20    13    14   ar
    21    14    18    1
    22    18    19    3
    23    14    15   ar
    24    15    16    1
    25    15    17   ar
    26     7     8    1
    27     8     4    1
    28    26    21   ar
    29    17    11   ar
