@<TRIPOS>MOLECULE
*****
 34 39 0 0 0
SMALL
GASTEIGER

@<TRIPOS>ATOM
      1 C           7.1143   -5.2745   27.9382 C.2     1  UNL1        0.1040
      2 N           7.6620   -6.4992   28.6091 N.2     1  UNL1       -0.1483
      3 N           7.9067   -6.1675   30.0513 N.2     1  UNL1       -0.1520
      4 C           7.5102   -4.7377   30.2718 C.2     1  UNL1        0.0860
      5 C           7.5318   -3.8670   31.4930 C.3     1  UNL1        0.0697
      6 C           7.0637   -2.4445   31.4082 C.2     1  UNL1       -0.0378
      7 C           6.5740   -1.8926   30.1022 C.2     1  UNL1       -0.0080
      8 C           6.5524   -2.7632   28.8810 C.2     1  UNL1        0.0022
      9 C           7.0205   -4.1858   28.9658 C.2     1  UNL1        0.0350
     10 C           7.0853   -1.5737   32.6295 C.3     1  UNL1        0.0315
     11 C           7.8170   -0.6365   33.5438 C.3     1  UNL1        0.0179
     12 C           6.3910   -1.0028   33.8304 C.3     1  UNL1        0.0927
     13 C           5.0795   -1.6917   33.5953 C.2     1  UNL1        0.2293
     14 O           4.7618   -2.6196   32.4604 O.2     1  UNL1       -0.2744
     15 N           4.1413   -1.2898   34.6946 N.am    1  UNL1       -0.2839
     16 C           4.8731   -0.3526   35.6090 C.ar    1  UNL1        0.0467
     17 C           4.4529    0.3623   36.8589 C.ar    1  UNL1        0.0144
     18 C           5.4232    1.2545   37.5748 C.ar    1  UNL1        0.0013
     19 C           6.8136    1.4319   37.0406 C.ar    1  UNL1       -0.0002
     20 C           7.2338    0.7170   35.7907 C.ar    1  UNL1       -0.0026
     21 C           6.2635   -0.1752   35.0748 C.ar    1  UNL1       -0.0008
     22 H           3.2090   -1.5887   34.7978 H       1  UNL1        0.1549
     23 C           7.3709   -4.1170   25.6264 C.2     1  UNL1        0.0016
     24 C           6.7283   -5.1588   26.4933 C.2     1  UNL1        0.0209
     25 C           6.2127   -3.7701   21.2918 C.ar    1  UNL1       -0.0061
     26 C           7.5960   -4.2139   21.6653 C.ar    1  UNL1       -0.0029
     27 C           7.9821   -4.3296   23.1101 C.ar    1  UNL1       -0.0003
     28 C           6.9848   -4.0013   24.1815 C.ar    1  UNL1        0.0000
     29 C           5.6015   -3.5575   23.8081 C.ar    1  UNL1       -0.0003
     30 C           5.2155   -3.4419   22.3632 C.ar    1  UNL1       -0.0029
     31 C           5.8266   -3.6544   19.8469 C.3     1  UNL1        0.0992
     32 C           3.5522   -4.7820   19.2943 C.3     1  UNL1        0.0899
     33 N           4.3807   -3.5431   19.4636 N.3     1  UNL1       -0.2665
     34 C           3.7633   -2.1929   19.2495 C.3     1  UNL1        0.0899
@<TRIPOS>BOND
     1    32    33    1
     2    33    34    1
     3    33    31    1
     4    31    25    1
     5    25    26   ar
     6    26    27   ar
     7    27    28   ar
     8    28    23    1
     9    23    24    2
    10    24     1    1
    11     1     2    2
    12     2     3    1
    13     3     4    2
    14     4     5    1
    15     5     6    1
    16    10     6    1
    17    10    11    1
    18    12    11    1
    19    12    13    1
    20    13    14    2
    21    13    15   am
    22    15    16    1
    23    16    17   ar
    24    17    18   ar
    25    18    19   ar
    26    19    20   ar
    27    20    21   ar
    28     6     7    2
    29     7     8    1
    30     8     9    2
    31    28    29   ar
    32    29    30   ar
    33    30    25   ar
    34     9     1    1
    35     9     4    1
    36    12    10    1
    37    21    16   ar
    38    21    12    1
    39    15    22    1
@<TRIPOS>MOLECULE
*****
 34 39 0 0 0
SMALL
GASTEIGER

@<TRIPOS>ATOM
      1 C           7.4873   -5.3880   27.7730 C.2     1  UNL1        0.1040
      2 N           8.0210   -6.6046   28.4695 N.2     1  UNL1       -0.1483
      3 N           7.8600   -6.4011   29.9468 N.2     1  UNL1       -0.1520
      4 C           7.2268   -5.0586   30.1634 C.2     1  UNL1        0.0860
      5 C           6.8301   -4.3254   31.4104 C.3     1  UNL1        0.0697
      6 C           6.2032   -2.9662   31.3139 C.2     1  UNL1       -0.0378
      7 C           5.9729   -2.3401   29.9704 C.2     1  UNL1       -0.0080
      8 C           6.3695   -3.0733   28.7234 C.2     1  UNL1        0.0022
      9 C           6.9964   -4.4325   28.8199 C.2     1  UNL1        0.0350
     10 C           5.8065   -2.2329   32.5610 C.3     1  UNL1        0.0315
     11 C           4.7873   -1.9225   33.6168 C.3     1  UNL1        0.0179
     12 C           6.1386   -1.2733   33.6650 C.3     1  UNL1        0.0927
     13 C           7.5345   -0.9784   33.2017 C.2     1  UNL1        0.2293
     14 O           8.2035   -1.5607   31.9920 O.2     1  UNL1       -0.2744
     15 N           8.1439    0.0009   34.1607 N.am    1  UNL1       -0.2839
     16 C           7.1247    0.3112   35.2166 C.ar    1  UNL1        0.0467
     17 C           7.1651    1.2092   36.4174 C.ar    1  UNL1        0.0144
     18 C           5.9661    1.3196   37.3119 C.ar    1  UNL1        0.0013
     19 C           4.7267    0.5322   37.0055 C.ar    1  UNL1       -0.0002
     20 C           4.6864   -0.3658   35.8047 C.ar    1  UNL1       -0.0026
     21 C           5.8854   -0.4762   34.9102 C.ar    1  UNL1       -0.0008
     22 H           9.0532    0.3743   34.1065 H       1  UNL1        0.1549
     23 C           6.5001   -4.1644   25.7046 C.2     1  UNL1        0.0016
     24 C           7.4509   -5.1660   26.2899 C.2     1  UNL1        0.0209
     25 C           6.3910   -3.4983   21.2556 C.ar    1  UNL1       -0.0061
     26 C           7.5836   -4.1535   21.8868 C.ar    1  UNL1       -0.0029
     27 C           7.6199   -4.3755   23.3698 C.ar    1  UNL1       -0.0003
     28 C           6.4637   -3.9423   24.2216 C.ar    1  UNL1        0.0000
     29 C           5.2711   -3.2872   23.5904 C.ar    1  UNL1       -0.0003
     30 C           5.2348   -3.0651   22.1073 C.ar    1  UNL1       -0.0029
     31 C           6.3547   -3.2763   19.7725 C.3     1  UNL1        0.0992
     32 C           4.5565   -4.8923   18.8214 C.3     1  UNL1        0.0899
     33 N           5.0816   -3.5002   19.0116 N.3     1  UNL1       -0.2665
     34 C           4.3336   -2.3320   18.4408 C.3     1  UNL1        0.0899
@<TRIPOS>BOND
     1    32    33    1
     2    33    34    1
     3    33    31    1
     4    31    25    1
     5    25    26   ar
     6    26    27   ar
     7    27    28   ar
     8    28    23    1
     9    23    24    2
    10    24     1    1
    11     1     2    2
    12     2     3    1
    13     3     4    2
    14     4     5    1
    15     5     6    1
    16    10     6    1
    17    10    11    1
    18    12    11    1
    19    12    13    1
    20    13    14    2
    21    13    15   am
    22    15    16    1
    23    16    17   ar
    24    17    18   ar
    25    18    19   ar
    26    19    20   ar
    27    20    21   ar
    28     6     7    2
    29     7     8    1
    30     8     9    2
    31    28    29   ar
    32    29    30   ar
    33    30    25   ar
    34     9     1    1
    35     9     4    1
    36    12    10    1
    37    21    16   ar
    38    21    12    1
    39    15    22    1
@<TRIPOS>MOLECULE
*****
 34 39 0 0 0
SMALL
GASTEIGER

@<TRIPOS>ATOM
      1 C          -0.0686    3.1398   18.2564 C.2     1  UNL1        0.1040
      2 N          -0.5524    3.9338   17.0793 N.2     1  UNL1       -0.1483
      3 N          -1.6913    4.7955   17.5379 N.2     1  UNL1       -0.1520
      4 C          -1.9113    4.5341   18.9985 C.2     1  UNL1        0.0860
      5 C          -2.8954    5.0957   19.9815 C.3     1  UNL1        0.0697
      6 C          -2.8765    4.6340   21.4085 C.2     1  UNL1       -0.0378
      7 C          -1.8736    3.6108   21.8526 C.2     1  UNL1       -0.0080
      8 C          -0.8896    3.0492   20.8696 C.2     1  UNL1        0.0022
      9 C          -0.9084    3.5109   19.4426 C.2     1  UNL1        0.0350
     10 C          -3.8606    5.1956   22.3916 C.3     1  UNL1        0.0315
     11 C          -4.1904    6.1580   23.4938 C.3     1  UNL1        0.0179
     12 C          -5.2351    5.2058   22.9920 C.3     1  UNL1        0.0927
     13 C          -5.7893    4.1075   22.1337 C.2     1  UNL1        0.2293
     14 O          -5.0440    3.3602   21.0678 O.2     1  UNL1       -0.2744
     15 N          -7.2196    3.8877   22.5285 N.am    1  UNL1       -0.2839
     16 C          -7.5495    4.8501   23.6307 C.ar    1  UNL1        0.0467
     17 C          -8.8081    5.0899   24.4105 C.ar    1  UNL1        0.0144
     18 C          -8.8403    6.1444   25.4768 C.ar    1  UNL1        0.0013
     19 C          -7.6139    6.9590   25.7633 C.ar    1  UNL1       -0.0002
     20 C          -6.3552    6.7192   24.9835 C.ar    1  UNL1       -0.0026
     21 C          -6.3230    5.6648   23.9172 C.ar    1  UNL1       -0.0008
     22 H          -7.8340    3.2276   22.1335 H       1  UNL1        0.1549
     23 C           0.9091    0.8394   18.9651 C.2     1  UNL1        0.0016
     24 C           1.0575    2.1488   18.2487 C.2     1  UNL1        0.0209
     25 C           4.2872   -2.1335   18.9420 C.ar    1  UNL1       -0.0061
     26 C           3.3069   -2.1209   20.0773 C.ar    1  UNL1       -0.0029
     27 C           2.1809   -1.1300   20.0850 C.ar    1  UNL1       -0.0003
     28 C           2.0351   -0.1516   18.9574 C.ar    1  UNL1        0.0000
     29 C           3.0154   -0.1641   17.8221 C.ar    1  UNL1       -0.0003
     30 C           4.1414   -1.1551   17.8144 C.ar    1  UNL1       -0.0029
     31 C           5.4133   -3.1244   18.9343 C.3     1  UNL1        0.0992
     32 C           7.4414   -1.6696   19.6552 C.3     1  UNL1        0.0899
     33 N           6.6093   -2.9075   19.8132 N.3     1  UNL1       -0.2665
     34 C           6.9731   -3.9285   20.8501 C.3     1  UNL1        0.0899
@<TRIPOS>BOND
     1    32    33    1
     2    33    34    1
     3    33    31    1
     4    31    25    1
     5    25    26   ar
     6    26    27   ar
     7    27    28   ar
     8    28    23    1
     9    23    24    2
    10    24     1    1
    11     1     2    2
    12     2     3    1
    13     3     4    2
    14     4     5    1
    15     5     6    1
    16    10     6    1
    17    10    11    1
    18    12    11    1
    19    12    13    1
    20    13    14    2
    21    13    15   am
    22    15    16    1
    23    16    17   ar
    24    17    18   ar
    25    18    19   ar
    26    19    20   ar
    27    20    21   ar
    28     6     7    2
    29     7     8    1
    30     8     9    2
    31    28    29   ar
    32    29    30   ar
    33    30    25   ar
    34     9     1    1
    35     9     4    1
    36    12    10    1
    37    21    16   ar
    38    21    12    1
    39    15    22    1
@<TRIPOS>MOLECULE
*****
 34 39 0 0 0
SMALL
GASTEIGER

@<TRIPOS>ATOM
      1 C           7.3631   -4.4275   29.5598 C.2     1  UNL1        0.1040
      2 N           7.8129   -5.8569   29.4913 N.2     1  UNL1       -0.1483
      3 N           7.7097   -6.3075   28.0643 N.2     1  UNL1       -0.1520
      4 C           7.1960   -5.1566   27.2509 C.2     1  UNL1        0.0860
      5 C           6.8956   -5.0165   25.7880 C.3     1  UNL1        0.0697
      6 C           6.3811   -3.7145   25.2494 C.2     1  UNL1       -0.0378
      7 C           6.1669   -2.5527   26.1736 C.2     1  UNL1       -0.0080
      8 C           6.4673   -2.6928   27.6365 C.2     1  UNL1        0.0022
      9 C           6.9818   -3.9947   28.1751 C.2     1  UNL1        0.0350
     10 C           6.0807   -3.5744   23.7864 C.3     1  UNL1        0.0315
     11 C           5.1240   -3.7043   22.6385 C.3     1  UNL1        0.0179
     12 C           6.5171   -3.2018   22.4005 C.3     1  UNL1        0.0927
     13 C           7.9120   -2.7999   22.7781 C.2     1  UNL1        0.2293
     14 O           8.4955   -2.8325   24.1596 O.2     1  UNL1       -0.2744
     15 N           8.6210   -2.3595   21.5317 N.am    1  UNL1       -0.2839
     16 C           7.6642   -2.4894   20.3838 C.ar    1  UNL1        0.0467
     17 C           7.8091   -2.2009   18.9190 C.ar    1  UNL1        0.0144
     18 C           6.6536   -2.4329   17.9911 C.ar    1  UNL1        0.0013
     19 C           5.3533   -2.9535   18.5280 C.ar    1  UNL1       -0.0002
     20 C           5.2085   -3.2420   19.9928 C.ar    1  UNL1       -0.0026
     21 C           6.3640   -3.0100   20.9207 C.ar    1  UNL1       -0.0008
     22 H           9.5510   -2.0412   21.4768 H       1  UNL1        0.1549
     23 C           5.9883   -3.0476   31.2790 C.2     1  UNL1        0.0016
     24 C           7.3049   -3.5798   30.7960 C.2     1  UNL1        0.0209
     25 C           5.8137   -0.5046   34.9874 C.ar    1  UNL1       -0.0061
     26 C           7.0703   -0.5531   34.1698 C.ar    1  UNL1       -0.0029
     27 C           7.1285   -1.4008   32.9337 C.ar    1  UNL1       -0.0003
     28 C           5.9301   -2.1999   32.5151 C.ar    1  UNL1        0.0000
     29 C           4.6735   -2.1514   33.3328 C.ar    1  UNL1       -0.0003
     30 C           4.6153   -1.3037   34.5689 C.ar    1  UNL1       -0.0029
     31 C           5.7555    0.3432   36.2236 C.3     1  UNL1        0.0992
     32 C           3.7408    1.0242   37.7158 C.3     1  UNL1        0.0899
     33 N           4.5643    1.2187   36.4773 N.3     1  UNL1       -0.2665
     34 C           4.1965    2.2886   35.4924 C.3     1  UNL1        0.0899
@<TRIPOS>BOND
     1    32    33    1
     2    33    34    1
     3    33    31    1
     4    31    25    1
     5    25    26   ar
     6    26    27   ar
     7    27    28   ar
     8    28    23    1
     9    23    24    2
    10    24     1    1
    11     1     2    2
    12     2     3    1
    13     3     4    2
    14     4     5    1
    15     5     6    1
    16    10     6    1
    17    10    11    1
    18    12    11    1
    19    12    13    1
    20    13    14    2
    21    13    15   am
    22    15    16    1
    23    16    17   ar
    24    17    18   ar
    25    18    19   ar
    26    19    20   ar
    27    20    21   ar
    28     6     7    2
    29     7     8    1
    30     8     9    2
    31    28    29   ar
    32    29    30   ar
    33    30    25   ar
    34     9     1    1
    35     9     4    1
    36    12    10    1
    37    21    16   ar
    38    21    12    1
    39    15    22    1
@<TRIPOS>MOLECULE
*****
 34 39 0 0 0
SMALL
GASTEIGER

@<TRIPOS>ATOM
      1 C           0.0707    1.8305   25.6569 C.2     1  UNL1        0.1040
      2 N          -1.2031    2.6226   25.6675 N.2     1  UNL1       -0.1483
      3 N          -1.2363    3.4300   26.9312 N.2     1  UNL1       -0.1520
      4 C           0.0170    3.1369   27.7016 C.2     1  UNL1        0.0860
      5 C           0.5269    3.6424   29.0185 C.3     1  UNL1        0.0697
      6 C           1.8447    3.1594   29.5478 C.2     1  UNL1       -0.0378
      7 C           2.6524    2.1709   28.7602 C.2     1  UNL1       -0.0080
      8 C           2.1425    1.6653   27.4433 C.2     1  UNL1        0.0022
      9 C           0.8247    2.1483   26.9140 C.2     1  UNL1        0.0350
     10 C           2.3548    3.6650   30.8648 C.3     1  UNL1        0.0315
     11 C           3.1362    4.6723   31.6550 C.3     1  UNL1        0.0179
     12 C           2.4567    3.5333   32.3555 C.3     1  UNL1        0.0927
     13 C           1.6285    2.2870   32.4597 C.2     1  UNL1        0.2293
     14 O           0.9883    1.5557   31.3172 O.2     1  UNL1       -0.2744
     15 N           1.5528    1.9006   33.9071 N.am    1  UNL1       -0.2839
     16 C           2.3343    2.9079   34.6974 C.ar    1  UNL1        0.0467
     17 C           2.6094    3.0367   36.1663 C.ar    1  UNL1        0.0144
     18 C           3.4431    4.1746   36.6762 C.ar    1  UNL1        0.0013
     19 C           4.0018    5.1837   35.7172 C.ar    1  UNL1       -0.0002
     20 C           3.7267    5.0549   34.2483 C.ar    1  UNL1       -0.0026
     21 C           2.8930    3.9170   33.7384 C.ar    1  UNL1       -0.0008
     22 H           1.0743    1.1223   34.2740 H       1  UNL1        0.1549
     23 C           1.4692    1.3509   23.5205 C.2     1  UNL1        0.0016
     24 C           0.5128    0.8863   24.5783 C.2     1  UNL1        0.0209
     25 C           2.7954   -1.4817   20.2851 C.ar    1  UNL1       -0.0061
     26 C           1.5797   -0.6268   20.0815 C.ar    1  UNL1       -0.0029
     27 C           1.1377    0.3174   21.1600 C.ar    1  UNL1       -0.0003
     28 C           1.9113    0.4067   22.4420 C.ar    1  UNL1        0.0000
     29 C           3.1269   -0.4481   22.6456 C.ar    1  UNL1       -0.0003
     30 C           3.5689   -1.3924   21.5671 C.ar    1  UNL1       -0.0029
     31 C           3.2374   -2.4259   19.2066 C.3     1  UNL1        0.0992
     32 C           3.8760   -0.9905   17.1375 C.3     1  UNL1        0.0899
     33 N           4.2531   -1.9858   18.1944 N.3     1  UNL1       -0.2665
     34 C           5.6459   -2.5409   18.2391 C.3     1  UNL1        0.0899
@<TRIPOS>BOND
     1    32    33    1
     2    33    34    1
     3    33    31    1
     4    31    25    1
     5    25    26   ar
     6    26    27   ar
     7    27    28   ar
     8    28    23    1
     9    23    24    2
    10    24     1    1
    11     1     2    2
    12     2     3    1
    13     3     4    2
    14     4     5    1
    15     5     6    1
    16    10     6    1
    17    10    11    1
    18    12    11    1
    19    12    13    1
    20    13    14    2
    21    13    15   am
    22    15    16    1
    23    16    17   ar
    24    17    18   ar
    25    18    19   ar
    26    19    20   ar
    27    20    21   ar
    28     6     7    2
    29     7     8    1
    30     8     9    2
    31    28    29   ar
    32    29    30   ar
    33    30    25   ar
    34     9     1    1
    35     9     4    1
    36    12    10    1
    37    21    16   ar
    38    21    12    1
    39    15    22    1
@<TRIPOS>MOLECULE
*****
 34 39 0 0 0
SMALL
GASTEIGER

@<TRIPOS>ATOM
      1 C           1.1901    2.9562   29.6557 C.2     1  UNL1        0.1040
      2 N           1.1636    4.3833   30.1170 N.2     1  UNL1       -0.1483
      3 N           0.3491    5.1727   29.1355 N.2     1  UNL1       -0.1520
      4 C          -0.1278    4.2335   28.0675 C.2     1  UNL1        0.0860
      5 C          -0.9682    4.4487   26.8439 C.3     1  UNL1        0.0697
      6 C          -1.2888    3.2940   25.9417 C.2     1  UNL1       -0.0378
      7 C          -0.7690    1.9242   26.2632 C.2     1  UNL1       -0.0080
      8 C           0.0714    1.7089   27.4869 C.2     1  UNL1        0.0022
      9 C           0.3920    2.8636   28.3890 C.2     1  UNL1        0.0350
     10 C          -2.1293    3.5092   24.7179 C.3     1  UNL1        0.0315
     11 C          -2.2418    3.6648   23.2304 C.3     1  UNL1        0.0179
     12 C          -3.4723    3.7261   24.0861 C.3     1  UNL1        0.0927
     13 C          -4.2544    3.6946   25.3656 C.2     1  UNL1        0.2293
     14 O          -3.6882    3.4969   26.7405 O.2     1  UNL1       -0.2744
     15 N          -5.7023    3.8955   25.0288 N.am    1  UNL1       -0.2839
     16 C          -5.8149    4.0512   23.5412 C.ar    1  UNL1        0.0467
     17 C          -6.9944    4.2747   22.6418 C.ar    1  UNL1        0.0144
     18 C          -6.7956    4.3936   21.1599 C.ar    1  UNL1        0.0013
     19 C          -5.4173    4.2890   20.5772 C.ar    1  UNL1       -0.0002
     20 C          -4.2379    4.0654   21.4765 C.ar    1  UNL1       -0.0026
     21 C          -4.4366    3.9465   22.9585 C.ar    1  UNL1       -0.0008
     22 H          -6.4477    3.9207   25.6714 H       1  UNL1        0.1549
     23 C           3.1482    1.2514   29.7523 C.2     1  UNL1        0.0016
     24 C           1.8916    1.8210   30.3408 C.2     1  UNL1        0.0209
     25 C           5.2526   -2.1541   31.8076 C.ar    1  UNL1       -0.0061
     26 C           5.6674   -1.7401   30.4268 C.ar    1  UNL1       -0.0029
     27 C           4.9659   -0.6050   29.7417 C.ar    1  UNL1       -0.0003
     28 C           3.8497    0.1162   30.4374 C.ar    1  UNL1        0.0000
     29 C           3.4349   -0.2978   31.8182 C.ar    1  UNL1       -0.0003
     30 C           4.1364   -1.4330   32.5033 C.ar    1  UNL1       -0.0029
     31 C           5.9541   -3.2893   32.4927 C.3     1  UNL1        0.0992
     32 C           8.5113   -3.2481   32.0357 C.3     1  UNL1        0.0899
     33 N           7.1724   -3.9036   31.8695 N.3     1  UNL1       -0.2665
     34 C           7.0518   -5.1734   31.0801 C.3     1  UNL1        0.0899
@<TRIPOS>BOND
     1    32    33    1
     2    33    34    1
     3    33    31    1
     4    31    25    1
     5    25    26   ar
     6    26    27   ar
     7    27    28   ar
     8    28    23    1
     9    23    24    2
    10    24     1    1
    11     1     2    2
    12     2     3    1
    13     3     4    2
    14     4     5    1
    15     5     6    1
    16    10     6    1
    17    10    11    1
    18    12    11    1
    19    12    13    1
    20    13    14    2
    21    13    15   am
    22    15    16    1
    23    16    17   ar
    24    17    18   ar
    25    18    19   ar
    26    19    20   ar
    27    20    21   ar
    28     6     7    2
    29     7     8    1
    30     8     9    2
    31    28    29   ar
    32    29    30   ar
    33    30    25   ar
    34     9     1    1
    35     9     4    1
    36    12    10    1
    37    21    16   ar
    38    21    12    1
    39    15    22    1
@<TRIPOS>MOLECULE
*****
 34 39 0 0 0
SMALL
GASTEIGER

@<TRIPOS>ATOM
      1 C           4.4535   -3.3274   21.7909 C.2     1  UNL1        0.1040
      2 N           4.3186   -4.2330   20.6027 N.2     1  UNL1       -0.1483
      3 N           3.6202   -3.4708   19.5159 N.2     1  UNL1       -0.1520
      4 C           3.3236   -2.0941   20.0324 C.2     1  UNL1        0.0860
      5 C           2.6510   -0.9097   19.4040 C.3     1  UNL1        0.0697
      6 C           2.4935    0.3633   20.1816 C.2     1  UNL1       -0.0378
      7 C           3.0085    0.4518   21.5877 C.2     1  UNL1       -0.0080
      8 C           3.6811   -0.7325   22.2161 C.2     1  UNL1        0.0022
      9 C           3.8386   -2.0055   21.4384 C.2     1  UNL1        0.0350
     10 C           1.8209    1.5477   19.5533 C.3     1  UNL1        0.0315
     11 C           1.8499    2.7002   18.5937 C.3     1  UNL1        0.0179
     12 C           0.6271    2.4467   19.4245 C.3     1  UNL1        0.0927
     13 C          -0.2165    1.7333   20.4392 C.2     1  UNL1        0.2293
     14 O           0.1871    0.5220   21.2265 O.2     1  UNL1       -0.2744
     15 N          -1.5345    2.4438   20.5281 N.am    1  UNL1       -0.2839
     16 C          -1.5055    3.5964   19.5685 C.ar    1  UNL1        0.0467
     17 C          -2.5230    4.6444   19.2277 C.ar    1  UNL1        0.0144
     18 C          -2.2046    5.6942   18.2047 C.ar    1  UNL1        0.0013
     19 C          -0.8686    5.6960   17.5227 C.ar    1  UNL1       -0.0002
     20 C           0.1489    4.6479   17.8635 C.ar    1  UNL1       -0.0026
     21 C          -0.1696    3.5981   18.8864 C.ar    1  UNL1       -0.0008
     22 H          -2.2865    2.1971   21.1136 H       1  UNL1        0.1549
     23 C           6.4818   -4.2438   23.1312 C.2     1  UNL1        0.0016
     24 C           5.0915   -3.6817   23.1015 C.2     1  UNL1        0.0209
     25 C           8.3955   -5.3065   27.0630 C.ar    1  UNL1       -0.0061
     26 C           8.5754   -6.2038   25.8745 C.ar    1  UNL1       -0.0029
     27 C           7.9375   -5.8496   24.5639 C.ar    1  UNL1       -0.0003
     28 C           7.1197   -4.5980   24.4418 C.ar    1  UNL1        0.0000
     29 C           6.9398   -3.7007   25.6303 C.ar    1  UNL1       -0.0003
     30 C           7.5777   -4.0550   26.9409 C.ar    1  UNL1       -0.0029
     31 C           9.0334   -5.6607   28.3736 C.3     1  UNL1        0.0992
     32 C           9.1276   -4.2949   30.5816 C.3     1  UNL1        0.0899
     33 N           8.3963   -5.2252   29.6598 N.3     1  UNL1       -0.2665
     34 C           7.0280   -5.7199   30.0243 C.3     1  UNL1        0.0899
@<TRIPOS>BOND
     1    32    33    1
     2    33    34    1
     3    33    31    1
     4    31    25    1
     5    25    26   ar
     6    26    27   ar
     7    27    28   ar
     8    28    23    1
     9    23    24    2
    10    24     1    1
    11     1     2    2
    12     2     3    1
    13     3     4    2
    14     4     5    1
    15     5     6    1
    16    10     6    1
    17    10    11    1
    18    12    11    1
    19    12    13    1
    20    13    14    2
    21    13    15   am
    22    15    16    1
    23    16    17   ar
    24    17    18   ar
    25    18    19   ar
    26    19    20   ar
    27    20    21   ar
    28     6     7    2
    29     7     8    1
    30     8     9    2
    31    28    29   ar
    32    29    30   ar
    33    30    25   ar
    34     9     1    1
    35     9     4    1
    36    12    10    1
    37    21    16   ar
    38    21    12    1
    39    15    22    1
@<TRIPOS>MOLECULE
*****
 34 39 0 0 0
SMALL
GASTEIGER

@<TRIPOS>ATOM
      1 C           0.0312    2.5608   25.2395 C.2     1  UNL1        0.1040
      2 N           1.3019    2.8578   24.4999 N.2     1  UNL1       -0.1483
      3 N           2.4524    2.4687   25.3801 N.2     1  UNL1       -0.1520
      4 C           1.8928    1.9312   26.6638 C.2     1  UNL1        0.0860
      5 C           2.5525    1.3972   27.9006 C.3     1  UNL1        0.0697
      6 C           1.7157    0.9201   29.0505 C.2     1  UNL1       -0.0378
      7 C           0.2194    0.9770   28.9636 C.2     1  UNL1       -0.0080
      8 C          -0.4404    1.5110   27.7268 C.2     1  UNL1        0.0022
      9 C           0.3964    1.9880   26.5769 C.2     1  UNL1        0.0350
     10 C           2.3755    0.3862   30.2874 C.3     1  UNL1        0.0315
     11 C           3.0180   -0.7471   31.0308 C.3     1  UNL1        0.0179
     12 C           2.8755    0.5946   31.6861 C.3     1  UNL1        0.0927
     13 C           2.4769    2.0375   31.7817 C.2     1  UNL1        0.2293
     14 O           1.8020    2.8388   30.7082 O.2     1  UNL1       -0.2744
     15 N           2.8718    2.5385   33.1393 N.am    1  UNL1       -0.2839
     16 C           3.5143    1.4052   33.8828 C.ar    1  UNL1        0.0467
     17 C           4.0976    1.3120   35.2616 C.ar    1  UNL1        0.0144
     18 C           4.6832    0.0174   35.7422 C.ar    1  UNL1        0.0013
     19 C           4.6855   -1.1840   34.8440 C.ar    1  UNL1       -0.0002
     20 C           4.1022   -1.0908   33.4653 C.ar    1  UNL1       -0.0026
     21 C           3.5166    0.2038   32.9847 C.ar    1  UNL1       -0.0008
     22 H           2.7334    3.4509   33.4822 H       1  UNL1        0.1549
     23 C          -2.3269    3.6095   25.5390 C.2     1  UNL1        0.0016
     24 C          -1.3604    2.7952   24.7310 C.2     1  UNL1        0.0209
     25 C          -6.5016    4.3129   24.0134 C.ar    1  UNL1       -0.0061
     26 C          -6.1135    4.7874   25.3825 C.ar    1  UNL1       -0.0029
     27 C          -4.7219    4.5530   25.8910 C.ar    1  UNL1       -0.0003
     28 C          -3.7184    3.8440   25.0305 C.ar    1  UNL1        0.0000
     29 C          -4.1065    3.3695   23.6614 C.ar    1  UNL1       -0.0003
     30 C          -5.4981    3.6040   23.1529 C.ar    1  UNL1       -0.0029
     31 C          -7.8932    4.5474   23.5049 C.3     1  UNL1        0.0992
     32 C          -8.1132    7.0418   22.8127 C.3     1  UNL1        0.0899
     33 N          -8.5377    5.8910   23.6760 N.3     1  UNL1       -0.2665
     34 C          -9.6068    6.0837   24.7104 C.3     1  UNL1        0.0899
@<TRIPOS>BOND
     1    32    33    1
     2    33    34    1
     3    33    31    1
     4    31    25    1
     5    25    26   ar
     6    26    27   ar
     7    27    28   ar
     8    28    23    1
     9    23    24    2
    10    24     1    1
    11     1     2    2
    12     2     3    1
    13     3     4    2
    14     4     5    1
    15     5     6    1
    16    10     6    1
    17    10    11    1
    18    12    11    1
    19    12    13    1
    20    13    14    2
    21    13    15   am
    22    15    16    1
    23    16    17   ar
    24    17    18   ar
    25    18    19   ar
    26    19    20   ar
    27    20    21   ar
    28     6     7    2
    29     7     8    1
    30     8     9    2
    31    28    29   ar
    32    29    30   ar
    33    30    25   ar
    34     9     1    1
    35     9     4    1
    36    12    10    1
    37    21    16   ar
    38    21    12    1
    39    15    22    1
@<TRIPOS>MOLECULE
*****
 34 39 0 0 0
SMALL
GASTEIGER

@<TRIPOS>ATOM
      1 C           5.2454   -3.5659   22.0670 C.2     1  UNL1        0.1040
      2 N           5.5662   -4.3285   20.8157 N.2     1  UNL1       -0.1483
      3 N           4.8948   -3.6369   19.6664 N.2     1  UNL1       -0.1520
      4 C           4.1591   -2.4468   20.2074 C.2     1  UNL1        0.0860
      5 C           3.3200   -1.3975   19.5406 C.3     1  UNL1        0.0697
      6 C           2.6975   -0.3043   20.3575 C.2     1  UNL1       -0.0378
      7 C           2.9142   -0.2605   21.8411 C.2     1  UNL1       -0.0080
      8 C           3.7533   -1.3098   22.5079 C.2     1  UNL1        0.0022
      9 C           4.3759   -2.4030   21.6910 C.2     1  UNL1        0.0350
     10 C           1.8582    0.7452   19.6908 C.3     1  UNL1        0.0315
     11 C           0.5171    1.2425   19.2393 C.3     1  UNL1        0.0179
     12 C           1.7458    2.0653   18.9876 C.3     1  UNL1        0.0927
     13 C           3.2096    2.3901   19.0289 C.2     1  UNL1        0.2293
     14 O           4.2860    1.5347   19.6287 O.2     1  UNL1       -0.2744
     15 N           3.4081    3.7205   18.3651 N.am    1  UNL1       -0.2839
     16 C           2.0669    4.2179   17.9135 C.ar    1  UNL1        0.0467
     17 C           1.6485    5.4702   17.2017 C.ar    1  UNL1        0.0144
     18 C           0.2027    5.6995   16.8746 C.ar    1  UNL1        0.0013
     19 C          -0.8247    4.6765   17.2594 C.ar    1  UNL1       -0.0002
     20 C          -0.4063    3.4243   17.9712 C.ar    1  UNL1       -0.0026
     21 C           1.0396    3.1950   18.2983 C.ar    1  UNL1       -0.0008
     22 H           4.2677    4.1856   18.2466 H       1  UNL1        0.1549
     23 C           6.9743   -4.6939   23.6445 C.2     1  UNL1        0.0016
     24 C           5.7123   -3.9066   23.4512 C.2     1  UNL1        0.0209
     25 C           8.3749   -5.7157   27.7972 C.ar    1  UNL1       -0.0061
     26 C           8.6668   -6.6457   26.6571 C.ar    1  UNL1       -0.0029
     27 C           8.2000   -6.3052   25.2729 C.ar    1  UNL1       -0.0003
     28 C           7.4412   -5.0345   25.0287 C.ar    1  UNL1        0.0000
     29 C           7.1492   -4.1044   26.1688 C.ar    1  UNL1       -0.0003
     30 C           7.6161   -4.4450   27.5530 C.ar    1  UNL1       -0.0029
     31 C           8.8418   -6.0563   29.1814 C.3     1  UNL1        0.0992
     32 C           6.9851   -5.6715   30.9574 C.3     1  UNL1        0.0899
     33 N           8.3093   -5.2973   30.3605 N.3     1  UNL1       -0.2665
     34 C           9.1011   -4.1641   30.9427 C.3     1  UNL1        0.0899
@<TRIPOS>BOND
     1    32    33    1
     2    33    34    1
     3    33    31    1
     4    31    25    1
     5    25    26   ar
     6    26    27   ar
     7    27    28   ar
     8    28    23    1
     9    23    24    2
    10    24     1    1
    11     1     2    2
    12     2     3    1
    13     3     4    2
    14     4     5    1
    15     5     6    1
    16    10     6    1
    17    10    11    1
    18    12    11    1
    19    12    13    1
    20    13    14    2
    21    13    15   am
    22    15    16    1
    23    16    17   ar
    24    17    18   ar
    25    18    19   ar
    26    19    20   ar
    27    20    21   ar
    28     6     7    2
    29     7     8    1
    30     8     9    2
    31    28    29   ar
    32    29    30   ar
    33    30    25   ar
    34     9     1    1
    35     9     4    1
    36    12    10    1
    37    21    16   ar
    38    21    12    1
    39    15    22    1
