@<TRIPOS>MOLECULE
*****
 26 28 0 0 0
SMALL
GASTEIGER

@<TRIPOS>ATOM
      1 C          -8.7795  -17.7850   22.6189 C.3     1  UNL1        0.0509
      2 C          -8.2331  -16.8148   23.6240 C.3     1  UNL1        0.0091
      3 C          -6.9207  -16.1336   23.3722 C.3     1  UNL1        0.0175
      4 C          -6.3743  -15.1633   24.3773 C.3     1  UNL1        0.0686
      5 N          -7.1404  -14.8743   25.6341 N.3     1  UNL1       -0.2975
      6 C          -8.4529  -15.5556   25.8859 C.3     1  UNL1        0.0686
      7 C          -8.9992  -16.5258   24.8808 C.3     1  UNL1        0.0175
      8 H          -7.3229  -13.8708   25.6436 H       1  UNL1        0.1232
      9 C          -9.8918  -17.3689   21.7026 C.ar    1  UNL1        0.0546
     10 C         -11.0377  -18.2295   21.2595 C.ar    1  UNL1        0.1131
     11 N         -11.9077  -17.4117   20.3516 N.ar    1  UNL1       -0.2229
     12 C         -11.2994  -16.0456   20.2335 C.ar    1  UNL1        0.1748
     13 N         -10.0536  -16.0192   21.0685 N.ar    1  UNL1       -0.3382
     14 H          -9.4483  -15.2509   21.1806 H       1  UNL1        0.1672
     15 C          -8.2136  -19.1713   22.5301 C.3     1  UNL1        0.0680
     16 S          -7.4992  -19.6116   21.2869 S.3     1  UNL1       -0.1133
     17 C          -3.1073  -18.7631   20.7956 C.ar    1  UNL1        0.0715
     18 C          -3.9801  -18.9231   19.5862 C.ar    1  UNL1        0.0044
     19 C          -5.4441  -19.2059   19.7500 C.ar    1  UNL1        0.0061
     20 C          -6.0352  -19.3288   21.1231 C.ar    1  UNL1        0.0252
     21 C          -5.1624  -19.1688   22.3324 C.ar    1  UNL1        0.0061
     22 C          -3.6984  -18.8860   22.1687 C.ar    1  UNL1        0.0044
     23 F          -0.1793  -18.1975   20.4680 F       1  UNL1       -0.1659
     24 C          -1.6433  -18.4803   20.6318 C.3     1  UNL1        0.4186
     25 F          -1.8410  -18.3127   19.1543 F       1  UNL1       -0.1659
     26 F          -1.4456  -18.6479   22.1092 F       1  UNL1       -0.1659
@<TRIPOS>BOND
     1    23    24    1
     2    24    25    1
     3    24    26    1
     4    24    17    1
     5    17    18   ar
     6    18    19   ar
     7    19    20   ar
     8    20    16    1
     9    16    15    1
    10    15     1    1
    11     1     9    1
    12     9    10   ar
    13    10    11   ar
    14    11    12   ar
    15    12    13   ar
    16     1     2    1
    17     2     3    1
    18     3     4    1
    19     4     5    1
    20     5     6    1
    21     6     7    1
    22    20    21   ar
    23    21    22   ar
    24    22    17   ar
    25    13     9   ar
    26     7     2    1
    27    13    14    1
    28     5     8    1
@<TRIPOS>MOLECULE
*****
 26 28 0 0 0
SMALL
GASTEIGER

@<TRIPOS>ATOM
      1 C          -8.8192  -17.9958   22.7315 C.3     1  UNL1        0.0509
      2 C          -8.2738  -16.9398   23.6466 C.3     1  UNL1        0.0091
      3 C          -9.0151  -16.5769   24.8990 C.3     1  UNL1        0.0175
      4 C          -8.4697  -15.5208   25.8141 C.3     1  UNL1        0.0686
      5 N          -7.1831  -14.8276   25.4767 N.3     1  UNL1       -0.2975
      6 C          -6.4417  -15.1905   24.2241 C.3     1  UNL1        0.0686
      7 C          -6.9871  -16.2465   23.3091 C.3     1  UNL1        0.0175
      8 H          -6.5455  -14.9949   26.2551 H       1  UNL1        0.1232
      9 C         -10.0792  -17.7408   21.9586 C.ar    1  UNL1        0.0546
     10 C         -11.4643  -18.1393   22.3742 C.ar    1  UNL1        0.1131
     11 N         -12.4165  -17.6872   21.3070 N.ar    1  UNL1       -0.2229
     12 C         -11.6199  -17.0093   20.2318 C.ar    1  UNL1        0.1748
     13 N         -10.1754  -17.0425   20.6346 N.ar    1  UNL1       -0.3382
     14 H          -9.4226  -16.6711   20.1202 H       1  UNL1        0.1672
     15 C          -8.1045  -19.3069   22.5892 C.3     1  UNL1        0.0680
     16 S          -7.4309  -19.6575   21.2957 S.3     1  UNL1       -0.1133
     17 C          -3.0506  -18.7931   20.7335 C.ar    1  UNL1        0.0715
     18 C          -3.6109  -18.9600   22.1149 C.ar    1  UNL1        0.0044
     19 C          -5.0710  -19.2482   22.3023 C.ar    1  UNL1        0.0061
     20 C          -5.9708  -19.3693   21.1083 C.ar    1  UNL1        0.0252
     21 C          -5.4105  -19.2024   19.7270 C.ar    1  UNL1        0.0061
     22 C          -3.9504  -18.9142   19.5396 C.ar    1  UNL1        0.0044
     23 F          -0.1304  -18.2168   20.3587 F       1  UNL1       -0.1659
     24 C          -1.5905  -18.5049   20.5461 C.3     1  UNL1        0.4186
     25 F          -1.8044  -18.3832   19.0665 F       1  UNL1       -0.1659
     26 F          -1.3766  -18.6267   22.0258 F       1  UNL1       -0.1659
@<TRIPOS>BOND
     1    23    24    1
     2    24    25    1
     3    24    26    1
     4    24    17    1
     5    17    18   ar
     6    18    19   ar
     7    19    20   ar
     8    20    16    1
     9    16    15    1
    10    15     1    1
    11     1     9    1
    12     9    10   ar
    13    10    11   ar
    14    11    12   ar
    15    12    13   ar
    16     1     2    1
    17     2     3    1
    18     3     4    1
    19     4     5    1
    20     5     6    1
    21     6     7    1
    22    20    21   ar
    23    21    22   ar
    24    22    17   ar
    25    13     9   ar
    26     7     2    1
    27    13    14    1
    28     5     8    1
@<TRIPOS>MOLECULE
*****
 26 28 0 0 0
SMALL
GASTEIGER

@<TRIPOS>ATOM
      1 C          -8.8278  -17.4805   22.7334 C.3     1  UNL1        0.0509
      2 C         -10.3100  -17.4672   22.9634 C.3     1  UNL1        0.0091
      3 C         -11.1596  -16.4122   22.3192 C.3     1  UNL1        0.0175
      4 C         -12.6418  -16.3989   22.5492 C.3     1  UNL1        0.0686
      5 N         -13.2744  -17.4407   23.4236 N.3     1  UNL1       -0.2975
      6 C         -12.4247  -18.4958   24.0679 C.3     1  UNL1        0.0686
      7 C         -10.9426  -18.5090   23.8378 C.3     1  UNL1        0.0175
      8 H         -13.9637  -17.9272   22.8504 H       1  UNL1        0.1232
      9 C          -7.9317  -16.6125   23.5661 C.ar    1  UNL1        0.0546
     10 C          -8.1750  -16.2022   24.9883 C.ar    1  UNL1        0.1131
     11 N          -7.0287  -15.3385   25.4241 N.ar    1  UNL1       -0.2229
     12 C          -6.0769  -15.2149   24.2713 C.ar    1  UNL1        0.1748
     13 N          -6.6350  -16.0023   23.1230 N.ar    1  UNL1       -0.3382
     14 H          -6.2227  -16.1012   22.2345 H       1  UNL1        0.1672
     15 C          -8.2417  -18.3618   21.6705 C.3     1  UNL1        0.0680
     16 S          -7.1871  -19.3671   22.0271 S.3     1  UNL1       -0.1133
     17 C          -2.9559  -18.7891   20.6083 C.ar    1  UNL1        0.0715
     18 C          -3.2806  -18.6688   22.0677 C.ar    1  UNL1        0.0044
     19 C          -4.6910  -18.8615   22.5407 C.ar    1  UNL1        0.0061
     20 C          -5.7767  -19.1745   21.5542 C.ar    1  UNL1        0.0252
     21 C          -5.4520  -19.2948   20.0947 C.ar    1  UNL1        0.0061
     22 C          -4.0416  -19.1021   19.6218 C.ar    1  UNL1        0.0044
     23 F          -0.1351  -18.4038   19.6623 F       1  UNL1       -0.1659
     24 C          -1.5455  -18.5965   20.1353 C.3     1  UNL1        0.4186
     25 F          -1.0756  -18.5424   21.5588 F       1  UNL1       -0.1659
     26 F          -2.0155  -18.6506   18.7118 F       1  UNL1       -0.1659
@<TRIPOS>BOND
     1    23    24    1
     2    24    25    1
     3    24    26    1
     4    24    17    1
     5    17    18   ar
     6    18    19   ar
     7    19    20   ar
     8    20    16    1
     9    16    15    1
    10    15     1    1
    11     1     9    1
    12     9    10   ar
    13    10    11   ar
    14    11    12   ar
    15    12    13   ar
    16     1     2    1
    17     2     3    1
    18     3     4    1
    19     4     5    1
    20     5     6    1
    21     6     7    1
    22    20    21   ar
    23    21    22   ar
    24    22    17   ar
    25    13     9   ar
    26     7     2    1
    27    13    14    1
    28     5     8    1
@<TRIPOS>MOLECULE
*****
 26 28 0 0 0
SMALL
GASTEIGER

@<TRIPOS>ATOM
      1 C          -8.7948  -17.4900   22.7066 C.3     1  UNL1        0.0509
      2 C         -10.2788  -17.4429   22.9205 C.3     1  UNL1        0.0091
      3 C         -10.9472  -18.4817   23.7715 C.3     1  UNL1        0.0175
      4 C         -12.4311  -18.4346   23.9855 C.3     1  UNL1        0.0686
      5 N         -13.2466  -17.3486   23.3485 N.3     1  UNL1       -0.2975
      6 C         -12.5781  -16.3098   22.4975 C.3     1  UNL1        0.0686
      7 C         -11.0942  -16.3570   22.2836 C.3     1  UNL1        0.0175
      8 H         -13.7170  -16.8515   24.1048 H       1  UNL1        0.1232
      9 C          -7.8909  -16.6167   23.5252 C.ar    1  UNL1        0.0546
     10 C          -8.1025  -16.2266   24.9580 C.ar    1  UNL1        0.1131
     11 N          -6.9591  -15.3489   25.3732 N.ar    1  UNL1       -0.2229
     12 C          -6.0408  -15.1966   24.1969 C.ar    1  UNL1        0.1748
     13 N          -6.6167  -15.9802   23.0548 N.ar    1  UNL1       -0.3382
     14 H          -6.2268  -16.0623   22.1545 H       1  UNL1        0.1672
     15 C          -8.2148  -18.4105   21.6739 C.3     1  UNL1        0.0680
     16 S          -7.1417  -19.3861   22.0567 S.3     1  UNL1       -0.1133
     17 C          -2.9316  -18.7930   20.5827 C.ar    1  UNL1        0.0715
     18 C          -4.0266  -19.1228   19.6121 C.ar    1  UNL1        0.0044
     19 C          -5.4299  -19.3204   20.1034 C.ar    1  UNL1        0.0061
     20 C          -5.7383  -19.1884   21.5654 C.ar    1  UNL1        0.0252
     21 C          -4.6433  -18.8586   22.5360 C.ar    1  UNL1        0.0061
     22 C          -3.2399  -18.6609   22.0447 C.ar    1  UNL1        0.0044
     23 F          -0.1248  -18.3976   19.6001 F       1  UNL1       -0.1659
     24 C          -1.5282  -18.5953   20.0914 C.3     1  UNL1        0.4186
     25 F          -2.0174  -18.6443   18.6743 F       1  UNL1       -0.1659
     26 F          -1.0389  -18.5463   21.5085 F       1  UNL1       -0.1659
@<TRIPOS>BOND
     1    23    24    1
     2    24    25    1
     3    24    26    1
     4    24    17    1
     5    17    18   ar
     6    18    19   ar
     7    19    20   ar
     8    20    16    1
     9    16    15    1
    10    15     1    1
    11     1     9    1
    12     9    10   ar
    13    10    11   ar
    14    11    12   ar
    15    12    13   ar
    16     1     2    1
    17     2     3    1
    18     3     4    1
    19     4     5    1
    20     5     6    1
    21     6     7    1
    22    20    21   ar
    23    21    22   ar
    24    22    17   ar
    25    13     9   ar
    26     7     2    1
    27    13    14    1
    28     5     8    1
@<TRIPOS>MOLECULE
*****
 26 28 0 0 0
SMALL
GASTEIGER

@<TRIPOS>ATOM
      1 C         -10.5333  -18.7784   21.2899 C.3     1  UNL1        0.0509
      2 C         -10.2839  -18.8134   22.7687 C.3     1  UNL1        0.0091
      3 C          -9.8859  -17.5610   23.4919 C.3     1  UNL1        0.0175
      4 C          -9.6365  -17.5959   24.9707 C.3     1  UNL1        0.0686
      5 N          -9.7853  -18.8832   25.7262 N.3     1  UNL1       -0.2975
      6 C         -10.1834  -20.1356   25.0028 C.3     1  UNL1        0.0686
      7 C         -10.4327  -20.1007   23.5241 C.3     1  UNL1        0.0175
      8 H         -10.4897  -18.7224   26.4461 H       1  UNL1        0.1232
      9 C         -11.2377  -17.6053   20.6756 C.ar    1  UNL1        0.0546
     10 C         -12.6327  -17.1516   20.9889 C.ar    1  UNL1        0.1131
     11 N         -12.9281  -15.9458   20.1471 N.ar    1  UNL1       -0.2229
     12 C         -11.7155  -15.6541   19.3135 C.ar    1  UNL1        0.1748
     13 N         -10.6709  -16.6798   19.6402 N.ar    1  UNL1       -0.3382
     14 H          -9.7712  -16.7357   19.2444 H       1  UNL1        0.1672
     15 C         -10.0782  -19.9167   20.4255 C.3     1  UNL1        0.0680
     16 S          -8.9035  -19.7399   19.5097 S.3     1  UNL1       -0.1133
     17 C          -4.7303  -19.6648   21.1916 C.ar    1  UNL1        0.0715
     18 C          -5.7473  -18.6686   21.6639 C.ar    1  UNL1        0.0044
     19 C          -7.1384  -18.6936   21.1033 C.ar    1  UNL1        0.0061
     20 C          -7.5124  -19.7149   20.0703 C.ar    1  UNL1        0.0252
     21 C          -6.4954  -20.7111   19.5980 C.ar    1  UNL1        0.0061
     22 C          -5.1044  -20.6860   20.1586 C.ar    1  UNL1        0.0044
     23 F          -1.9482  -19.6147   22.3129 F       1  UNL1       -0.1659
     24 C          -3.3392  -19.6397   21.7522 C.3     1  UNL1        0.4186
     25 F          -2.8779  -20.5441   20.6480 F       1  UNL1       -0.1659
     26 F          -3.8006  -18.7354   22.8564 F       1  UNL1       -0.1659
@<TRIPOS>BOND
     1    23    24    1
     2    24    25    1
     3    24    26    1
     4    24    17    1
     5    17    18   ar
     6    18    19   ar
     7    19    20   ar
     8    20    16    1
     9    16    15    1
    10    15     1    1
    11     1     9    1
    12     9    10   ar
    13    10    11   ar
    14    11    12   ar
    15    12    13   ar
    16     1     2    1
    17     2     3    1
    18     3     4    1
    19     4     5    1
    20     5     6    1
    21     6     7    1
    22    20    21   ar
    23    21    22   ar
    24    22    17   ar
    25    13     9   ar
    26     7     2    1
    27    13    14    1
    28     5     8    1
@<TRIPOS>MOLECULE
*****
 26 28 0 0 0
SMALL
GASTEIGER

@<TRIPOS>ATOM
      1 C          -8.9609  -17.0866   23.2353 C.3     1  UNL1        0.0509
      2 C         -10.3927  -17.4330   23.5182 C.3     1  UNL1        0.0091
      3 C         -11.4956  -16.6137   22.9164 C.3     1  UNL1        0.0175
      4 C         -12.9274  -16.9602   23.1993 C.3     1  UNL1        0.0686
      5 N         -13.2563  -18.1259   24.0841 N.3     1  UNL1       -0.2975
      6 C         -12.1532  -18.9452   24.6860 C.3     1  UNL1        0.0686
      7 C         -10.7215  -18.5988   24.4030 C.3     1  UNL1        0.0175
      8 H         -13.8283  -18.7636   23.5305 H       1  UNL1        0.1232
      9 C          -8.1783  -16.2694   24.2200 C.ar    1  UNL1        0.0546
     10 C          -6.9951  -15.4034   23.9039 C.ar    1  UNL1        0.1131
     11 N          -6.5270  -14.7735   25.1822 N.ar    1  UNL1       -0.2229
     12 C          -7.4210  -15.2502   26.2884 C.ar    1  UNL1        0.1748
     13 N          -8.4415  -16.1747   25.6937 N.ar    1  UNL1       -0.3382
     14 H          -9.1583  -16.6381   26.1844 H       1  UNL1        0.1672
     15 C          -8.3118  -17.5574   21.9676 C.3     1  UNL1        0.0680
     16 S          -7.5042  -18.8214   21.9631 S.3     1  UNL1       -0.1133
     17 C          -3.1811  -18.7251   20.7177 C.ar    1  UNL1        0.0715
     18 C          -3.6001  -18.1113   22.0206 C.ar    1  UNL1        0.0044
     19 C          -5.0411  -18.1434   22.4357 C.ar    1  UNL1        0.0061
     20 C          -6.0632  -18.7893   21.5480 C.ar    1  UNL1        0.0252
     21 C          -5.6442  -19.4031   20.2451 C.ar    1  UNL1        0.0061
     22 C          -4.2031  -19.3710   19.8299 C.ar    1  UNL1        0.0044
     23 F          -0.2990  -18.6608   19.8874 F       1  UNL1       -0.1659
     24 C          -1.7400  -18.6929   20.3026 C.3     1  UNL1        0.4186
     25 F          -1.3578  -18.2020   21.6674 F       1  UNL1       -0.1659
     26 F          -2.1223  -19.1838   18.9377 F       1  UNL1       -0.1659
@<TRIPOS>BOND
     1    23    24    1
     2    24    25    1
     3    24    26    1
     4    24    17    1
     5    17    18   ar
     6    18    19   ar
     7    19    20   ar
     8    20    16    1
     9    16    15    1
    10    15     1    1
    11     1     9    1
    12     9    10   ar
    13    10    11   ar
    14    11    12   ar
    15    12    13   ar
    16     1     2    1
    17     2     3    1
    18     3     4    1
    19     4     5    1
    20     5     6    1
    21     6     7    1
    22    20    21   ar
    23    21    22   ar
    24    22    17   ar
    25    13     9   ar
    26     7     2    1
    27    13    14    1
    28     5     8    1
@<TRIPOS>MOLECULE
*****
 26 28 0 0 0
SMALL
GASTEIGER

@<TRIPOS>ATOM
      1 C          -7.4092  -18.5155   21.6145 C.3     1  UNL1        0.0509
      2 C          -5.9891  -18.9035   21.3265 C.3     1  UNL1        0.0091
      3 C          -5.0173  -19.0835   22.4548 C.3     1  UNL1        0.0175
      4 C          -3.5972  -19.4715   22.1669 C.3     1  UNL1        0.0686
      5 N          -3.1490  -19.6795   20.7506 N.3     1  UNL1       -0.2975
      6 C          -4.1209  -19.4996   19.6223 C.3     1  UNL1        0.0686
      7 C          -5.5410  -19.1116   19.9102 C.3     1  UNL1        0.0175
      8 H          -2.8008  -20.6363   20.6895 H       1  UNL1        0.1232
      9 C          -7.7050  -17.2352   22.3377 C.ar    1  UNL1        0.0546
     10 C          -8.0489  -17.1031   23.7918 C.ar    1  UNL1        0.1131
     11 N          -8.2652  -15.6484   24.0867 N.ar    1  UNL1       -0.2229
     12 C          -8.0550  -14.8813   22.8149 C.ar    1  UNL1        0.1748
     13 N          -7.7088  -15.8620   21.7340 N.ar    1  UNL1       -0.3382
     14 H          -7.5176  -15.6429   20.7934 H       1  UNL1        0.1672
     15 C          -8.5336  -19.4079   21.1791 C.3     1  UNL1        0.0680
     16 S          -9.8753  -18.8204   20.8558 S.3     1  UNL1       -0.1133
     17 C         -13.0522  -18.5828   24.0340 C.ar    1  UNL1        0.0715
     18 C         -11.7693  -19.3098   24.3088 C.ar    1  UNL1        0.0044
     19 C         -10.7104  -19.3890   23.2494 C.ar    1  UNL1        0.0061
     20 C         -10.9343  -18.7412   21.9152 C.ar    1  UNL1        0.0252
     21 C         -12.2172  -18.0142   21.6404 C.ar    1  UNL1        0.0061
     22 C         -13.2761  -17.9350   22.6998 C.ar    1  UNL1        0.0044
     23 F         -15.1702  -18.4243   26.1528 F       1  UNL1       -0.1659
     24 C         -14.1112  -18.5036   25.0934 C.3     1  UNL1        0.4186
     25 F         -15.1735  -18.5692   24.0364 F       1  UNL1       -0.1659
     26 F         -13.0489  -18.4379   26.1504 F       1  UNL1       -0.1659
@<TRIPOS>BOND
     1    23    24    1
     2    24    25    1
     3    24    26    1
     4    24    17    1
     5    17    18   ar
     6    18    19   ar
     7    19    20   ar
     8    20    16    1
     9    16    15    1
    10    15     1    1
    11     1     9    1
    12     9    10   ar
    13    10    11   ar
    14    11    12   ar
    15    12    13   ar
    16     1     2    1
    17     2     3    1
    18     3     4    1
    19     4     5    1
    20     5     6    1
    21     6     7    1
    22    20    21   ar
    23    21    22   ar
    24    22    17   ar
    25    13     9   ar
    26     7     2    1
    27    13    14    1
    28     5     8    1
@<TRIPOS>MOLECULE
*****
 26 28 0 0 0
SMALL
GASTEIGER

@<TRIPOS>ATOM
      1 C         -10.1219  -18.8122   21.2447 C.3     1  UNL1        0.0509
      2 C         -10.2428  -19.2471   22.6752 C.3     1  UNL1        0.0091
      3 C         -11.1833  -18.5322   23.5995 C.3     1  UNL1        0.0175
      4 C         -11.3041  -18.9671   25.0300 C.3     1  UNL1        0.0686
      5 N         -10.4845  -20.1169   25.5362 N.3     1  UNL1       -0.2975
      6 C          -9.5439  -20.8318   24.6118 C.3     1  UNL1        0.0686
      7 C          -9.4231  -20.3968   23.1813 C.3     1  UNL1        0.0175
      8 H         -11.1408  -20.8150   25.8860 H       1  UNL1        0.1232
      9 C         -11.0086  -17.7250   20.7138 C.ar    1  UNL1        0.0546
     10 C         -12.4432  -17.4962   21.0874 C.ar    1  UNL1        0.1131
     11 N         -12.9376  -16.3056   20.3206 N.ar    1  UNL1       -0.2229
     12 C         -11.8085  -15.7984   19.4732 C.ar    1  UNL1        0.1748
     13 N         -10.6163  -16.6757   19.7162 N.ar    1  UNL1       -0.3382
     14 H          -9.7317  -16.5797   19.2949 H       1  UNL1        0.1672
     15 C          -9.1143  -19.4644   20.3451 C.3     1  UNL1        0.0680
     16 S          -7.7074  -18.9467   20.2949 S.3     1  UNL1       -0.1133
     17 C          -6.0753  -16.5307   23.7226 C.ar    1  UNL1        0.0715
     18 C          -5.3293  -17.7362   23.2324 C.ar    1  UNL1        0.0044
     19 C          -5.8734  -18.5415   22.0899 C.ar    1  UNL1        0.0061
     20 C          -7.1634  -18.1414   21.4374 C.ar    1  UNL1        0.0252
     21 C          -7.9093  -16.9358   21.9275 C.ar    1  UNL1        0.0061
     22 C          -7.3652  -16.1305   23.0701 C.ar    1  UNL1        0.0044
     23 F          -4.9871  -14.9201   26.0077 F       1  UNL1       -0.1659
     24 C          -5.5312  -15.7254   24.8651 C.3     1  UNL1        0.4186
     25 F          -4.4558  -16.7498   25.0751 F       1  UNL1       -0.1659
     26 F          -6.6066  -14.7010   24.6552 F       1  UNL1       -0.1659
@<TRIPOS>BOND
     1    23    24    1
     2    24    25    1
     3    24    26    1
     4    24    17    1
     5    17    18   ar
     6    18    19   ar
     7    19    20   ar
     8    20    16    1
     9    16    15    1
    10    15     1    1
    11     1     9    1
    12     9    10   ar
    13    10    11   ar
    14    11    12   ar
    15    12    13   ar
    16     1     2    1
    17     2     3    1
    18     3     4    1
    19     4     5    1
    20     5     6    1
    21     6     7    1
    22    20    21   ar
    23    21    22   ar
    24    22    17   ar
    25    13     9   ar
    26     7     2    1
    27    13    14    1
    28     5     8    1
@<TRIPOS>MOLECULE
*****
 26 28 0 0 0
SMALL
GASTEIGER

@<TRIPOS>ATOM
      1 C           3.3736   -1.4206   21.4808 C.3     1  UNL1        0.0509
      2 C           4.0188   -1.9982   20.2560 C.3     1  UNL1        0.0091
      3 C           4.7429   -1.1014   19.2960 C.3     1  UNL1        0.0175
      4 C           5.3881   -1.6790   18.0712 C.3     1  UNL1        0.0686
      5 N           5.3092   -3.1533   17.8063 N.3     1  UNL1       -0.2975
      6 C           4.5851   -4.0501   18.7664 C.3     1  UNL1        0.0686
      7 C           3.9399   -3.4725   19.9911 C.3     1  UNL1        0.0175
      8 H           6.2689   -3.4944   17.7515 H       1  UNL1        0.1232
      9 C           2.1535   -0.5580   21.3498 C.ar    1  UNL1        0.0546
     10 C           1.0978   -0.6788   20.2911 C.ar    1  UNL1        0.1131
     11 N           0.0667    0.3815   20.5414 N.ar    1  UNL1       -0.2229
     12 C           0.4852    1.1576   21.7550 C.ar    1  UNL1        0.1748
     13 N           1.7748    0.5770   22.2545 N.ar    1  UNL1       -0.3382
     14 H           2.2835    0.8865   23.0386 H       1  UNL1        0.1672
     15 C           3.9485   -1.7057   22.8366 C.3     1  UNL1        0.0680
     16 S           5.4321   -1.6467   23.0497 S.3     1  UNL1       -0.1133
     17 C           7.7761   -5.4452   23.6212 C.ar    1  UNL1        0.0715
     18 C           7.7531   -4.7725   22.2807 C.ar    1  UNL1        0.0044
     19 C           6.9718   -3.5064   22.0902 C.ar    1  UNL1        0.0061
     20 C           6.2134   -2.9128   23.2402 C.ar    1  UNL1        0.0252
     21 C           6.2364   -3.5855   24.5807 C.ar    1  UNL1        0.0061
     22 C           7.0177   -4.8517   24.7712 C.ar    1  UNL1        0.0044
     23 F           9.3388   -7.9775   24.0021 F       1  UNL1       -0.1659
     24 C           8.5575   -6.7114   23.8116 C.3     1  UNL1        0.4186
     25 F           8.7659   -6.8058   22.3292 F       1  UNL1       -0.1659
     26 F           8.3490   -6.6170   25.2941 F       1  UNL1       -0.1659
@<TRIPOS>BOND
     1    23    24    1
     2    24    25    1
     3    24    26    1
     4    24    17    1
     5    17    18   ar
     6    18    19   ar
     7    19    20   ar
     8    20    16    1
     9    16    15    1
    10    15     1    1
    11     1     9    1
    12     9    10   ar
    13    10    11   ar
    14    11    12   ar
    15    12    13   ar
    16     1     2    1
    17     2     3    1
    18     3     4    1
    19     4     5    1
    20     5     6    1
    21     6     7    1
    22    20    21   ar
    23    21    22   ar
    24    22    17   ar
    25    13     9   ar
    26     7     2    1
    27    13    14    1
    28     5     8    1
