@<TRIPOS>MOLECULE
*****
 23 25 0 0 0
SMALL
GASTEIGER

@<TRIPOS>ATOM
      1 C          -7.6776  -18.0382   22.6386 C.3     1  UNL1        0.1894
      2 C          -6.3229  -18.4797   22.1695 C.ar    1  UNL1        0.0172
      3 C          -6.1945  -19.3229   20.9357 C.ar    1  UNL1       -0.0008
      4 C          -4.8399  -19.7644   20.4666 C.ar    1  UNL1       -0.0002
      5 C          -3.6136  -19.3626   21.2313 C.ar    1  UNL1       -0.0000
      6 C          -3.7420  -18.5193   22.4652 C.ar    1  UNL1       -0.0002
      7 C          -5.0967  -18.0778   22.9343 C.ar    1  UNL1       -0.0008
      8 C          -7.8228  -16.7664   23.4206 C.3     1  UNL1        0.0615
      9 C          -8.3689  -16.6447   24.8123 C.3     1  UNL1        0.0224
     10 C          -8.3310  -15.1961   25.2001 C.3     1  UNL1        0.0687
     11 N          -7.7615  -14.4226   24.0479 N.3     1  UNL1       -0.2973
     12 C          -7.4474  -15.3931   22.9482 C.3     1  UNL1        0.0725
     13 H          -6.9099  -13.9431   24.3401 H       1  UNL1        0.1232
     14 O          -8.8870  -18.8685   22.3257 O.3     1  UNL1       -0.4738
     15 CL        -11.9399  -15.8174   19.4325 Cl      1  UNL1       -0.0821
     16 C         -11.7380  -16.6796   20.6432 C.ar    1  UNL1        0.0616
     17 C         -12.8606  -16.8786   21.6180 C.ar    1  UNL1        0.0238
     18 C         -12.6586  -17.7408   22.8287 C.ar    1  UNL1        0.0720
     19 CL        -13.7813  -17.9397   23.8035 Cl      1  UNL1       -0.0812
     20 C         -11.3341  -18.4041   23.0646 C.ar    1  UNL1        0.1021
     21 CL        -11.1322  -19.2663   24.2753 Cl      1  UNL1       -0.0782
     22 C         -10.2116  -18.2052   22.0898 C.ar    1  UNL1        0.1510
     23 C         -10.4135  -17.3429   20.8791 C.ar    1  UNL1        0.0492
@<TRIPOS>BOND
     1    15    16    1
     2    16    17   ar
     3    17    18   ar
     4    18    19    1
     5    18    20   ar
     6    20    21    1
     7    20    22   ar
     8    22    14    1
     9     1    14    1
    10     1     2    1
    11     2     3   ar
    12     3     4   ar
    13     4     5   ar
    14     5     6   ar
    15     6     7   ar
    16     1     8    1
    17     8     9    1
    18     9    10    1
    19    10    11    1
    20    11    12    1
    21    22    23   ar
    22    23    16   ar
    23     7     2   ar
    24    12     8    1
    25    11    13    1
@<TRIPOS>MOLECULE
*****
 23 25 0 0 0
SMALL
GASTEIGER

@<TRIPOS>ATOM
      1 C          -8.7846  -16.9555   23.8096 C.3     1  UNL1        0.1894
      2 C          -7.9880  -16.3132   24.9063 C.ar    1  UNL1        0.0172
      3 C          -8.5898  -16.1432   26.2697 C.ar    1  UNL1       -0.0008
      4 C          -7.7932  -15.5009   27.3665 C.ar    1  UNL1       -0.0002
      5 C          -6.3947  -15.0286   27.0998 C.ar    1  UNL1       -0.0000
      6 C          -5.7928  -15.1986   25.7364 C.ar    1  UNL1       -0.0002
      7 C          -6.5894  -15.8409   24.6397 C.ar    1  UNL1       -0.0008
      8 C          -9.9793  -17.7983   24.1452 C.3     1  UNL1        0.0615
      9 C         -11.3850  -17.5604   23.6787 C.3     1  UNL1        0.0224
     10 C         -12.2526  -18.6419   24.2513 C.3     1  UNL1        0.0687
     11 N         -11.3830  -19.5481   25.0716 N.3     1  UNL1       -0.2973
     12 C          -9.9781  -19.0266   25.0060 C.3     1  UNL1        0.0725
     13 H         -11.4184  -20.4956   24.6955 H       1  UNL1        0.1232
     14 O          -8.3866  -16.7551   22.3774 O.3     1  UNL1       -0.4738
     15 CL         -4.5445  -20.0446   21.1865 Cl      1  UNL1       -0.0821
     16 C          -5.9474  -19.5558   20.9787 C.ar    1  UNL1        0.0616
     17 C          -6.8320  -20.2230   19.9677 C.ar    1  UNL1        0.0238
     18 C          -8.2348  -19.7343   19.7599 C.ar    1  UNL1        0.0720
     19 CL         -9.1195  -20.4016   18.7488 Cl      1  UNL1       -0.0812
     20 C          -8.7530  -18.5783   20.5631 C.ar    1  UNL1        0.1021
     21 CL        -10.1559  -18.0896   20.3553 Cl      1  UNL1       -0.0782
     22 C          -7.8684  -17.9111   21.5741 C.ar    1  UNL1        0.1510
     23 C          -6.4656  -18.3999   21.7819 C.ar    1  UNL1        0.0492
@<TRIPOS>BOND
     1    15    16    1
     2    16    17   ar
     3    17    18   ar
     4    18    19    1
     5    18    20   ar
     6    20    21    1
     7    20    22   ar
     8    22    14    1
     9     1    14    1
    10     1     2    1
    11     2     3   ar
    12     3     4   ar
    13     4     5   ar
    14     5     6   ar
    15     6     7   ar
    16     1     8    1
    17     8     9    1
    18     9    10    1
    19    10    11    1
    20    11    12    1
    21    22    23   ar
    22    23    16   ar
    23     7     2   ar
    24    12     8    1
    25    11    13    1
@<TRIPOS>MOLECULE
*****
 23 25 0 0 0
SMALL
GASTEIGER

@<TRIPOS>ATOM
      1 C          -8.1903  -17.7074   22.7019 C.3     1  UNL1        0.1894
      2 C          -9.2881  -17.6062   21.6848 C.ar    1  UNL1        0.0172
      3 C          -9.5512  -18.7487   20.7491 C.ar    1  UNL1       -0.0008
      4 C         -10.6491  -18.6475   19.7320 C.ar    1  UNL1       -0.0002
      5 C         -11.4838  -17.4039   19.6505 C.ar    1  UNL1       -0.0000
      6 C         -11.2207  -16.2614   20.5863 C.ar    1  UNL1       -0.0002
      7 C         -10.1229  -16.3626   21.6034 C.ar    1  UNL1       -0.0008
      8 C          -7.9383  -16.5717   23.6489 C.3     1  UNL1        0.0615
      9 C          -8.4710  -16.4542   25.0462 C.3     1  UNL1        0.0224
     10 C          -7.9713  -15.1640   25.6258 C.3     1  UNL1        0.0687
     11 N          -7.1298  -14.4842   24.5866 N.3     1  UNL1       -0.2973
     12 C          -7.1094  -15.3542   23.3649 C.3     1  UNL1        0.0725
     13 H          -6.1805  -14.3585   24.9379 H       1  UNL1        0.1232
     14 O          -7.3446  -18.9442   22.7721 O.3     1  UNL1       -0.4738
     15 CL         -2.4636  -17.1937   23.1069 Cl      1  UNL1       -0.0821
     16 C          -3.4949  -18.0440   22.4262 C.ar    1  UNL1        0.0616
     17 C          -3.1170  -18.8693   21.2321 C.ar    1  UNL1        0.0238
     18 C          -4.1482  -19.7197   20.5513 C.ar    1  UNL1        0.0720
     19 CL         -3.7703  -20.5450   19.3571 Cl      1  UNL1       -0.0812
     20 C          -5.5574  -19.7446   21.0646 C.ar    1  UNL1        0.1021
     21 CL         -6.5887  -20.5949   20.3839 Cl      1  UNL1       -0.0782
     22 C          -5.9353  -18.9193   22.2587 C.ar    1  UNL1        0.1510
     23 C          -4.9040  -18.0690   22.9395 C.ar    1  UNL1        0.0492
@<TRIPOS>BOND
     1    15    16    1
     2    16    17   ar
     3    17    18   ar
     4    18    19    1
     5    18    20   ar
     6    20    21    1
     7    20    22   ar
     8    22    14    1
     9     1    14    1
    10     1     2    1
    11     2     3   ar
    12     3     4   ar
    13     4     5   ar
    14     5     6   ar
    15     6     7   ar
    16     1     8    1
    17     8     9    1
    18     9    10    1
    19    10    11    1
    20    11    12    1
    21    22    23   ar
    22    23    16   ar
    23     7     2   ar
    24    12     8    1
    25    11    13    1
@<TRIPOS>MOLECULE
*****
 23 25 0 0 0
SMALL
GASTEIGER

@<TRIPOS>ATOM
      1 C          -8.4253  -16.4959   23.6937 C.3     1  UNL1        0.1894
      2 C          -9.8095  -17.0719   23.6469 C.ar    1  UNL1        0.0172
      3 C         -10.9059  -16.3326   22.9389 C.ar    1  UNL1       -0.0008
      4 C         -12.2901  -16.9086   22.8921 C.ar    1  UNL1       -0.0002
      5 C         -12.5780  -18.2238   23.5533 C.ar    1  UNL1       -0.0000
      6 C         -11.4815  -18.9632   24.2613 C.ar    1  UNL1       -0.0002
      7 C         -10.0973  -18.3872   24.3081 C.ar    1  UNL1       -0.0008
      8 C          -7.8791  -15.9601   24.9840 C.3     1  UNL1        0.0615
      9 C          -8.4711  -16.1692   26.3463 C.3     1  UNL1        0.0224
     10 C          -7.6030  -15.4595   27.3428 C.3     1  UNL1        0.0687
     11 N          -6.4745  -14.8119   26.5962 N.3     1  UNL1       -0.2973
     12 C          -6.6452  -15.1213   25.1384 C.3     1  UNL1        0.0725
     13 H          -5.5834  -15.1822   26.9266 H       1  UNL1        0.1232
     14 O          -7.5873  -16.4557   22.4503 O.3     1  UNL1       -0.4738
     15 CL         -8.0803  -20.5605   19.3027 Cl      1  UNL1       -0.0821
     16 C          -7.2811  -19.7792   20.3031 C.ar    1  UNL1        0.0616
     17 C          -5.9292  -20.2690   20.7302 C.ar    1  UNL1        0.0238
     18 C          -5.1300  -19.4878   21.7306 C.ar    1  UNL1        0.0720
     19 CL         -3.7780  -19.9777   22.1577 Cl      1  UNL1       -0.0812
     20 C          -5.6826  -18.2167   22.3040 C.ar    1  UNL1        0.1021
     21 CL         -4.8834  -17.4354   23.3044 Cl      1  UNL1       -0.0782
     22 C          -7.0345  -17.7268   21.8770 C.ar    1  UNL1        0.1510
     23 C          -7.8337  -18.5081   20.8765 C.ar    1  UNL1        0.0492
@<TRIPOS>BOND
     1    15    16    1
     2    16    17   ar
     3    17    18   ar
     4    18    19    1
     5    18    20   ar
     6    20    21    1
     7    20    22   ar
     8    22    14    1
     9     1    14    1
    10     1     2    1
    11     2     3   ar
    12     3     4   ar
    13     4     5   ar
    14     5     6   ar
    15     6     7   ar
    16     1     8    1
    17     8     9    1
    18     9    10    1
    19    10    11    1
    20    11    12    1
    21    22    23   ar
    22    23    16   ar
    23     7     2   ar
    24    12     8    1
    25    11    13    1
@<TRIPOS>MOLECULE
*****
 23 25 0 0 0
SMALL
GASTEIGER

@<TRIPOS>ATOM
      1 C          -9.1608  -17.7115   23.9826 C.3     1  UNL1        0.1894
      2 C         -10.6187  -17.5271   23.6819 C.ar    1  UNL1        0.0172
      3 C         -11.6315  -18.4575   24.2805 C.ar    1  UNL1       -0.0008
      4 C         -13.0895  -18.2731   23.9798 C.ar    1  UNL1       -0.0002
      5 C         -13.5346  -17.1582   23.0805 C.ar    1  UNL1       -0.0000
      6 C         -12.5217  -16.2277   22.4818 C.ar    1  UNL1       -0.0002
      7 C         -11.0638  -16.4121   22.7825 C.ar    1  UNL1       -0.0008
      8 C          -8.3841  -16.6069   24.6357 C.3     1  UNL1        0.0615
      9 C          -8.3468  -16.3044   26.1045 C.3     1  UNL1        0.0224
     10 C          -7.4480  -15.1214   26.3114 C.3     1  UNL1        0.0687
     11 N          -6.9300  -14.6927   24.9705 N.3     1  UNL1       -0.2973
     12 C          -7.5085  -15.6108   23.9349 C.3     1  UNL1        0.0725
     13 H          -5.9119  -14.7536   24.9571 H       1  UNL1        0.1232
     14 O          -8.4795  -19.0005   23.6301 O.3     1  UNL1       -0.4738
     15 CL         -4.1981  -19.0182   20.6857 Cl      1  UNL1       -0.0821
     16 C          -5.6846  -19.1699   20.8177 C.ar    1  UNL1        0.0616
     17 C          -6.5168  -19.4821   19.6094 C.ar    1  UNL1        0.0238
     18 C          -8.0033  -19.6338   19.7414 C.ar    1  UNL1        0.0720
     19 CL         -8.8355  -19.9461   18.5331 Cl      1  UNL1       -0.0812
     20 C          -8.6575  -19.4733   21.0816 C.ar    1  UNL1        0.1021
     21 CL        -10.1440  -19.6250   21.2136 Cl      1  UNL1       -0.0782
     22 C          -7.8253  -19.1611   22.2898 C.ar    1  UNL1        0.1510
     23 C          -6.3388  -19.0094   22.1579 C.ar    1  UNL1        0.0492
@<TRIPOS>BOND
     1    15    16    1
     2    16    17   ar
     3    17    18   ar
     4    18    19    1
     5    18    20   ar
     6    20    21    1
     7    20    22   ar
     8    22    14    1
     9     1    14    1
    10     1     2    1
    11     2     3   ar
    12     3     4   ar
    13     4     5   ar
    14     5     6   ar
    15     6     7   ar
    16     1     8    1
    17     8     9    1
    18     9    10    1
    19    10    11    1
    20    11    12    1
    21    22    23   ar
    22    23    16   ar
    23     7     2   ar
    24    12     8    1
    25    11    13    1
@<TRIPOS>MOLECULE
*****
 23 25 0 0 0
SMALL
GASTEIGER

@<TRIPOS>ATOM
      1 C          -9.4909  -17.6166   22.3866 C.3     1  UNL1        0.1894
      2 C          -9.1382  -18.4462   21.1877 C.ar    1  UNL1        0.0172
      3 C         -10.2002  -18.8233   20.1978 C.ar    1  UNL1       -0.0008
      4 C          -9.8475  -19.6529   18.9989 C.ar    1  UNL1       -0.0002
      5 C          -8.4328  -20.1054   18.7899 C.ar    1  UNL1       -0.0000
      6 C          -7.3707  -19.7282   19.7798 C.ar    1  UNL1       -0.0002
      7 C          -7.7234  -18.8987   20.9787 C.ar    1  UNL1       -0.0008
      8 C         -10.5103  -18.1132   23.3687 C.3     1  UNL1        0.0615
      9 C         -11.9833  -17.8325   23.3283 C.3     1  UNL1        0.0224
     10 C         -12.6190  -18.5234   24.4982 C.3     1  UNL1        0.0687
     11 N         -11.5389  -19.2311   25.2615 N.3     1  UNL1       -0.2973
     12 C         -10.2357  -18.9776   24.5634 C.3     1  UNL1        0.0725
     13 H         -11.7303  -20.2328   25.2840 H       1  UNL1        0.1232
     14 O          -8.8244  -16.2905   22.6035 O.3     1  UNL1       -0.4738
     15 CL         -3.7190  -16.8564   23.3880 Cl      1  UNL1       -0.0821
     16 C          -5.0769  -16.4731   23.8971 C.ar    1  UNL1        0.0616
     17 C          -5.2400  -15.9894   25.3075 C.ar    1  UNL1        0.0238
     18 C          -6.5979  -15.6061   25.8166 C.ar    1  UNL1        0.0720
     19 CL         -6.7610  -15.1224   27.2272 Cl      1  UNL1       -0.0812
     20 C          -7.7927  -15.7064   24.9153 C.ar    1  UNL1        0.1021
     21 CL         -9.1506  -15.3231   25.4244 Cl      1  UNL1       -0.0782
     22 C          -7.6296  -16.1901   23.5049 C.ar    1  UNL1        0.1510
     23 C          -6.2717  -16.5734   22.9958 C.ar    1  UNL1        0.0492
@<TRIPOS>BOND
     1    15    16    1
     2    16    17   ar
     3    17    18   ar
     4    18    19    1
     5    18    20   ar
     6    20    21    1
     7    20    22   ar
     8    22    14    1
     9     1    14    1
    10     1     2    1
    11     2     3   ar
    12     3     4   ar
    13     4     5   ar
    14     5     6   ar
    15     6     7   ar
    16     1     8    1
    17     8     9    1
    18     9    10    1
    19    10    11    1
    20    11    12    1
    21    22    23   ar
    22    23    16   ar
    23     7     2   ar
    24    12     8    1
    25    11    13    1
@<TRIPOS>MOLECULE
*****
 23 25 0 0 0
SMALL
GASTEIGER

@<TRIPOS>ATOM
      1 C          -7.5163  -16.6960   23.1502 C.3     1  UNL1        0.1894
      2 C          -7.2245  -16.1763   24.5267 C.ar    1  UNL1        0.0172
      3 C          -8.2901  -16.2084   25.5819 C.ar    1  UNL1       -0.0008
      4 C          -7.9983  -15.6887   26.9584 C.ar    1  UNL1       -0.0002
      5 C          -6.6410  -15.1370   27.2797 C.ar    1  UNL1       -0.0000
      6 C          -5.5754  -15.1049   26.2245 C.ar    1  UNL1       -0.0002
      7 C          -5.8671  -15.6246   24.8479 C.ar    1  UNL1       -0.0008
      8 C          -6.8720  -17.9646   22.6752 C.3     1  UNL1        0.0615
      9 C          -5.3980  -18.2083   22.5414 C.3     1  UNL1        0.0224
     10 C          -5.2035  -19.6066   22.0342 C.3     1  UNL1        0.0687
     11 N          -6.5574  -20.2270   21.8547 N.3     1  UNL1       -0.2973
     12 C          -7.5885  -19.2122   22.2509 C.3     1  UNL1        0.0725
     13 H          -6.6404  -21.0539   22.4461 H       1  UNL1        0.1232
     14 O          -8.4523  -15.9471   22.2486 O.3     1  UNL1       -0.4738
     15 CL        -12.5397  -18.5074   24.1820 Cl      1  UNL1       -0.0821
     16 C         -11.9347  -17.6406   23.1178 C.ar    1  UNL1        0.0616
     17 C         -12.7682  -17.1871   21.9561 C.ar    1  UNL1        0.0238
     18 C         -12.1632  -16.3202   20.8920 C.ar    1  UNL1        0.0720
     19 CL        -12.9968  -15.8667   19.7303 Cl      1  UNL1       -0.0812
     20 C         -10.7246  -15.9069   20.9894 C.ar    1  UNL1        0.1021
     21 CL        -10.1195  -15.0400   19.9252 Cl      1  UNL1       -0.0782
     22 C          -9.8910  -16.3604   22.1511 C.ar    1  UNL1        0.1510
     23 C         -10.4961  -17.2273   23.2152 C.ar    1  UNL1        0.0492
@<TRIPOS>BOND
     1    15    16    1
     2    16    17   ar
     3    17    18   ar
     4    18    19    1
     5    18    20   ar
     6    20    21    1
     7    20    22   ar
     8    22    14    1
     9     1    14    1
    10     1     2    1
    11     2     3   ar
    12     3     4   ar
    13     4     5   ar
    14     5     6   ar
    15     6     7   ar
    16     1     8    1
    17     8     9    1
    18     9    10    1
    19    10    11    1
    20    11    12    1
    21    22    23   ar
    22    23    16   ar
    23     7     2   ar
    24    12     8    1
    25    11    13    1
@<TRIPOS>MOLECULE
*****
 23 25 0 0 0
SMALL
GASTEIGER

@<TRIPOS>ATOM
      1 C          -8.9691  -18.6992   22.0245 C.3     1  UNL1        0.1894
      2 C          -9.8113  -17.7586   21.2146 C.ar    1  UNL1        0.0172
      3 C          -9.7370  -16.2814   21.4639 C.ar    1  UNL1       -0.0008
      4 C         -10.5792  -15.3408   20.6540 C.ar    1  UNL1       -0.0002
      5 C         -11.4956  -15.8774   19.5947 C.ar    1  UNL1       -0.0000
      6 C         -11.5699  -17.3547   19.3453 C.ar    1  UNL1       -0.0002
      7 C         -10.7277  -18.2953   20.1552 C.ar    1  UNL1       -0.0008
      8 C          -9.3903  -19.0758   23.4141 C.3     1  UNL1        0.0615
      9 C          -9.6948  -18.1229   24.5317 C.3     1  UNL1        0.0224
     10 C         -10.0736  -18.9296   25.7384 C.3     1  UNL1        0.0687
     11 N         -10.0032  -20.3810   25.3663 N.3     1  UNL1       -0.2973
     12 C          -9.5808  -20.4714   23.9299 C.3     1  UNL1        0.0725
     13 H         -10.9190  -20.8138   25.4857 H       1  UNL1        0.1232
     14 O          -7.7058  -19.2632   21.4449 O.3     1  UNL1       -0.4738
     15 CL         -4.8863  -15.9727   24.3125 Cl      1  UNL1       -0.0821
     16 C          -4.9641  -17.1479   23.3835 C.ar    1  UNL1        0.0616
     17 C          -3.7099  -17.8529   22.9594 C.ar    1  UNL1        0.0238
     18 C          -3.7877  -19.0280   22.0304 C.ar    1  UNL1        0.0720
     19 CL         -2.5334  -19.7331   21.6063 Cl      1  UNL1       -0.0812
     20 C          -5.1196  -19.4981   21.5256 C.ar    1  UNL1        0.1021
     21 CL         -5.1974  -20.6733   20.5966 Cl      1  UNL1       -0.0782
     22 C          -6.3738  -18.7931   21.9497 C.ar    1  UNL1        0.1510
     23 C          -6.2960  -17.6180   22.8787 C.ar    1  UNL1        0.0492
@<TRIPOS>BOND
     1    15    16    1
     2    16    17   ar
     3    17    18   ar
     4    18    19    1
     5    18    20   ar
     6    20    21    1
     7    20    22   ar
     8    22    14    1
     9     1    14    1
    10     1     2    1
    11     2     3   ar
    12     3     4   ar
    13     4     5   ar
    14     5     6   ar
    15     6     7   ar
    16     1     8    1
    17     8     9    1
    18     9    10    1
    19    10    11    1
    20    11    12    1
    21    22    23   ar
    22    23    16   ar
    23     7     2   ar
    24    12     8    1
    25    11    13    1
@<TRIPOS>MOLECULE
*****
 23 25 0 0 0
SMALL
GASTEIGER

@<TRIPOS>ATOM
      1 C          -9.3060  -17.4936   22.5815 C.3     1  UNL1        0.1894
      2 C          -8.8326  -18.3027   21.4105 C.ar    1  UNL1        0.0172
      3 C          -9.8219  -18.8277   20.4127 C.ar    1  UNL1       -0.0008
      4 C          -9.3485  -19.6368   19.2416 C.ar    1  UNL1       -0.0002
      5 C          -7.8859  -19.9208   19.0684 C.ar    1  UNL1       -0.0000
      6 C          -6.8965  -19.3957   20.0662 C.ar    1  UNL1       -0.0002
      7 C          -7.3699  -18.5867   21.2373 C.ar    1  UNL1       -0.0008
      8 C         -10.4176  -18.0075   23.4479 C.3     1  UNL1        0.0615
      9 C         -11.8757  -17.6928   23.2901 C.3     1  UNL1        0.0224
     10 C         -12.6255  -18.4170   24.3688 C.3     1  UNL1        0.0687
     11 N         -11.6306  -19.1792   25.1932 N.3     1  UNL1       -0.2973
     12 C         -10.2661  -18.9260   24.6240 C.3     1  UNL1        0.0725
     13 H         -11.8417  -20.1764   25.1558 H       1  UNL1        0.1232
     14 O          -8.6679  -16.1708   22.8863 O.3     1  UNL1       -0.4738
     15 CL         -8.9794  -14.8223   27.8947 Cl      1  UNL1       -0.0821
     16 C          -8.1636  -15.2703   26.7184 C.ar    1  UNL1        0.0616
     17 C          -6.6879  -15.4922   26.8699 C.ar    1  UNL1        0.0238
     18 C          -5.8722  -15.9403   25.6935 C.ar    1  UNL1        0.0720
     19 CL         -4.3964  -16.1622   25.8451 Cl      1  UNL1       -0.0812
     20 C          -6.5321  -16.1665   24.3657 C.ar    1  UNL1        0.1021
     21 CL         -5.7164  -16.6145   23.1893 Cl      1  UNL1       -0.0782
     22 C          -8.0078  -15.9446   24.2142 C.ar    1  UNL1        0.1510
     23 C          -8.8236  -15.4965   25.3905 C.ar    1  UNL1        0.0492
@<TRIPOS>BOND
     1    15    16    1
     2    16    17   ar
     3    17    18   ar
     4    18    19    1
     5    18    20   ar
     6    20    21    1
     7    20    22   ar
     8    22    14    1
     9     1    14    1
    10     1     2    1
    11     2     3   ar
    12     3     4   ar
    13     4     5   ar
    14     5     6   ar
    15     6     7   ar
    16     1     8    1
    17     8     9    1
    18     9    10    1
    19    10    11    1
    20    11    12    1
    21    22    23   ar
    22    23    16   ar
    23     7     2   ar
    24    12     8    1
    25    11    13    1
