@<TRIPOS>MOLECULE
*****
 35 38 0 0 0
SMALL
GASTEIGER

@<TRIPOS>ATOM
      1 C          -7.1916  -19.7146   20.8749 C.ar    1  UNL1        0.1534
      2 C          -8.5247  -19.4685   20.2328 C.ar    1  UNL1        0.0351
      3 C          -9.7817  -19.5976   21.0410 C.ar    1  UNL1        0.0722
      4 CL        -11.1148  -19.3514   20.3989 Cl      1  UNL1       -0.0809
      5 C          -9.7057  -19.9729   22.4913 C.ar    1  UNL1        0.0577
      6 C          -8.3726  -20.2190   23.1334 C.ar    1  UNL1        0.0462
      7 C          -7.1156  -20.0899   22.3252 C.ar    1  UNL1        0.1602
      8 F          -5.7825  -20.3361   22.9674 F       1  UNL1       -0.2027
      9 O          -6.0542  -18.0912   20.1194 O.2     1  UNL1       -0.1498
     10 S          -5.9345  -19.5855   20.0668 S.O2    1  UNL1        0.0772
     11 O          -5.8148  -21.0797   20.0141 O.2     1  UNL1       -0.1498
     12 N          -4.6775  -19.4563   19.2586 N.pl3   1  UNL1       -0.1936
     13 H          -4.6454  -19.8061   18.3389 H       1  UNL1        0.1758
     14 C          -3.4693  -18.7941   19.8517 C.ar    1  UNL1        0.1786
     15 N          -2.8432  -17.5156   19.3789 N.ar    1  UNL1       -0.2214
     16 C          -1.6620  -17.2255   20.2567 C.ar    1  UNL1        0.1079
     17 C          -1.5580  -18.3247   21.2721 C.ar    1  UNL1        0.0588
     18 S          -2.6750  -19.2942   21.0218 S.2     1  UNL1       -0.0497
     19 N         -10.9628  -20.1020   23.2995 N.pl3   1  UNL1       -0.3306
     20 H         -11.4988  -20.9262   23.2477 H       1  UNL1        0.1469
     21 C         -11.4031  -18.9755   24.1865 C.3     1  UNL1        0.1075
     22 C         -10.3859  -18.0465   24.7801 C.3     1  UNL1        0.0963
     23 N          -9.7720  -18.3592   26.1125 N.3     1  UNL1       -0.2935
     24 C          -8.7547  -17.4303   26.7061 C.3     1  UNL1        0.0735
     25 C          -8.3514  -16.1887   25.9672 C.3     1  UNL1        0.0428
     26 C          -8.9653  -15.8761   24.6348 C.2     1  UNL1       -0.0276
     27 C          -9.9825  -16.8050   24.0413 C.2     1  UNL1       -0.0106
     28 H          -9.3220  -19.2702   26.0230 H       1  UNL1        0.1236
     29 C         -10.5965  -16.4924   22.7088 C.ar    1  UNL1       -0.0028
     30 C          -9.7269  -16.0626   21.5646 C.ar    1  UNL1        0.0020
     31 C         -10.3407  -15.7500   20.2322 C.ar    1  UNL1        0.0296
     32 C         -11.8243  -15.8673   20.0439 C.ar    1  UNL1        0.1401
     33 F         -12.4382  -15.5547   18.7114 F       1  UNL1       -0.2042
     34 C         -12.6939  -16.2971   21.1880 C.ar    1  UNL1        0.0296
     35 C         -12.0799  -16.6097   22.5205 C.ar    1  UNL1        0.0020
@<TRIPOS>BOND
     1     9    10    2
     2    10    11    2
     3    10    12    1
     4    12    14    1
     5    14    15   ar
     6    15    16   ar
     7    16    17   ar
     8    17    18   ar
     9    10     1    1
    10     1     2   ar
    11     2     3   ar
    12     3     4    1
    13     3     5   ar
    14     5    19    1
    15    19    21    1
    16    22    21    1
    17    22    23    1
    18    23    24    1
    19    24    25    1
    20    25    26    1
    21    26    27    2
    22    27    29    1
    23    29    30   ar
    24    30    31   ar
    25    31    32   ar
    26    32    33    1
    27    32    34   ar
    28    34    35   ar
    29     5     6   ar
    30     6     7   ar
    31     7     8    1
    32    18    14   ar
    33     7     1   ar
    34    27    22    1
    35    35    29   ar
    36    12    13    1
    37    19    20    1
    38    23    28    1
@<TRIPOS>MOLECULE
*****
 35 38 0 0 0
SMALL
GASTEIGER

@<TRIPOS>ATOM
      1 C          -5.3286  -19.5486   20.4944 C.ar    1  UNL1        0.1534
      2 C          -6.6572  -19.5211   19.7987 C.ar    1  UNL1        0.0351
      3 C          -7.9181  -19.7401   20.5810 C.ar    1  UNL1        0.0722
      4 CL         -9.2467  -19.7127   19.8852 Cl      1  UNL1       -0.0809
      5 C          -7.8505  -19.9867   22.0590 C.ar    1  UNL1        0.0577
      6 C          -6.5219  -20.0141   22.7548 C.ar    1  UNL1        0.0462
      7 C          -5.2610  -19.7951   21.9725 C.ar    1  UNL1        0.1602
      8 F          -3.9323  -19.8226   22.6683 F       1  UNL1       -0.2027
      9 O          -3.5089  -20.6118   20.2538 O.2     1  UNL1       -0.1498
     10 S          -4.0676  -19.3295   19.7121 S.O2    1  UNL1        0.0772
     11 O          -4.6263  -18.0472   19.1705 O.2     1  UNL1       -0.1498
     12 N          -2.8066  -19.1105   18.9299 N.pl3   1  UNL1       -0.1936
     13 H          -2.7103  -19.5019   18.0317 H       1  UNL1        0.1758
     14 C          -1.6923  -18.2952   19.5162 C.ar    1  UNL1        0.1786
     15 N          -0.2314  -18.6313   19.4629 N.ar    1  UNL1       -0.2214
     16 C           0.5205  -17.5445   20.1725 C.ar    1  UNL1        0.1079
     17 C          -0.4758  -16.5367   20.6644 C.ar    1  UNL1        0.0588
     18 S          -1.8434  -17.0007   20.2588 S.2     1  UNL1       -0.0497
     19 N          -9.1115  -20.2057   22.8413 N.pl3   1  UNL1       -0.3306
     20 H          -9.6167  -21.0441   22.7361 H       1  UNL1        0.1469
     21 C          -9.6027  -19.1474   23.7839 C.3     1  UNL1        0.1075
     22 C         -10.5809  -18.1145   23.3080 C.3     1  UNL1        0.0963
     23 N         -11.8939  -18.5394   22.7204 N.3     1  UNL1       -0.2935
     24 C         -12.8719  -17.5065   22.2445 C.3     1  UNL1        0.0735
     25 C         -12.5370  -16.0487   22.3562 C.3     1  UNL1        0.0428
     26 C         -11.2239  -15.6237   22.9437 C.2     1  UNL1       -0.0276
     27 C         -10.2459  -16.6566   23.4196 C.2     1  UNL1       -0.0106
     28 H         -12.3712  -19.0903   23.4339 H       1  UNL1        0.1236
     29 C          -8.9327  -16.2317   24.0072 C.ar    1  UNL1       -0.0028
     30 C          -7.7178  -16.1302   23.1334 C.ar    1  UNL1        0.0020
     31 C          -6.4047  -15.7053   23.7209 C.ar    1  UNL1        0.0296
     32 C          -6.3065  -15.3818   25.1824 C.ar    1  UNL1        0.1401
     33 F          -4.9934  -14.9569   25.7699 F       1  UNL1       -0.2042
     34 C          -7.5215  -15.4832   26.0562 C.ar    1  UNL1        0.0296
     35 C          -8.8346  -15.9082   25.4686 C.ar    1  UNL1        0.0020
@<TRIPOS>BOND
     1     9    10    2
     2    10    11    2
     3    10    12    1
     4    12    14    1
     5    14    15   ar
     6    15    16   ar
     7    16    17   ar
     8    17    18   ar
     9    10     1    1
    10     1     2   ar
    11     2     3   ar
    12     3     4    1
    13     3     5   ar
    14     5    19    1
    15    19    21    1
    16    22    21    1
    17    22    23    1
    18    23    24    1
    19    24    25    1
    20    25    26    1
    21    26    27    2
    22    27    29    1
    23    29    30   ar
    24    30    31   ar
    25    31    32   ar
    26    32    33    1
    27    32    34   ar
    28    34    35   ar
    29     5     6   ar
    30     6     7   ar
    31     7     8    1
    32    18    14   ar
    33     7     1   ar
    34    27    22    1
    35    35    29   ar
    36    12    13    1
    37    19    20    1
    38    23    28    1
@<TRIPOS>MOLECULE
*****
 35 38 0 0 0
SMALL
GASTEIGER

@<TRIPOS>ATOM
      1 C          -7.2011  -19.8994   20.8647 C.ar    1  UNL1        0.1534
      2 C          -7.4349  -19.9443   22.3457 C.ar    1  UNL1        0.0351
      3 C          -8.8088  -19.6998   22.8958 C.ar    1  UNL1        0.0722
      4 CL         -9.0427  -19.7448   24.3768 Cl      1  UNL1       -0.0809
      5 C          -9.9488  -19.4103   21.9649 C.ar    1  UNL1        0.0577
      6 C          -9.7150  -19.3654   20.4840 C.ar    1  UNL1        0.0462
      7 C          -8.3411  -19.6099   19.9339 C.ar    1  UNL1        0.1602
      8 F          -8.1073  -19.5650   18.4529 F       1  UNL1       -0.2027
      9 O          -5.6400  -18.6677   20.1259 O.2     1  UNL1       -0.1498
     10 S          -5.8272  -20.1439   20.3146 S.O2    1  UNL1        0.0772
     11 O          -6.0143  -21.6202   20.5033 O.2     1  UNL1       -0.1498
     12 N          -4.4533  -20.3884   19.7644 N.pl3   1  UNL1       -0.1936
     13 H          -4.3068  -21.1069   19.1076 H       1  UNL1        0.1758
     14 C          -3.3027  -19.5381   20.2151 C.ar    1  UNL1        0.1786
     15 N          -2.4869  -18.6265   19.3471 N.ar    1  UNL1       -0.2214
     16 C          -1.4459  -17.9751   20.2084 C.ar    1  UNL1        0.1079
     17 C          -1.6182  -18.4842   21.6089 C.ar    1  UNL1        0.0588
     18 S          -2.7658  -19.4502   21.6130 S.2     1  UNL1       -0.0497
     19 N         -11.3228  -19.1658   22.5151 N.pl3   1  UNL1       -0.3306
     20 H         -11.8536  -19.9172   22.8656 H       1  UNL1        0.1469
     21 C         -11.8879  -17.7765   22.5312 C.3     1  UNL1        0.1075
     22 C         -11.6185  -16.8438   21.3876 C.3     1  UNL1        0.0963
     23 N         -12.5674  -16.7861   20.2274 N.3     1  UNL1       -0.2935
     24 C         -12.2980  -15.8536   19.0839 C.3     1  UNL1        0.0735
     25 C         -11.0797  -14.9787   19.1006 C.3     1  UNL1        0.0428
     26 C         -10.1307  -15.0364   20.2608 C.2     1  UNL1       -0.0276
     27 C         -10.4001  -15.9690   21.4043 C.2     1  UNL1       -0.0106
     28 H         -13.4800  -16.5322   20.6058 H       1  UNL1        0.1236
     29 C          -9.4512  -16.0268   22.5646 C.ar    1  UNL1       -0.0028
     30 C          -9.9730  -15.9157   23.9665 C.ar    1  UNL1        0.0020
     31 C          -9.0241  -15.9734   25.1268 C.ar    1  UNL1        0.0296
     32 C          -7.5533  -16.1423   24.8852 C.ar    1  UNL1        0.1401
     33 F          -6.6045  -16.2000   26.0454 F       1  UNL1       -0.2042
     34 C          -7.0315  -16.2533   23.4833 C.ar    1  UNL1        0.0296
     35 C          -7.9805  -16.1956   22.3230 C.ar    1  UNL1        0.0020
@<TRIPOS>BOND
     1     9    10    2
     2    10    11    2
     3    10    12    1
     4    12    14    1
     5    14    15   ar
     6    15    16   ar
     7    16    17   ar
     8    17    18   ar
     9    10     1    1
    10     1     2   ar
    11     2     3   ar
    12     3     4    1
    13     3     5   ar
    14     5    19    1
    15    19    21    1
    16    22    21    1
    17    22    23    1
    18    23    24    1
    19    24    25    1
    20    25    26    1
    21    26    27    2
    22    27    29    1
    23    29    30   ar
    24    30    31   ar
    25    31    32   ar
    26    32    33    1
    27    32    34   ar
    28    34    35   ar
    29     5     6   ar
    30     6     7   ar
    31     7     8    1
    32    18    14   ar
    33     7     1   ar
    34    27    22    1
    35    35    29   ar
    36    12    13    1
    37    19    20    1
    38    23    28    1
@<TRIPOS>MOLECULE
*****
 35 38 0 0 0
SMALL
GASTEIGER

@<TRIPOS>ATOM
      1 C          -4.8034  -17.0171   23.4637 C.ar    1  UNL1        0.1534
      2 C          -4.9201  -16.1753   24.6997 C.ar    1  UNL1        0.0351
      3 C          -6.2731  -15.7842   25.2157 C.ar    1  UNL1        0.0722
      4 CL         -6.3899  -14.9423   26.4517 Cl      1  UNL1       -0.0809
      5 C          -7.5094  -16.2348   24.4956 C.ar    1  UNL1        0.0577
      6 C          -7.3927  -17.0766   23.2597 C.ar    1  UNL1        0.0462
      7 C          -6.0397  -17.4678   22.7437 C.ar    1  UNL1        0.1602
      8 F          -5.9229  -18.3096   21.5077 F       1  UNL1       -0.2027
      9 O          -3.6635  -18.8061   23.4485 O.2     1  UNL1       -0.1498
     10 S          -3.4503  -17.4083   22.9477 S.O2    1  UNL1        0.0772
     11 O          -3.2371  -16.0106   22.4469 O.2     1  UNL1       -0.1498
     12 N          -2.0973  -17.7996   22.4317 N.pl3   1  UNL1       -0.1936
     13 H          -1.3846  -18.0531   23.0618 H       1  UNL1        0.1758
     14 C          -1.8301  -17.8045   20.9557 C.ar    1  UNL1        0.1786
     15 N          -2.8670  -17.8293   19.8720 N.ar    1  UNL1       -0.2214
     16 C          -2.1568  -17.8256   18.5508 C.ar    1  UNL1        0.1079
     17 C          -0.6810  -17.7985   18.8179 C.ar    1  UNL1        0.0588
     18 S          -0.4791  -17.7854   20.3043 S.2     1  UNL1       -0.0497
     19 N          -8.8625  -15.8436   25.0116 N.pl3   1  UNL1       -0.3306
     20 H          -8.9413  -15.1707   25.7259 H       1  UNL1        0.1469
     21 C         -10.0956  -16.4777   24.4394 C.3     1  UNL1        0.1075
     22 C         -10.1893  -17.9708   24.3298 C.3     1  UNL1        0.0963
     23 N          -9.7662  -18.8353   25.4802 N.3     1  UNL1       -0.2935
     24 C          -9.8599  -20.3283   25.3706 C.3     1  UNL1        0.0735
     25 C         -10.3768  -20.9569   24.1106 C.3     1  UNL1        0.0428
     26 C         -10.7999  -20.0924   22.9601 C.2     1  UNL1       -0.0276
     27 C         -10.7062  -18.5994   23.0697 C.2     1  UNL1       -0.0106
     28 H         -10.3379  -18.5623   26.2796 H       1  UNL1        0.1236
     29 C         -11.1293  -17.7348   21.9192 C.ar    1  UNL1       -0.0028
     30 C         -10.3416  -17.7467   20.6427 C.ar    1  UNL1        0.0020
     31 C         -10.7647  -16.8822   19.4923 C.ar    1  UNL1        0.0296
     32 C         -11.9755  -16.0057   19.6183 C.ar    1  UNL1        0.1401
     33 F         -12.3986  -15.1412   18.4678 F       1  UNL1       -0.2042
     34 C         -12.7632  -15.9938   20.8947 C.ar    1  UNL1        0.0296
     35 C         -12.3401  -16.8584   22.0452 C.ar    1  UNL1        0.0020
@<TRIPOS>BOND
     1     9    10    2
     2    10    11    2
     3    10    12    1
     4    12    14    1
     5    14    15   ar
     6    15    16   ar
     7    16    17   ar
     8    17    18   ar
     9    10     1    1
    10     1     2   ar
    11     2     3   ar
    12     3     4    1
    13     3     5   ar
    14     5    19    1
    15    19    21    1
    16    22    21    1
    17    22    23    1
    18    23    24    1
    19    24    25    1
    20    25    26    1
    21    26    27    2
    22    27    29    1
    23    29    30   ar
    24    30    31   ar
    25    31    32   ar
    26    32    33    1
    27    32    34   ar
    28    34    35   ar
    29     5     6   ar
    30     6     7   ar
    31     7     8    1
    32    18    14   ar
    33     7     1   ar
    34    27    22    1
    35    35    29   ar
    36    12    13    1
    37    19    20    1
    38    23    28    1
@<TRIPOS>MOLECULE
*****
 35 38 0 0 0
SMALL
GASTEIGER

@<TRIPOS>ATOM
      1 C          -5.0155  -17.3881   23.0510 C.ar    1  UNL1        0.1534
      2 C          -5.3851  -16.2158   23.9107 C.ar    1  UNL1        0.0351
      3 C          -6.8268  -15.8438   24.0920 C.ar    1  UNL1        0.0722
      4 CL         -7.1965  -14.6715   24.9518 Cl      1  UNL1       -0.0809
      5 C          -7.8989  -16.6440   23.4136 C.ar    1  UNL1        0.0577
      6 C          -7.5293  -17.8163   22.5539 C.ar    1  UNL1        0.0462
      7 C          -6.0876  -18.1883   22.3726 C.ar    1  UNL1        0.1602
      8 F          -5.7179  -19.3606   21.5129 F       1  UNL1       -0.2027
      9 O          -3.8895  -19.1737   23.2594 O.2     1  UNL1       -0.1498
     10 S          -3.5737  -17.7602   22.8697 S.O2    1  UNL1        0.0772
     11 O          -3.2578  -16.3466   22.4799 O.2     1  UNL1       -0.1498
     12 N          -2.1319  -18.1323   22.6884 N.pl3   1  UNL1       -0.1936
     13 H          -1.5888  -18.3916   23.4674 H       1  UNL1        0.1758
     14 C          -1.5178  -18.1093   21.3200 C.ar    1  UNL1        0.1786
     15 N          -0.0591  -17.9460   21.0109 N.ar    1  UNL1       -0.2214
     16 C           0.1057  -17.9813   19.5204 C.ar    1  UNL1        0.1079
     17 C          -1.2512  -18.1664   18.9083 C.ar    1  UNL1        0.0588
     18 S          -2.2546  -18.2455   20.0206 S.2     1  UNL1       -0.0497
     19 N          -9.3408  -16.2719   23.5950 N.pl3   1  UNL1       -0.3306
     20 H          -9.6775  -16.0272   24.4871 H       1  UNL1        0.1469
     21 C         -10.2694  -16.2727   22.4171 C.3     1  UNL1        0.1075
     22 C         -10.3152  -17.4581   21.4989 C.3     1  UNL1        0.0963
     23 N          -9.4448  -17.4950   20.2779 N.3     1  UNL1       -0.2935
     24 C          -9.4906  -18.6803   19.3598 C.3     1  UNL1        0.0735
     25 C         -10.4069  -19.8286   19.6627 C.3     1  UNL1        0.0428
     26 C         -11.2773  -19.7917   20.8837 C.2     1  UNL1       -0.0276
     27 C         -11.2315  -18.6064   21.8018 C.2     1  UNL1       -0.0106
     28 H          -8.4810  -17.4097   20.6007 H       1  UNL1        0.1236
     29 C         -12.1020  -18.5694   23.0229 C.ar    1  UNL1       -0.0028
     30 C         -11.5379  -18.9557   24.3580 C.ar    1  UNL1        0.0020
     31 C         -12.4083  -18.9188   25.5791 C.ar    1  UNL1        0.0296
     32 C         -13.8428  -18.4954   25.4650 C.ar    1  UNL1        0.1401
     33 F         -14.7132  -18.4585   26.6861 F       1  UNL1       -0.2042
     34 C         -14.4069  -18.1091   24.1299 C.ar    1  UNL1        0.0296
     35 C         -13.5364  -18.1461   22.9088 C.ar    1  UNL1        0.0020
@<TRIPOS>BOND
     1     9    10    2
     2    10    11    2
     3    10    12    1
     4    12    14    1
     5    14    15   ar
     6    15    16   ar
     7    16    17   ar
     8    17    18   ar
     9    10     1    1
    10     1     2   ar
    11     2     3   ar
    12     3     4    1
    13     3     5   ar
    14     5    19    1
    15    19    21    1
    16    22    21    1
    17    22    23    1
    18    23    24    1
    19    24    25    1
    20    25    26    1
    21    26    27    2
    22    27    29    1
    23    29    30   ar
    24    30    31   ar
    25    31    32   ar
    26    32    33    1
    27    32    34   ar
    28    34    35   ar
    29     5     6   ar
    30     6     7   ar
    31     7     8    1
    32    18    14   ar
    33     7     1   ar
    34    27    22    1
    35    35    29   ar
    36    12    13    1
    37    19    20    1
    38    23    28    1
@<TRIPOS>MOLECULE
*****
 35 38 0 0 0
SMALL
GASTEIGER

@<TRIPOS>ATOM
      1 C         -14.6985   -7.5932   18.5790 C.ar    1  UNL1        0.1534
      2 C         -13.2583   -7.6750   18.1678 C.ar    1  UNL1        0.0351
      3 C         -12.3200   -6.5515   18.4951 C.ar    1  UNL1        0.0722
      4 CL        -10.8797   -6.6333   18.0840 Cl      1  UNL1       -0.0809
      5 C         -12.8218   -5.3462   19.2336 C.ar    1  UNL1        0.0577
      6 C         -14.2620   -5.2643   19.6447 C.ar    1  UNL1        0.0462
      7 C         -15.2004   -6.3878   19.3174 C.ar    1  UNL1        0.1602
      8 F         -16.6407   -6.3060   19.7286 F       1  UNL1       -0.2027
      9 O         -16.2269   -7.9002   17.1403 O.2     1  UNL1       -0.1498
     10 S         -15.6370   -8.7167   18.2517 S.O2    1  UNL1        0.0772
     11 O         -15.0470   -9.5333   19.3631 O.2     1  UNL1       -0.1498
     12 N         -16.5754   -9.8402   17.9244 N.pl3   1  UNL1       -0.1936
     13 H         -16.2464  -10.6306   17.4382 H       1  UNL1        0.1758
     14 C         -18.0151   -9.7595   18.3379 C.ar    1  UNL1        0.1786
     15 N         -18.5342   -9.1640   19.6129 N.ar    1  UNL1       -0.2214
     16 C         -20.0283   -9.2966   19.6119 C.ar    1  UNL1        0.1079
     17 C         -20.4326   -9.9742   18.3361 C.ar    1  UNL1        0.0588
     18 S         -19.1883  -10.2603   17.5487 S.2     1  UNL1       -0.0497
     19 N         -11.8834   -4.2226   19.5608 N.pl3   1  UNL1       -0.3306
     20 H         -10.9227   -4.4023   19.6794 H       1  UNL1        0.1469
     21 C         -12.4087   -2.8253   19.7075 C.3     1  UNL1        0.1075
     22 C         -12.1649   -1.8150   18.6259 C.3     1  UNL1        0.0963
     23 N         -10.7634   -1.5074   18.1889 N.3     1  UNL1       -0.2935
     24 C         -10.5197   -0.4971   17.1073 C.3     1  UNL1        0.0735
     25 C         -11.6775    0.2056   16.4627 C.3     1  UNL1        0.0428
     26 C         -13.0791   -0.1020   16.8996 C.2     1  UNL1       -0.0276
     27 C         -13.3228   -1.1123   17.9812 C.2     1  UNL1       -0.0106
     28 H         -10.3553   -2.3857   17.8688 H       1  UNL1        0.1236
     29 C         -14.7244   -1.4199   18.4182 C.ar    1  UNL1       -0.0028
     30 C         -15.3583   -0.6235   19.5200 C.ar    1  UNL1        0.0020
     31 C         -16.7599   -0.9310   19.9570 C.ar    1  UNL1        0.0296
     32 C         -17.5276   -2.0351   19.2923 C.ar    1  UNL1        0.1401
     33 F         -18.9291   -2.3427   19.7293 F       1  UNL1       -0.2042
     34 C         -16.8936   -2.8315   18.1905 C.ar    1  UNL1        0.0296
     35 C         -15.4920   -2.5239   17.7535 C.ar    1  UNL1        0.0020
@<TRIPOS>BOND
     1     9    10    2
     2    10    11    2
     3    10    12    1
     4    12    14    1
     5    14    15   ar
     6    15    16   ar
     7    16    17   ar
     8    17    18   ar
     9    10     1    1
    10     1     2   ar
    11     2     3   ar
    12     3     4    1
    13     3     5   ar
    14     5    19    1
    15    19    21    1
    16    22    21    1
    17    22    23    1
    18    23    24    1
    19    24    25    1
    20    25    26    1
    21    26    27    2
    22    27    29    1
    23    29    30   ar
    24    30    31   ar
    25    31    32   ar
    26    32    33    1
    27    32    34   ar
    28    34    35   ar
    29     5     6   ar
    30     6     7   ar
    31     7     8    1
    32    18    14   ar
    33     7     1   ar
    34    27    22    1
    35    35    29   ar
    36    12    13    1
    37    19    20    1
    38    23    28    1
@<TRIPOS>MOLECULE
*****
 35 38 0 0 0
SMALL
GASTEIGER

@<TRIPOS>ATOM
      1 C           1.1232    2.6258   31.5758 C.ar    1  UNL1        0.1534
      2 C           0.5430    3.9523   31.9677 C.ar    1  UNL1        0.0351
      3 C           0.7973    4.5067   33.3381 C.ar    1  UNL1        0.0722
      4 CL          0.2170    5.8333   33.7300 Cl      1  UNL1       -0.0809
      5 C           1.6318    3.7347   34.3165 C.ar    1  UNL1        0.0577
      6 C           2.2121    2.4082   33.9246 C.ar    1  UNL1        0.0462
      7 C           1.9578    1.8537   32.5543 C.ar    1  UNL1        0.1602
      8 F           2.5381    0.5272   32.1623 F       1  UNL1       -0.2027
      9 O          -0.2420    1.2258   30.7538 O.2     1  UNL1       -0.1498
     10 S           0.8690    2.0713   30.2054 S.O2    1  UNL1        0.0772
     11 O           1.9799    2.9169   29.6571 O.2     1  UNL1       -0.1498
     12 N           0.6147    1.5168   28.8351 N.pl3   1  UNL1       -0.1936
     13 H          -0.2422    1.6937   28.3837 H       1  UNL1        0.1758
     14 C           1.6659    0.6928   28.1525 C.ar    1  UNL1        0.1786
     15 N           2.2145    0.9277   26.7763 N.ar    1  UNL1       -0.2214
     16 C           3.2407   -0.1307   26.4995 C.ar    1  UNL1        0.1079
     17 C           3.3263   -1.0198   27.7046 C.ar    1  UNL1        0.0588
     18 S           2.3530   -0.5108   28.7262 S.2     1  UNL1       -0.0497
     19 N           1.8861    4.2892   35.6869 N.pl3   1  UNL1       -0.3306
     20 H           1.4758    5.1425   35.9566 H       1  UNL1        0.1469
     21 C           2.7655    3.5435   36.6464 C.3     1  UNL1        0.1075
     22 C           2.1543    2.6518   37.6863 C.3     1  UNL1        0.0963
     23 N           0.8169    2.9923   38.2740 N.3     1  UNL1       -0.2935
     24 C           0.2057    2.1006   39.3138 C.3     1  UNL1        0.0735
     25 C           0.9318    0.8685   39.7659 C.3     1  UNL1        0.0428
     26 C           2.2692    0.5280   39.1783 C.2     1  UNL1       -0.0276
     27 C           2.8804    1.4197   38.1384 C.2     1  UNL1       -0.0106
     28 H           0.1565    3.0352   37.4978 H       1  UNL1        0.1236
     29 C           4.2179    1.0792   37.5507 C.ar    1  UNL1       -0.0028
     30 C           5.4460    1.8086   38.0088 C.ar    1  UNL1        0.0020
     31 C           6.7834    1.4681   37.4211 C.ar    1  UNL1        0.0296
     32 C           6.8928    0.3983   36.3753 C.ar    1  UNL1        0.1401
     33 F           8.2302    0.0579   35.7876 F       1  UNL1       -0.2042
     34 C           5.6647   -0.3310   35.9172 C.ar    1  UNL1        0.0296
     35 C           4.3272    0.0094   36.5050 C.ar    1  UNL1        0.0020
@<TRIPOS>BOND
     1     9    10    2
     2    10    11    2
     3    10    12    1
     4    12    14    1
     5    14    15   ar
     6    15    16   ar
     7    16    17   ar
     8    17    18   ar
     9    10     1    1
    10     1     2   ar
    11     2     3   ar
    12     3     4    1
    13     3     5   ar
    14     5    19    1
    15    19    21    1
    16    22    21    1
    17    22    23    1
    18    23    24    1
    19    24    25    1
    20    25    26    1
    21    26    27    2
    22    27    29    1
    23    29    30   ar
    24    30    31   ar
    25    31    32   ar
    26    32    33    1
    27    32    34   ar
    28    34    35   ar
    29     5     6   ar
    30     6     7   ar
    31     7     8    1
    32    18    14   ar
    33     7     1   ar
    34    27    22    1
    35    35    29   ar
    36    12    13    1
    37    19    20    1
    38    23    28    1
@<TRIPOS>MOLECULE
*****
 35 38 0 0 0
SMALL
GASTEIGER

@<TRIPOS>ATOM
      1 C           1.3349    2.4016   31.7702 C.ar    1  UNL1        0.1534
      2 C           0.7098    3.7292   32.0812 C.ar    1  UNL1        0.0351
      3 C           0.9317    4.3673   33.4204 C.ar    1  UNL1        0.0722
      4 CL          0.3066    5.6949   33.7315 Cl      1  UNL1       -0.0809
      5 C           1.7787    3.6778   34.4486 C.ar    1  UNL1        0.0577
      6 C           2.4038    2.3502   34.1377 C.ar    1  UNL1        0.0462
      7 C           2.1819    1.7121   32.7985 C.ar    1  UNL1        0.1602
      8 F           2.8070    0.3845   32.4874 F       1  UNL1       -0.2027
      9 O          -0.2377    1.2905   30.8802 O.2     1  UNL1       -0.1498
     10 S           1.1130    1.7634   30.4310 S.O2    1  UNL1        0.0772
     11 O           2.4638    2.2363   29.9818 O.2     1  UNL1       -0.1498
     12 N           0.8911    1.1252   29.0918 N.pl3   1  UNL1       -0.1936
     13 H           1.1996    0.2047   28.9280 H       1  UNL1        0.1758
     14 C           0.1993    1.8895   28.0021 C.ar    1  UNL1        0.1786
     15 N          -0.1030    3.3587   28.0108 N.ar    1  UNL1       -0.2214
     16 C          -0.8008    3.6959   26.7266 C.ar    1  UNL1        0.1079
     17 C          -0.9299    2.4351   25.9242 C.ar    1  UNL1        0.0588
     18 S          -0.3117    1.3186   26.7126 S.2     1  UNL1       -0.0497
     19 N           2.0006    4.3160   35.7879 N.pl3   1  UNL1       -0.3306
     20 H           1.5991    5.1923   35.9882 H       1  UNL1        0.1469
     21 C           2.8343    3.6191   36.8219 C.3     1  UNL1        0.1075
     22 C           2.1893    2.6771   37.7950 C.3     1  UNL1        0.0963
     23 N           0.8418    2.9991   38.3698 N.3     1  UNL1       -0.2935
     24 C           0.1970    2.0571   39.3428 C.3     1  UNL1        0.0735
     25 C           0.8996    0.7931   39.7410 C.3     1  UNL1        0.0428
     26 C           2.2471    0.4711   39.1662 C.2     1  UNL1       -0.0276
     27 C           2.8920    1.4131   38.1932 C.2     1  UNL1       -0.0106
     28 H           0.2006    3.0934   37.5822 H       1  UNL1        0.1236
     29 C           4.2396    1.0911   37.6184 C.ar    1  UNL1       -0.0028
     30 C           4.3704    0.0390   36.5572 C.ar    1  UNL1        0.0020
     31 C           5.7178   -0.2830   35.9823 C.ar    1  UNL1        0.0296
     32 C           6.9347    0.4471   36.4686 C.ar    1  UNL1        0.1401
     33 F           8.2822    0.1250   35.8938 F       1  UNL1       -0.2042
     34 C           6.8039    1.4991   37.5298 C.ar    1  UNL1        0.0296
     35 C           5.4563    1.8211   38.1047 C.ar    1  UNL1        0.0020
@<TRIPOS>BOND
     1     9    10    2
     2    10    11    2
     3    10    12    1
     4    12    14    1
     5    14    15   ar
     6    15    16   ar
     7    16    17   ar
     8    17    18   ar
     9    10     1    1
    10     1     2   ar
    11     2     3   ar
    12     3     4    1
    13     3     5   ar
    14     5    19    1
    15    19    21    1
    16    22    21    1
    17    22    23    1
    18    23    24    1
    19    24    25    1
    20    25    26    1
    21    26    27    2
    22    27    29    1
    23    29    30   ar
    24    30    31   ar
    25    31    32   ar
    26    32    33    1
    27    32    34   ar
    28    34    35   ar
    29     5     6   ar
    30     6     7   ar
    31     7     8    1
    32    18    14   ar
    33     7     1   ar
    34    27    22    1
    35    35    29   ar
    36    12    13    1
    37    19    20    1
    38    23    28    1
@<TRIPOS>MOLECULE
*****
 35 38 0 0 0
SMALL
GASTEIGER

@<TRIPOS>ATOM
      1 C           1.5601    0.6141   21.4332 C.ar    1  UNL1        0.1534
      2 C           1.8711    0.6382   22.9004 C.ar    1  UNL1        0.0351
      3 C           2.8285   -0.3601   23.4805 C.ar    1  UNL1        0.0722
      4 CL          3.1396   -0.3360   24.9478 Cl      1  UNL1       -0.0809
      5 C           3.4750   -1.3825   22.5935 C.ar    1  UNL1        0.0577
      6 C           3.1639   -1.4067   21.1264 C.ar    1  UNL1        0.0462
      7 C           2.2065   -0.4084   20.5462 C.ar    1  UNL1        0.1602
      8 F           1.8954   -0.4324   19.0790 F       1  UNL1       -0.2027
      9 O          -0.4362    0.5386   20.7196 O.2     1  UNL1       -0.1498
     10 S           0.6026    1.6124   20.8530 S.O2    1  UNL1        0.0772
     11 O           1.6414    2.6862   20.9863 O.2     1  UNL1       -0.1498
     12 N          -0.3549    2.6107   20.2727 N.pl3   1  UNL1       -0.1936
     13 H          -0.1936    2.9839   19.3761 H       1  UNL1        0.1758
     14 C          -1.5582    3.0403   21.0586 C.ar    1  UNL1        0.1786
     15 N          -2.9896    2.8608   20.6480 N.ar    1  UNL1       -0.2214
     16 C          -3.8573    3.4345   21.7287 C.ar    1  UNL1        0.1079
     17 C          -2.9621    3.9685   22.8074 C.ar    1  UNL1        0.0588
     18 S          -1.5411    3.7249   22.3932 S.2     1  UNL1       -0.0497
     19 N           4.4324   -2.3809   23.1738 N.pl3   1  UNL1       -0.3306
     20 H           4.8227   -2.2284   24.0647 H       1  UNL1        0.1469
     21 C           4.7953   -3.6115   22.3967 C.3     1  UNL1        0.1075
     22 C           6.2352   -4.0008   22.2377 C.3     1  UNL1        0.0963
     23 N           6.9151   -4.8103   23.3019 N.3     1  UNL1       -0.2935
     24 C           8.3549   -5.1995   23.1429 C.3     1  UNL1        0.0735
     25 C           9.1148   -4.7793   21.9199 C.3     1  UNL1        0.0428
     26 C           8.4350   -3.9699   20.8557 C.2     1  UNL1       -0.0276
     27 C           6.9951   -3.5806   21.0147 C.2     1  UNL1       -0.0106
     28 H           6.3847   -5.6763   23.3970 H       1  UNL1        0.1236
     29 C           6.3152   -2.7711   19.9505 C.ar    1  UNL1       -0.0028
     30 C           5.3997   -3.4407   18.9689 C.ar    1  UNL1        0.0020
     31 C           4.7198   -2.6313   17.9047 C.ar    1  UNL1        0.0296
     32 C           4.9552   -1.1521   17.8222 C.ar    1  UNL1        0.1401
     33 F           4.2753   -0.3427   16.7581 F       1  UNL1       -0.2042
     34 C           5.8706   -0.4825   18.8038 C.ar    1  UNL1        0.0296
     35 C           6.5506   -1.2920   19.8680 C.ar    1  UNL1        0.0020
@<TRIPOS>BOND
     1     9    10    2
     2    10    11    2
     3    10    12    1
     4    12    14    1
     5    14    15   ar
     6    15    16   ar
     7    16    17   ar
     8    17    18   ar
     9    10     1    1
    10     1     2   ar
    11     2     3   ar
    12     3     4    1
    13     3     5   ar
    14     5    19    1
    15    19    21    1
    16    22    21    1
    17    22    23    1
    18    23    24    1
    19    24    25    1
    20    25    26    1
    21    26    27    2
    22    27    29    1
    23    29    30   ar
    24    30    31   ar
    25    31    32   ar
    26    32    33    1
    27    32    34   ar
    28    34    35   ar
    29     5     6   ar
    30     6     7   ar
    31     7     8    1
    32    18    14   ar
    33     7     1   ar
    34    27    22    1
    35    35    29   ar
    36    12    13    1
    37    19    20    1
    38    23    28    1
